MODEL 1
REMARK VINA RESULT:     -11.7      0.000      0.000
REMARK  Name = 10050566
REMARK  9 active torsions:
REMARK  status: ('A' for Active; 'I' for Inactive)
REMARK    1  A    between atoms: C_2  and  N_11
REMARK    2  A    between atoms: C_3  and  O_22
REMARK    3  A    between atoms: C_12  and  C_14
REMARK    4  A    between atoms: C_19  and  O_20
REMARK    5  A    between atoms: O_22  and  C_24
REMARK    6  A    between atoms: C_24  and  C_25
REMARK    7  A    between atoms: C_30  and  C_32
REMARK    8  A    between atoms: C_32  and  C_33
REMARK    9  A    between atoms: C_34  and  O_39
REMARK                            x       y       z     vdW  Elec       q    Type
REMARK                         _______ _______ _______ _____ _____    ______ ____
ROOT
ATOM      1  N   UNL     1      32.257 -22.381 -13.955  0.00  0.00    +0.385 N 
ATOM      2  C   UNL     1      34.349 -23.344 -14.931  0.00  0.00    +0.091 C 
ATOM      3  C   UNL     1      33.620 -24.108 -16.051  0.00  0.00    +0.185 C 
ATOM      4  C   UNL     1      32.416 -24.956 -15.626  0.00  0.00    +0.043 C 
ATOM      5  C   UNL     1      33.535 -23.034 -13.671  0.00  0.00    -0.058 C 
ATOM      6  C   UNL     1      31.137 -24.174 -15.318  0.00  0.00    -0.020 C 
ATOM      7  C   UNL     1      31.165 -23.353 -14.034  0.00  0.00    -0.082 C 
ATOM      8  H   UNL     1      32.327 -21.887 -14.845  0.00  0.00    -0.084 HD
ATOM      9  H   UNL     1      32.053 -21.732 -13.195  0.00  0.00    -0.084 HD
ENDROOT
BRANCH   2  11
ATOM     10  O   UNL     1      37.039 -22.746 -15.730  0.00  0.00    -0.270 OA
ATOM     11  N   UNL     1      35.547 -24.067 -14.546  0.00  0.00    -0.301 N 
ATOM     12  C   UNL     1      36.802 -23.695 -14.988  0.00  0.00    +0.246 C 
ATOM     13  H   UNL     1      35.462 -24.847 -13.952  0.00  0.00    +0.150 HD
BRANCH  12  14
ATOM     14  C   UNL     1      37.924 -24.553 -14.526  0.00  0.00    +0.054 C 
ATOM     15  C   UNL     1      39.101 -24.553 -15.245  0.00  0.00    +0.008 C 
ATOM     16  C   UNL     1      37.753 -25.323 -13.395  0.00  0.00    +0.008 C 
ATOM     17  C   UNL     1      40.155 -25.358 -14.812  0.00  0.00    +0.037 C 
ATOM     18  C   UNL     1      38.806 -26.128 -12.961  0.00  0.00    +0.037 C 
ATOM     19  C   UNL     1      40.008 -26.145 -13.671  0.00  0.00    +0.134 C 
BRANCH  19  20
ATOM     20  O   UNL     1      41.036 -26.929 -13.247  0.00  0.00    -0.506 OA
ATOM     21  H   UNL     1      41.833 -26.961 -13.738  0.00  0.00    +0.292 HD
ENDBRANCH  19  20
ENDBRANCH  12  14
ENDBRANCH   2  11
BRANCH   3  22
ATOM     22  O   UNL     1      33.232 -23.189 -17.077  0.00  0.00    -0.448 OA
BRANCH  22  24
ATOM     23  O   UNL     1      33.513 -24.640 -18.841  0.00  0.00    -0.245 OA
ATOM     24  C   UNL     1      33.597 -23.531 -18.337  0.00  0.00    +0.341 C 
BRANCH  24  25
ATOM     25  C   UNL     1      34.133 -22.349 -19.057  0.00  0.00    +0.076 C 
ATOM     26  C   UNL     1      33.247 -21.446 -19.610  0.00  0.00    +0.007 C 
ATOM     27  C   UNL     1      35.501 -22.189 -19.153  0.00  0.00    +0.007 C 
ATOM     28  C   UNL     1      33.752 -20.336 -20.288  0.00  0.00    +0.003 C 
ATOM     29  C   UNL     1      36.005 -21.079 -19.830  0.00  0.00    +0.003 C 
ATOM     30  C   UNL     1      35.130 -20.152 -20.398  0.00  0.00    +0.039 C 
BRANCH  30  32
ATOM     31  O   UNL     1      36.622 -18.369 -20.647  0.00  0.00    -0.286 OA
ATOM     32  C   UNL     1      35.655 -18.995 -21.105  0.00  0.00    +0.198 C 
BRANCH  32  33
ATOM     33  C   UNL     1      35.069 -18.509 -22.391  0.00  0.00    +0.073 C 
ATOM     34  C   UNL     1      34.963 -17.156 -22.619  0.00  0.00    +0.137 C 
ATOM     35  C   UNL     1      34.658 -19.452 -23.305  0.00  0.00    +0.006 C 
ATOM     36  C   UNL     1      34.414 -16.723 -23.825  0.00  0.00    +0.037 C 
ATOM     37  C   UNL     1      34.109 -19.020 -24.512  0.00  0.00    +0.000 C 
ATOM     38  C   UNL     1      33.987 -17.655 -24.772  0.00  0.00    +0.003 C 
BRANCH  34  39
ATOM     39  O   UNL     1      35.374 -16.230 -21.707  0.00  0.00    -0.505 OA
ATOM     40  H   UNL     1      36.043 -15.614 -21.933  0.00  0.00    +0.292 HD
ENDBRANCH  34  39
ENDBRANCH  32  33
ENDBRANCH  30  32
ENDBRANCH  24  25
ENDBRANCH  22  24
ENDBRANCH   3  22
TORSDOF 9
ENDMDL
MODEL 2
REMARK VINA RESULT:     -11.7      1.106      1.794
REMARK  Name = 10050566
REMARK  9 active torsions:
REMARK  status: ('A' for Active; 'I' for Inactive)
REMARK    1  A    between atoms: C_2  and  N_11
REMARK    2  A    between atoms: C_3  and  O_22
REMARK    3  A    between atoms: C_12  and  C_14
REMARK    4  A    between atoms: C_19  and  O_20
REMARK    5  A    between atoms: O_22  and  C_24
REMARK    6  A    between atoms: C_24  and  C_25
REMARK    7  A    between atoms: C_30  and  C_32
REMARK    8  A    between atoms: C_32  and  C_33
REMARK    9  A    between atoms: C_34  and  O_39
REMARK                            x       y       z     vdW  Elec       q    Type
REMARK                         _______ _______ _______ _____ _____    ______ ____
ROOT
ATOM      1  N   UNL     1      32.351 -22.348 -14.264  0.00  0.00    +0.385 N 
ATOM      2  C   UNL     1      34.553 -23.157 -15.133  0.00  0.00    +0.091 C 
ATOM      3  C   UNL     1      33.966 -23.737 -16.431  0.00  0.00    +0.185 C 
ATOM      4  C   UNL     1      32.734 -24.636 -16.281  0.00  0.00    +0.043 C 
ATOM      5  C   UNL     1      33.598 -23.041 -13.940  0.00  0.00    -0.058 C 
ATOM      6  C   UNL     1      31.417 -23.906 -16.004  0.00  0.00    -0.020 C 
ATOM      7  C   UNL     1      31.290 -23.293 -14.614  0.00  0.00    -0.082 C 
ATOM      8  H   UNL     1      32.514 -21.724 -15.054  0.00  0.00    -0.084 HD
ATOM      9  H   UNL     1      32.054 -21.823 -13.442  0.00  0.00    -0.084 HD
ENDROOT
BRANCH   2  11
ATOM     10  O   UNL     1      37.305 -22.511 -15.627  0.00  0.00    -0.270 OA
ATOM     11  N   UNL     1      35.710 -23.934 -14.730  0.00  0.00    -0.301 N 
ATOM     12  C   UNL     1      37.001 -23.533 -15.018  0.00  0.00    +0.246 C 
ATOM     13  H   UNL     1      35.572 -24.774 -14.235  0.00  0.00    +0.150 HD
BRANCH  12  14
ATOM     14  C   UNL     1      38.075 -24.452 -14.560  0.00  0.00    +0.054 C 
ATOM     15  C   UNL     1      37.862 -25.212 -13.429  0.00  0.00    +0.008 C 
ATOM     16  C   UNL     1      39.249 -24.517 -15.280  0.00  0.00    +0.008 C 
ATOM     17  C   UNL     1      38.870 -26.076 -12.998  0.00  0.00    +0.037 C 
ATOM     18  C   UNL     1      40.257 -25.381 -14.851  0.00  0.00    +0.037 C 
ATOM     19  C   UNL     1      40.066 -26.160 -13.709  0.00  0.00    +0.134 C 
BRANCH  19  20
ATOM     20  O   UNL     1      41.049 -27.004 -13.291  0.00  0.00    -0.506 OA
ATOM     21  H   UNL     1      41.810 -26.661 -12.865  0.00  0.00    +0.292 HD
ENDBRANCH  19  20
ENDBRANCH  12  14
ENDBRANCH   2  11
BRANCH   3  22
ATOM     22  O   UNL     1      33.683 -22.670 -17.342  0.00  0.00    -0.448 OA
BRANCH  22  24
ATOM     23  O   UNL     1      33.578 -24.023 -19.200  0.00  0.00    -0.245 OA
ATOM     24  C   UNL     1      33.845 -22.963 -18.656  0.00  0.00    +0.341 C 
BRANCH  24  25
ATOM     25  C   UNL     1      34.409 -21.796 -19.379  0.00  0.00    +0.076 C 
ATOM     26  C   UNL     1      33.551 -20.950 -20.052  0.00  0.00    +0.007 C 
ATOM     27  C   UNL     1      35.774 -21.594 -19.357  0.00  0.00    +0.007 C 
ATOM     28  C   UNL     1      34.082 -19.854 -20.733  0.00  0.00    +0.003 C 
ATOM     29  C   UNL     1      36.305 -20.498 -20.037  0.00  0.00    +0.003 C 
ATOM     30  C   UNL     1      35.458 -19.627 -20.725  0.00  0.00    +0.039 C 
BRANCH  30  32
ATOM     31  O   UNL     1      37.101 -18.580 -22.019  0.00  0.00    -0.286 OA
ATOM     32  C   UNL     1      36.011 -18.485 -21.435  0.00  0.00    +0.198 C 
BRANCH  32  33
ATOM     33  C   UNL     1      35.312 -17.165 -21.495  0.00  0.00    +0.073 C 
ATOM     34  C   UNL     1      34.982 -16.628 -22.718  0.00  0.00    +0.137 C 
ATOM     35  C   UNL     1      35.025 -16.538 -20.304  0.00  0.00    +0.006 C 
ATOM     36  C   UNL     1      34.330 -15.396 -22.752  0.00  0.00    +0.037 C 
ATOM     37  C   UNL     1      34.372 -15.306 -20.338  0.00  0.00    +0.000 C 
ATOM     38  C   UNL     1      34.025 -14.735 -21.562  0.00  0.00    +0.003 C 
BRANCH  34  39
ATOM     39  O   UNL     1      35.272 -17.258 -23.891  0.00  0.00    -0.505 OA
ATOM     40  H   UNL     1      36.129 -17.186 -24.263  0.00  0.00    +0.292 HD
ENDBRANCH  34  39
ENDBRANCH  32  33
ENDBRANCH  30  32
ENDBRANCH  24  25
ENDBRANCH  22  24
ENDBRANCH   3  22
TORSDOF 9
ENDMDL
MODEL 3
REMARK VINA RESULT:     -11.0      2.251      5.851
REMARK  Name = 10050566
REMARK  9 active torsions:
REMARK  status: ('A' for Active; 'I' for Inactive)
REMARK    1  A    between atoms: C_2  and  N_11
REMARK    2  A    between atoms: C_3  and  O_22
REMARK    3  A    between atoms: C_12  and  C_14
REMARK    4  A    between atoms: C_19  and  O_20
REMARK    5  A    between atoms: O_22  and  C_24
REMARK    6  A    between atoms: C_24  and  C_25
REMARK    7  A    between atoms: C_30  and  C_32
REMARK    8  A    between atoms: C_32  and  C_33
REMARK    9  A    between atoms: C_34  and  O_39
REMARK                            x       y       z     vdW  Elec       q    Type
REMARK                         _______ _______ _______ _____ _____    ______ ____
ROOT
ATOM      1  N   UNL     1      34.989 -25.422 -14.062  0.00  0.00    +0.385 N 
ATOM      2  C   UNL     1      33.106 -24.453 -15.393  0.00  0.00    +0.091 C 
ATOM      3  C   UNL     1      33.894 -23.204 -15.828  0.00  0.00    +0.185 C 
ATOM      4  C   UNL     1      34.628 -22.441 -14.720  0.00  0.00    +0.043 C 
ATOM      5  C   UNL     1      33.556 -25.129 -14.094  0.00  0.00    -0.058 C 
ATOM      6  C   UNL     1      35.920 -23.091 -14.219  0.00  0.00    -0.020 C 
ATOM      7  C   UNL     1      35.737 -24.358 -13.391  0.00  0.00    -0.082 C 
ATOM      8  H   UNL     1      35.330 -25.515 -15.018  0.00  0.00    -0.084 HD
ATOM      9  H   UNL     1      35.127 -26.288 -13.540  0.00  0.00    -0.084 HD
ENDROOT
BRANCH   2  11
ATOM     10  O   UNL     1      31.565 -22.887 -17.239  0.00  0.00    -0.270 OA
ATOM     11  N   UNL     1      31.696 -24.127 -15.285  0.00  0.00    -0.301 N 
ATOM     12  C   UNL     1      31.044 -23.362 -16.234  0.00  0.00    +0.246 C 
ATOM     13  H   UNL     1      31.188 -24.461 -14.512  0.00  0.00    +0.150 HD
BRANCH  12  14
ATOM     14  C   UNL     1      29.608 -23.095 -15.965  0.00  0.00    +0.054 C 
ATOM     15  C   UNL     1      28.680 -23.399 -16.940  0.00  0.00    +0.008 C 
ATOM     16  C   UNL     1      29.246 -22.551 -14.750  0.00  0.00    +0.008 C 
ATOM     17  C   UNL     1      27.331 -23.149 -16.688  0.00  0.00    +0.037 C 
ATOM     18  C   UNL     1      27.897 -22.301 -14.497  0.00  0.00    +0.037 C 
ATOM     19  C   UNL     1      26.940 -22.601 -15.467  0.00  0.00    +0.134 C 
BRANCH  19  20
ATOM     20  O   UNL     1      25.624 -22.358 -15.220  0.00  0.00    -0.506 OA
ATOM     21  H   UNL     1      25.364 -21.967 -14.409  0.00  0.00    +0.292 HD
ENDBRANCH  19  20
ENDBRANCH  12  14
ENDBRANCH   2  11
BRANCH   3  22
ATOM     22  O   UNL     1      34.813 -23.562 -16.866  0.00  0.00    -0.448 OA
BRANCH  22  24
ATOM     23  O   UNL     1      33.587 -24.497 -18.575  0.00  0.00    -0.245 OA
ATOM     24  C   UNL     1      34.292 -23.611 -18.117  0.00  0.00    +0.341 C 
BRANCH  24  25
ATOM     25  C   UNL     1      34.701 -22.414 -18.893  0.00  0.00    +0.076 C 
ATOM     26  C   UNL     1      33.731 -21.675 -19.540  0.00  0.00    +0.007 C 
ATOM     27  C   UNL     1      36.038 -22.076 -18.945  0.00  0.00    +0.007 C 
ATOM     28  C   UNL     1      34.115 -20.550 -20.270  0.00  0.00    +0.003 C 
ATOM     29  C   UNL     1      36.422 -20.951 -19.674  0.00  0.00    +0.003 C 
ATOM     30  C   UNL     1      35.460 -20.188 -20.337  0.00  0.00    +0.039 C 
BRANCH  30  32
ATOM     31  O   UNL     1      36.788 -18.297 -20.698  0.00  0.00    -0.286 OA
ATOM     32  C   UNL     1      35.860 -19.016 -21.098  0.00  0.00    +0.198 C 
BRANCH  32  33
ATOM     33  C   UNL     1      35.189 -18.622 -22.374  0.00  0.00    +0.073 C 
ATOM     34  C   UNL     1      34.977 -17.290 -22.647  0.00  0.00    +0.137 C 
ATOM     35  C   UNL     1      34.808 -19.627 -23.235  0.00  0.00    +0.006 C 
ATOM     36  C   UNL     1      34.349 -16.944 -23.842  0.00  0.00    +0.037 C 
ATOM     37  C   UNL     1      34.181 -19.281 -24.431  0.00  0.00    +0.000 C 
ATOM     38  C   UNL     1      33.951 -17.940 -24.734  0.00  0.00    +0.003 C 
BRANCH  34  39
ATOM     39  O   UNL     1      35.358 -16.303 -21.787  0.00  0.00    -0.505 OA
ATOM     40  H   UNL     1      35.305 -16.441 -20.862  0.00  0.00    +0.292 HD
ENDBRANCH  34  39
ENDBRANCH  32  33
ENDBRANCH  30  32
ENDBRANCH  24  25
ENDBRANCH  22  24
ENDBRANCH   3  22
TORSDOF 9
ENDMDL
MODEL 4
REMARK VINA RESULT:     -10.5      2.357      5.976
REMARK  Name = 10050566
REMARK  9 active torsions:
REMARK  status: ('A' for Active; 'I' for Inactive)
REMARK    1  A    between atoms: C_2  and  N_11
REMARK    2  A    between atoms: C_3  and  O_22
REMARK    3  A    between atoms: C_12  and  C_14
REMARK    4  A    between atoms: C_19  and  O_20
REMARK    5  A    between atoms: O_22  and  C_24
REMARK    6  A    between atoms: C_24  and  C_25
REMARK    7  A    between atoms: C_30  and  C_32
REMARK    8  A    between atoms: C_32  and  C_33
REMARK    9  A    between atoms: C_34  and  O_39
REMARK                            x       y       z     vdW  Elec       q    Type
REMARK                         _______ _______ _______ _____ _____    ______ ____
ROOT
ATOM      1  N   UNL     1      35.732 -25.393 -15.158  0.00  0.00    +0.385 N 
ATOM      2  C   UNL     1      33.718 -24.235 -16.084  0.00  0.00    +0.091 C 
ATOM      3  C   UNL     1      34.428 -22.881 -16.263  0.00  0.00    +0.185 C 
ATOM      4  C   UNL     1      35.223 -22.363 -15.059  0.00  0.00    +0.043 C 
ATOM      5  C   UNL     1      34.293 -25.174 -15.020  0.00  0.00    -0.058 C 
ATOM      6  C   UNL     1      36.571 -23.046 -14.820  0.00  0.00    -0.020 C 
ATOM      7  C   UNL     1      36.497 -24.480 -14.308  0.00  0.00    -0.082 C 
ATOM      8  H   UNL     1      35.999 -25.241 -16.132  0.00  0.00    -0.084 HD
ATOM      9  H   UNL     1      35.941 -26.349 -14.870  0.00  0.00    -0.084 HD
ENDROOT
BRANCH   2  11
ATOM     10  O   UNL     1      31.911 -22.580 -17.578  0.00  0.00    -0.270 OA
ATOM     11  N   UNL     1      32.311 -24.016 -15.803  0.00  0.00    -0.301 N 
ATOM     12  C   UNL     1      31.524 -23.196 -16.589  0.00  0.00    +0.246 C 
ATOM     13  H   UNL     1      31.905 -24.466 -15.027  0.00  0.00    +0.150 HD
BRANCH  12  14
ATOM     14  C   UNL     1      30.111 -23.054 -16.152  0.00  0.00    +0.054 C 
ATOM     15  C   UNL     1      29.841 -22.380 -14.979  0.00  0.00    +0.008 C 
ATOM     16  C   UNL     1      29.114 -23.601 -16.932  0.00  0.00    +0.008 C 
ATOM     17  C   UNL     1      28.515 -22.247 -14.568  0.00  0.00    +0.037 C 
ATOM     18  C   UNL     1      27.787 -23.468 -16.522  0.00  0.00    +0.037 C 
ATOM     19  C   UNL     1      27.488 -22.791 -15.340  0.00  0.00    +0.134 C 
BRANCH  19  20
ATOM     20  O   UNL     1      26.194 -22.659 -14.941  0.00  0.00    -0.506 OA
ATOM     21  H   UNL     1      25.547 -22.349 -15.545  0.00  0.00    +0.292 HD
ENDBRANCH  19  20
ENDBRANCH  12  14
ENDBRANCH   2  11
BRANCH   3  22
ATOM     22  O   UNL     1      35.271 -22.937 -17.418  0.00  0.00    -0.448 OA
BRANCH  22  24
ATOM     23  O   UNL     1      33.852 -23.823 -18.999  0.00  0.00    -0.245 OA
ATOM     24  C   UNL     1      34.628 -22.963 -18.612  0.00  0.00    +0.341 C 
BRANCH  24  25
ATOM     25  C   UNL     1      34.996 -21.775 -19.422  0.00  0.00    +0.076 C 
ATOM     26  C   UNL     1      36.326 -21.418 -19.515  0.00  0.00    +0.007 C 
ATOM     27  C   UNL     1      33.998 -21.063 -20.056  0.00  0.00    +0.007 C 
ATOM     28  C   UNL     1      36.672 -20.300 -20.276  0.00  0.00    +0.003 C 
ATOM     29  C   UNL     1      34.344 -19.947 -20.816  0.00  0.00    +0.003 C 
ATOM     30  C   UNL     1      35.682 -19.565 -20.927  0.00  0.00    +0.039 C 
BRANCH  30  32
ATOM     31  O   UNL     1      36.979 -18.461 -22.528  0.00  0.00    -0.286 OA
ATOM     32  C   UNL     1      36.042 -18.401 -21.719  0.00  0.00    +0.198 C 
BRANCH  32  33
ATOM     33  C   UNL     1      35.320 -17.097 -21.601  0.00  0.00    +0.073 C 
ATOM     34  C   UNL     1      34.964 -16.413 -22.741  0.00  0.00    +0.137 C 
ATOM     35  C   UNL     1      35.037 -16.633 -20.336  0.00  0.00    +0.006 C 
ATOM     36  C   UNL     1      34.291 -15.200 -22.609  0.00  0.00    +0.037 C 
ATOM     37  C   UNL     1      34.363 -15.420 -20.204  0.00  0.00    +0.000 C 
ATOM     38  C   UNL     1      33.990 -14.703 -21.341  0.00  0.00    +0.003 C 
BRANCH  34  39
ATOM     39  O   UNL     1      35.249 -16.882 -23.988  0.00  0.00    -0.505 OA
ATOM     40  H   UNL     1      35.447 -16.283 -24.681  0.00  0.00    +0.292 HD
ENDBRANCH  34  39
ENDBRANCH  32  33
ENDBRANCH  30  32
ENDBRANCH  24  25
ENDBRANCH  22  24
ENDBRANCH   3  22
TORSDOF 9
ENDMDL
MODEL 5
REMARK VINA RESULT:     -10.4      6.259     13.259
REMARK  Name = 10050566
REMARK  9 active torsions:
REMARK  status: ('A' for Active; 'I' for Inactive)
REMARK    1  A    between atoms: C_2  and  N_11
REMARK    2  A    between atoms: C_3  and  O_22
REMARK    3  A    between atoms: C_12  and  C_14
REMARK    4  A    between atoms: C_19  and  O_20
REMARK    5  A    between atoms: O_22  and  C_24
REMARK    6  A    between atoms: C_24  and  C_25
REMARK    7  A    between atoms: C_30  and  C_32
REMARK    8  A    between atoms: C_32  and  C_33
REMARK    9  A    between atoms: C_34  and  O_39
REMARK                            x       y       z     vdW  Elec       q    Type
REMARK                         _______ _______ _______ _____ _____    ______ ____
ROOT
ATOM      1  N   UNL     1      31.170 -12.809 -21.069  0.00  0.00    +0.385 N 
ATOM      2  C   UNL     1      32.541 -11.934 -22.969  0.00  0.00    +0.091 C 
ATOM      3  C   UNL     1      33.579 -13.069 -22.902  0.00  0.00    +0.185 C 
ATOM      4  C   UNL     1      34.155 -13.385 -21.518  0.00  0.00    +0.043 C 
ATOM      5  C   UNL     1      31.779 -11.626 -21.676  0.00  0.00    -0.058 C 
ATOM      6  C   UNL     1      33.230 -14.169 -20.584  0.00  0.00    -0.020 C 
ATOM      7  C   UNL     1      32.036 -13.390 -20.042  0.00  0.00    -0.082 C 
ATOM      8  H   UNL     1      31.002 -13.506 -21.795  0.00  0.00    -0.084 HD
ATOM      9  H   UNL     1      30.294 -12.528 -20.627  0.00  0.00    -0.084 HD
ENDROOT
BRANCH   2  11
ATOM     10  O   UNL     1      31.410  -9.297 -22.952  0.00  0.00    -0.270 OA
ATOM     11  N   UNL     1      33.177 -10.717 -23.437  0.00  0.00    -0.301 N 
ATOM     12  C   UNL     1      32.543  -9.490 -23.384  0.00  0.00    +0.246 C 
ATOM     13  H   UNL     1      34.089 -10.767 -23.804  0.00  0.00    +0.150 HD
BRANCH  12  14
ATOM     14  C   UNL     1      33.319  -8.345 -23.927  0.00  0.00    +0.054 C 
ATOM     15  C   UNL     1      34.549  -8.053 -23.375  0.00  0.00    +0.008 C 
ATOM     16  C   UNL     1      32.785  -7.609 -24.964  0.00  0.00    +0.008 C 
ATOM     17  C   UNL     1      35.277  -6.978 -23.884  0.00  0.00    +0.037 C 
ATOM     18  C   UNL     1      33.513  -6.535 -25.474  0.00  0.00    +0.037 C 
ATOM     19  C   UNL     1      34.760  -6.219 -24.933  0.00  0.00    +0.134 C 
BRANCH  19  20
ATOM     20  O   UNL     1      35.471  -5.172 -25.432  0.00  0.00    -0.506 OA
ATOM     21  H   UNL     1      35.163  -4.295 -25.307  0.00  0.00    +0.292 HD
ENDBRANCH  19  20
ENDBRANCH  12  14
ENDBRANCH   2  11
BRANCH   3  22
ATOM     22  O   UNL     1      33.024 -14.253 -23.483  0.00  0.00    -0.448 OA
BRANCH  22  24
ATOM     23  O   UNL     1      34.185 -14.763 -25.404  0.00  0.00    -0.245 OA
ATOM     24  C   UNL     1      33.874 -14.986 -24.244  0.00  0.00    +0.341 C 
BRANCH  24  25
ATOM     25  C   UNL     1      34.398 -16.138 -23.468  0.00  0.00    +0.076 C 
ATOM     26  C   UNL     1      34.929 -15.911 -22.214  0.00  0.00    +0.007 C 
ATOM     27  C   UNL     1      34.339 -17.399 -24.024  0.00  0.00    +0.007 C 
ATOM     28  C   UNL     1      35.423 -16.993 -21.486  0.00  0.00    +0.003 C 
ATOM     29  C   UNL     1      34.832 -18.481 -23.296  0.00  0.00    +0.003 C 
ATOM     30  C   UNL     1      35.374 -18.279 -22.025  0.00  0.00    +0.039 C 
BRANCH  30  32
ATOM     31  O   UNL     1      37.107 -19.639 -21.240  0.00  0.00    -0.286 OA
ATOM     32  C   UNL     1      35.889 -19.406 -21.266  0.00  0.00    +0.198 C 
BRANCH  32  33
ATOM     33  C   UNL     1      34.998 -20.326 -20.495  0.00  0.00    +0.073 C 
ATOM     34  C   UNL     1      35.554 -21.283 -19.678  0.00  0.00    +0.137 C 
ATOM     35  C   UNL     1      33.638 -20.169 -20.639  0.00  0.00    +0.006 C 
ATOM     36  C   UNL     1      34.705 -22.130 -18.967  0.00  0.00    +0.037 C 
ATOM     37  C   UNL     1      32.788 -21.016 -19.927  0.00  0.00    +0.000 C 
ATOM     38  C   UNL     1      33.322 -21.997 -19.092  0.00  0.00    +0.003 C 
BRANCH  34  39
ATOM     39  O   UNL     1      36.902 -21.429 -19.543  0.00  0.00    -0.505 OA
ATOM     40  H   UNL     1      37.484 -20.950 -20.101  0.00  0.00    +0.292 HD
ENDBRANCH  34  39
ENDBRANCH  32  33
ENDBRANCH  30  32
ENDBRANCH  24  25
ENDBRANCH  22  24
ENDBRANCH   3  22
TORSDOF 9
ENDMDL
MODEL 6
REMARK VINA RESULT:      -9.9      1.473      2.449
REMARK  Name = 10050566
REMARK  9 active torsions:
REMARK  status: ('A' for Active; 'I' for Inactive)
REMARK    1  A    between atoms: C_2  and  N_11
REMARK    2  A    between atoms: C_3  and  O_22
REMARK    3  A    between atoms: C_12  and  C_14
REMARK    4  A    between atoms: C_19  and  O_20
REMARK    5  A    between atoms: O_22  and  C_24
REMARK    6  A    between atoms: C_24  and  C_25
REMARK    7  A    between atoms: C_30  and  C_32
REMARK    8  A    between atoms: C_32  and  C_33
REMARK    9  A    between atoms: C_34  and  O_39
REMARK                            x       y       z     vdW  Elec       q    Type
REMARK                         _______ _______ _______ _____ _____    ______ ____
ROOT
ATOM      1  N   UNL     1      32.853 -22.420 -14.947  0.00  0.00    +0.385 N 
ATOM      2  C   UNL     1      35.149 -23.170 -15.599  0.00  0.00    +0.091 C 
ATOM      3  C   UNL     1      34.753 -23.534 -17.041  0.00  0.00    +0.185 C 
ATOM      4  C   UNL     1      33.501 -24.402 -17.206  0.00  0.00    +0.043 C 
ATOM      5  C   UNL     1      34.029 -23.195 -14.554  0.00  0.00    -0.058 C 
ATOM      6  C   UNL     1      32.167 -23.674 -17.017  0.00  0.00    -0.020 C 
ATOM      7  C   UNL     1      31.843 -23.265 -15.585  0.00  0.00    -0.082 C 
ATOM      8  H   UNL     1      33.139 -21.693 -15.604  0.00  0.00    -0.084 HD
ATOM      9  H   UNL     1      32.444 -22.009 -14.108  0.00  0.00    -0.084 HD
ENDROOT
BRANCH   2  11
ATOM     10  O   UNL     1      37.822 -22.374 -14.924  0.00  0.00    -0.270 OA
ATOM     11  N   UNL     1      36.223 -24.037 -15.153  0.00  0.00    -0.301 N 
ATOM     12  C   UNL     1      37.481 -23.552 -14.851  0.00  0.00    +0.246 C 
ATOM     13  H   UNL     1      36.050 -25.002 -15.062  0.00  0.00    +0.150 HD
BRANCH  12  14
ATOM     14  C   UNL     1      38.478 -24.572 -14.434  0.00  0.00    +0.054 C 
ATOM     15  C   UNL     1      38.289 -25.239 -13.241  0.00  0.00    +0.008 C 
ATOM     16  C   UNL     1      39.561 -24.819 -15.251  0.00  0.00    +0.008 C 
ATOM     17  C   UNL     1      39.224 -26.197 -12.849  0.00  0.00    +0.037 C 
ATOM     18  C   UNL     1      40.496 -25.777 -14.860  0.00  0.00    +0.037 C 
ATOM     19  C   UNL     1      40.327 -26.466 -13.658  0.00  0.00    +0.134 C 
BRANCH  19  20
ATOM     20  O   UNL     1      41.239 -27.402 -13.278  0.00  0.00    -0.506 OA
ATOM     21  H   UNL     1      41.247 -28.243 -13.692  0.00  0.00    +0.292 HD
ENDBRANCH  19  20
ENDBRANCH  12  14
ENDBRANCH   2  11
BRANCH   3  22
ATOM     22  O   UNL     1      34.623 -22.336 -17.813  0.00  0.00    -0.448 OA
BRANCH  22  24
ATOM     23  O   UNL     1      36.906 -22.062 -17.909  0.00  0.00    -0.245 OA
ATOM     24  C   UNL     1      35.778 -21.838 -18.320  0.00  0.00    +0.341 C 
BRANCH  24  25
ATOM     25  C   UNL     1      35.494 -20.953 -19.477  0.00  0.00    +0.076 C 
ATOM     26  C   UNL     1      36.527 -20.218 -20.024  0.00  0.00    +0.007 C 
ATOM     27  C   UNL     1      34.207 -20.891 -19.970  0.00  0.00    +0.007 C 
ATOM     28  C   UNL     1      36.259 -19.385 -21.111  0.00  0.00    +0.003 C 
ATOM     29  C   UNL     1      33.939 -20.059 -21.056  0.00  0.00    +0.003 C 
ATOM     30  C   UNL     1      34.966 -19.305 -21.628  0.00  0.00    +0.039 C 
BRANCH  30  32
ATOM     31  O   UNL     1      34.489 -18.921 -23.885  0.00  0.00    -0.286 OA
ATOM     32  C   UNL     1      34.687 -18.438 -22.760  0.00  0.00    +0.198 C 
BRANCH  32  33
ATOM     33  C   UNL     1      34.628 -16.950 -22.633  0.00  0.00    +0.073 C 
ATOM     34  C   UNL     1      34.578 -16.173 -23.767  0.00  0.00    +0.137 C 
ATOM     35  C   UNL     1      34.623 -16.415 -21.364  0.00  0.00    +0.006 C 
ATOM     36  C   UNL     1      34.523 -14.787 -23.626  0.00  0.00    +0.037 C 
ATOM     37  C   UNL     1      34.567 -15.029 -21.223  0.00  0.00    +0.000 C 
ATOM     38  C   UNL     1      34.517 -14.215 -22.354  0.00  0.00    +0.003 C 
BRANCH  34  39
ATOM     39  O   UNL     1      34.583 -16.713 -25.018  0.00  0.00    -0.505 OA
ATOM     40  H   UNL     1      34.385 -17.621 -25.138  0.00  0.00    +0.292 HD
ENDBRANCH  34  39
ENDBRANCH  32  33
ENDBRANCH  30  32
ENDBRANCH  24  25
ENDBRANCH  22  24
ENDBRANCH   3  22
TORSDOF 9
ENDMDL
MODEL 7
REMARK VINA RESULT:      -9.4      9.444     16.046
REMARK  Name = 10050566
REMARK  9 active torsions:
REMARK  status: ('A' for Active; 'I' for Inactive)
REMARK    1  A    between atoms: C_2  and  N_11
REMARK    2  A    between atoms: C_3  and  O_22
REMARK    3  A    between atoms: C_12  and  C_14
REMARK    4  A    between atoms: C_19  and  O_20
REMARK    5  A    between atoms: O_22  and  C_24
REMARK    6  A    between atoms: C_24  and  C_25
REMARK    7  A    between atoms: C_30  and  C_32
REMARK    8  A    between atoms: C_32  and  C_33
REMARK    9  A    between atoms: C_34  and  O_39
REMARK                            x       y       z     vdW  Elec       q    Type
REMARK                         _______ _______ _______ _____ _____    ______ ____
ROOT
ATOM      1  N   UNL     1      30.490  -6.107 -22.229  0.00  0.00    +0.385 N 
ATOM      2  C   UNL     1      31.859  -7.402 -23.873  0.00  0.00    +0.091 C 
ATOM      3  C   UNL     1      32.496  -8.315 -22.809  0.00  0.00    +0.185 C 
ATOM      4  C   UNL     1      33.087  -7.618 -21.578  0.00  0.00    +0.043 C 
ATOM      5  C   UNL     1      31.369  -6.032 -23.395  0.00  0.00    -0.058 C 
ATOM      6  C   UNL     1      32.066  -7.122 -20.551  0.00  0.00    -0.020 C 
ATOM      7  C   UNL     1      31.236  -5.918 -20.984  0.00  0.00    -0.082 C 
ATOM      8  H   UNL     1      30.040  -7.023 -22.210  0.00  0.00    -0.084 HD
ATOM      9  H   UNL     1      29.796  -5.363 -22.302  0.00  0.00    -0.084 HD
ENDROOT
BRANCH   2  11
ATOM     10  O   UNL     1      33.866  -5.361 -24.076  0.00  0.00    -0.270 OA
ATOM     11  N   UNL     1      32.789  -7.209 -24.970  0.00  0.00    -0.301 N 
ATOM     12  C   UNL     1      33.722  -6.190 -24.970  0.00  0.00    +0.246 C 
ATOM     13  H   UNL     1      32.754  -7.823 -25.739  0.00  0.00    +0.150 HD
BRANCH  12  14
ATOM     14  C   UNL     1      34.583  -6.110 -26.179  0.00  0.00    +0.054 C 
ATOM     15  C   UNL     1      34.133  -6.674 -27.355  0.00  0.00    +0.008 C 
ATOM     16  C   UNL     1      35.804  -5.475 -26.088  0.00  0.00    +0.008 C 
ATOM     17  C   UNL     1      34.940  -6.600 -28.490  0.00  0.00    +0.037 C 
ATOM     18  C   UNL     1      36.611  -5.399 -27.223  0.00  0.00    +0.037 C 
ATOM     19  C   UNL     1      36.178  -5.962 -28.424  0.00  0.00    +0.134 C 
BRANCH  19  20
ATOM     20  O   UNL     1      36.965  -5.887 -29.532  0.00  0.00    -0.506 OA
ATOM     21  H   UNL     1      37.394  -5.082 -29.748  0.00  0.00    +0.292 HD
ENDBRANCH  19  20
ENDBRANCH  12  14
ENDBRANCH   2  11
BRANCH   3  22
ATOM     22  O   UNL     1      31.544  -9.302 -22.402  0.00  0.00    -0.448 OA
BRANCH  22  24
ATOM     23  O   UNL     1      32.097 -10.191 -20.352  0.00  0.00    -0.245 OA
ATOM     24  C   UNL     1      32.016 -10.263 -21.569  0.00  0.00    +0.341 C 
BRANCH  24  25
ATOM     25  C   UNL     1      32.440 -11.455 -22.344  0.00  0.00    +0.076 C 
ATOM     26  C   UNL     1      31.923 -12.689 -22.006  0.00  0.00    +0.007 C 
ATOM     27  C   UNL     1      33.339 -11.294 -23.378  0.00  0.00    +0.007 C 
ATOM     28  C   UNL     1      32.323 -13.810 -22.734  0.00  0.00    +0.003 C 
ATOM     29  C   UNL     1      33.739 -12.414 -24.106  0.00  0.00    +0.003 C 
ATOM     30  C   UNL     1      33.230 -13.673 -23.784  0.00  0.00    +0.039 C 
BRANCH  30  32
ATOM     31  O   UNL     1      33.557 -14.849 -25.779  0.00  0.00    -0.286 OA
ATOM     32  C   UNL     1      33.647 -14.841 -24.543  0.00  0.00    +0.198 C 
BRANCH  32  33
ATOM     33  C   UNL     1      34.193 -16.068 -23.887  0.00  0.00    +0.073 C 
ATOM     34  C   UNL     1      33.828 -17.309 -24.358  0.00  0.00    +0.137 C 
ATOM     35  C   UNL     1      35.052 -15.899 -22.825  0.00  0.00    +0.006 C 
ATOM     36  C   UNL     1      34.348 -18.441 -23.732  0.00  0.00    +0.037 C 
ATOM     37  C   UNL     1      35.573 -17.031 -22.199  0.00  0.00    +0.000 C 
ATOM     38  C   UNL     1      35.221 -18.302 -22.653  0.00  0.00    +0.003 C 
BRANCH  34  39
ATOM     39  O   UNL     1      32.976 -17.465 -25.410  0.00  0.00    -0.505 OA
ATOM     40  H   UNL     1      32.089 -17.728 -25.261  0.00  0.00    +0.292 HD
ENDBRANCH  34  39
ENDBRANCH  32  33
ENDBRANCH  30  32
ENDBRANCH  24  25
ENDBRANCH  22  24
ENDBRANCH   3  22
TORSDOF 9
ENDMDL
MODEL 8
REMARK VINA RESULT:      -9.3      6.767     13.717
REMARK  Name = 10050566
REMARK  9 active torsions:
REMARK  status: ('A' for Active; 'I' for Inactive)
REMARK    1  A    between atoms: C_2  and  N_11
REMARK    2  A    between atoms: C_3  and  O_22
REMARK    3  A    between atoms: C_12  and  C_14
REMARK    4  A    between atoms: C_19  and  O_20
REMARK    5  A    between atoms: O_22  and  C_24
REMARK    6  A    between atoms: C_24  and  C_25
REMARK    7  A    between atoms: C_30  and  C_32
REMARK    8  A    between atoms: C_32  and  C_33
REMARK    9  A    between atoms: C_34  and  O_39
REMARK                            x       y       z     vdW  Elec       q    Type
REMARK                         _______ _______ _______ _____ _____    ______ ____
ROOT
ATOM      1  N   UNL     1      30.644 -11.958 -21.224  0.00  0.00    +0.385 N 
ATOM      2  C   UNL     1      32.008 -11.189 -23.175  0.00  0.00    +0.091 C 
ATOM      3  C   UNL     1      33.130 -12.219 -22.952  0.00  0.00    +0.185 C 
ATOM      4  C   UNL     1      33.681 -12.331 -21.526  0.00  0.00    +0.043 C 
ATOM      5  C   UNL     1      31.178 -10.804 -21.946  0.00  0.00    -0.058 C 
ATOM      6  C   UNL     1      32.788 -13.080 -20.534  0.00  0.00    -0.020 C 
ATOM      7  C   UNL     1      31.517 -12.347 -20.116  0.00  0.00    -0.082 C 
ATOM      8  H   UNL     1      30.559 -12.743 -21.870  0.00  0.00    -0.084 HD
ATOM      9  H   UNL     1      29.734 -11.703 -20.840  0.00  0.00    -0.084 HD
ENDROOT
BRANCH   2  11
ATOM     10  O   UNL     1      32.959  -8.880 -21.761  0.00  0.00    -0.270 OA
ATOM     11  N   UNL     1      32.562  -9.983 -23.761  0.00  0.00    -0.301 N 
ATOM     12  C   UNL     1      32.994  -8.922 -22.988  0.00  0.00    +0.246 C 
ATOM     13  H   UNL     1      32.631  -9.918 -24.741  0.00  0.00    +0.150 HD
BRANCH  12  14
ATOM     14  C   UNL     1      33.510  -7.749 -23.741  0.00  0.00    +0.054 C 
ATOM     15  C   UNL     1      32.639  -7.035 -24.538  0.00  0.00    +0.008 C 
ATOM     16  C   UNL     1      34.841  -7.412 -23.620  0.00  0.00    +0.008 C 
ATOM     17  C   UNL     1      33.122  -5.934 -25.245  0.00  0.00    +0.037 C 
ATOM     18  C   UNL     1      35.324  -6.311 -24.326  0.00  0.00    +0.037 C 
ATOM     19  C   UNL     1      34.464  -5.572 -25.139  0.00  0.00    +0.134 C 
BRANCH  19  20
ATOM     20  O   UNL     1      34.936  -4.496 -25.826  0.00  0.00    -0.506 OA
ATOM     21  H   UNL     1      35.259  -4.604 -26.700  0.00  0.00    +0.292 HD
ENDBRANCH  19  20
ENDBRANCH  12  14
ENDBRANCH   2  11
BRANCH   3  22
ATOM     22  O   UNL     1      32.692 -13.503 -23.409  0.00  0.00    -0.448 OA
BRANCH  22  24
ATOM     23  O   UNL     1      33.650 -13.468 -25.501  0.00  0.00    -0.245 OA
ATOM     24  C   UNL     1      33.392 -14.026 -24.446  0.00  0.00    +0.341 C 
BRANCH  24  25
ATOM     25  C   UNL     1      33.821 -15.412 -24.132  0.00  0.00    +0.076 C 
ATOM     26  C   UNL     1      33.507 -16.423 -25.017  0.00  0.00    +0.007 C 
ATOM     27  C   UNL     1      34.518 -15.647 -22.965  0.00  0.00    +0.007 C 
ATOM     28  C   UNL     1      33.910 -17.726 -24.721  0.00  0.00    +0.003 C 
ATOM     29  C   UNL     1      34.920 -16.949 -22.669  0.00  0.00    +0.003 C 
ATOM     30  C   UNL     1      34.616 -17.990 -23.548  0.00  0.00    +0.039 C 
BRANCH  30  32
ATOM     31  O   UNL     1      35.038 -20.216 -24.124  0.00  0.00    -0.286 OA
ATOM     32  C   UNL     1      35.035 -19.347 -23.240  0.00  0.00    +0.198 C 
BRANCH  32  33
ATOM     33  C   UNL     1      35.472 -19.758 -21.871  0.00  0.00    +0.073 C 
ATOM     34  C   UNL     1      36.731 -19.421 -21.431  0.00  0.00    +0.137 C 
ATOM     35  C   UNL     1      34.579 -20.467 -21.099  0.00  0.00    +0.006 C 
ATOM     36  C   UNL     1      37.119 -19.814 -20.151  0.00  0.00    +0.037 C 
ATOM     37  C   UNL     1      34.967 -20.860 -19.819  0.00  0.00    +0.000 C 
ATOM     38  C   UNL     1      36.237 -20.534 -19.345  0.00  0.00    +0.003 C 
BRANCH  34  39
ATOM     39  O   UNL     1      37.607 -18.719 -22.203  0.00  0.00    -0.505 OA
ATOM     40  H   UNL     1      38.477 -19.041 -22.337  0.00  0.00    +0.292 HD
ENDBRANCH  34  39
ENDBRANCH  32  33
ENDBRANCH  30  32
ENDBRANCH  24  25
ENDBRANCH  22  24
ENDBRANCH   3  22
TORSDOF 9
ENDMDL
MODEL 9
REMARK VINA RESULT:      -9.0      3.053      8.158
REMARK  Name = 10050566
REMARK  9 active torsions:
REMARK  status: ('A' for Active; 'I' for Inactive)
REMARK    1  A    between atoms: C_2  and  N_11
REMARK    2  A    between atoms: C_3  and  O_22
REMARK    3  A    between atoms: C_12  and  C_14
REMARK    4  A    between atoms: C_19  and  O_20
REMARK    5  A    between atoms: O_22  and  C_24
REMARK    6  A    between atoms: C_24  and  C_25
REMARK    7  A    between atoms: C_30  and  C_32
REMARK    8  A    between atoms: C_32  and  C_33
REMARK    9  A    between atoms: C_34  and  O_39
REMARK                            x       y       z     vdW  Elec       q    Type
REMARK                         _______ _______ _______ _____ _____    ______ ____
ROOT
ATOM      1  N   UNL     1      37.244 -24.126 -12.921  0.00  0.00    +0.385 N 
ATOM      2  C   UNL     1      35.500 -23.466 -14.589  0.00  0.00    +0.091 C 
ATOM      3  C   UNL     1      34.945 -24.892 -14.755  0.00  0.00    +0.185 C 
ATOM      4  C   UNL     1      35.975 -26.001 -15.000  0.00  0.00    +0.043 C 
ATOM      5  C   UNL     1      36.955 -23.347 -14.124  0.00  0.00    -0.058 C 
ATOM      6  C   UNL     1      36.768 -26.445 -13.769  0.00  0.00    -0.020 C 
ATOM      7  C   UNL     1      37.792 -25.441 -13.253  0.00  0.00    -0.082 C 
ATOM      8  H   UNL     1      36.380 -24.250 -12.391  0.00  0.00    -0.084 HD
ATOM      9  H   UNL     1      37.937 -23.619 -12.370  0.00  0.00    -0.084 HD
ENDROOT
BRANCH   2  11
ATOM     10  O   UNL     1      33.960 -24.275 -16.871  0.00  0.00    -0.270 OA
ATOM     11  N   UNL     1      35.345 -22.734 -15.831  0.00  0.00    -0.301 N 
ATOM     12  C   UNL     1      34.577 -23.213 -16.875  0.00  0.00    +0.246 C 
ATOM     13  H   UNL     1      35.802 -21.868 -15.935  0.00  0.00    +0.150 HD
BRANCH  12  14
ATOM     14  C   UNL     1      34.541 -22.357 -18.090  0.00  0.00    +0.054 C 
ATOM     15  C   UNL     1      35.733 -21.949 -18.651  0.00  0.00    +0.008 C 
ATOM     16  C   UNL     1      33.318 -21.998 -18.617  0.00  0.00    +0.008 C 
ATOM     17  C   UNL     1      35.701 -21.146 -19.791  0.00  0.00    +0.037 C 
ATOM     18  C   UNL     1      33.286 -21.196 -19.758  0.00  0.00    +0.037 C 
ATOM     19  C   UNL     1      34.477 -20.770 -20.344  0.00  0.00    +0.134 C 
BRANCH  19  20
ATOM     20  O   UNL     1      34.445 -19.988 -21.458  0.00  0.00    -0.506 OA
ATOM     21  H   UNL     1      33.622 -19.747 -21.837  0.00  0.00    +0.292 HD
ENDBRANCH  19  20
ENDBRANCH  12  14
ENDBRANCH   2  11
BRANCH   3  22
ATOM     22  O   UNL     1      34.135 -25.220 -13.622  0.00  0.00    -0.448 OA
BRANCH  22  24
ATOM     23  O   UNL     1      33.484 -23.431 -12.329  0.00  0.00    -0.245 OA
ATOM     24  C   UNL     1      33.281 -24.250 -13.212  0.00  0.00    +0.341 C 
BRANCH  24  25
ATOM     25  C   UNL     1      32.021 -24.307 -13.995  0.00  0.00    +0.076 C 
ATOM     26  C   UNL     1      31.249 -25.450 -13.933  0.00  0.00    +0.007 C 
ATOM     27  C   UNL     1      31.661 -23.218 -14.761  0.00  0.00    +0.007 C 
ATOM     28  C   UNL     1      30.065 -25.504 -14.670  0.00  0.00    +0.003 C 
ATOM     29  C   UNL     1      30.479 -23.272 -15.497  0.00  0.00    +0.003 C 
ATOM     30  C   UNL     1      29.680 -24.415 -15.451  0.00  0.00    +0.039 C 
BRANCH  30  32
ATOM     31  O   UNL     1      28.197 -25.457 -16.930  0.00  0.00    -0.286 OA
ATOM     32  C   UNL     1      28.447 -24.472 -16.219  0.00  0.00    +0.198 C 
BRANCH  32  33
ATOM     33  C   UNL     1      27.437 -23.370 -16.195  0.00  0.00    +0.073 C 
ATOM     34  C   UNL     1      27.066 -22.763 -17.372  0.00  0.00    +0.137 C 
ATOM     35  C   UNL     1      26.914 -23.008 -14.974  0.00  0.00    +0.006 C 
ATOM     36  C   UNL     1      26.123 -21.737 -17.328  0.00  0.00    +0.037 C 
ATOM     37  C   UNL     1      25.969 -21.982 -14.929  0.00  0.00    +0.000 C 
ATOM     38  C   UNL     1      25.575 -21.347 -16.106  0.00  0.00    +0.003 C 
BRANCH  34  39
ATOM     39  O   UNL     1      27.591 -23.130 -18.576  0.00  0.00    -0.505 OA
ATOM     40  H   UNL     1      27.884 -24.010 -18.711  0.00  0.00    +0.292 HD
ENDBRANCH  34  39
ENDBRANCH  32  33
ENDBRANCH  30  32
ENDBRANCH  24  25
ENDBRANCH  22  24
ENDBRANCH   3  22
TORSDOF 9
ENDMDL
