MODEL 1
REMARK VINA RESULT:     -11.8      0.000      0.000
REMARK  Name = 90311989
REMARK  4 active torsions:
REMARK  status: ('A' for Active; 'I' for Inactive)
REMARK    1  A    between atoms: C_16  and  O_33
REMARK    2  A    between atoms: C_17  and  C_21
REMARK    3  A    between atoms: N_20  and  C_23
REMARK    4  A    between atoms: C_23  and  C_27
REMARK                            x       y       z     vdW  Elec       q    Type
REMARK                         _______ _______ _______ _____ _____    ______ ____
ROOT
ATOM      1  O   UNL     1      32.168  -7.296 -23.472  0.00  0.00    -0.339 OA
ATOM      2  O   UNL     1      31.055  -9.927 -19.696  0.00  0.00    -0.268 OA
ATOM      3  O   UNL     1      32.930 -14.462 -21.059  0.00  0.00    -0.283 OA
ATOM      4  N   UNL     1      31.700  -8.605 -21.480  0.00  0.00    -0.253 N 
ATOM      5  N   UNL     1      32.308 -10.925 -22.939  0.00  0.00    -0.275 N 
ATOM      6  C   UNL     1      31.363  -7.346 -20.799  0.00  0.00    +0.080 C 
ATOM      7  C   UNL     1      31.922  -6.128 -22.682  0.00  0.00    +0.119 C 
ATOM      8  C   UNL     1      30.715  -6.404 -21.803  0.00  0.00    +0.049 C 
ATOM      9  C   UNL     1      32.648  -6.601 -20.413  0.00  0.00    +0.022 C 
ATOM     10  C   UNL     1      33.059  -5.850 -21.690  0.00  0.00    +0.031 C 
ATOM     11  C   UNL     1      32.435  -8.508 -22.746  0.00  0.00    +0.215 C 
ATOM     12  C   UNL     1      32.059  -9.672 -23.645  0.00  0.00    +0.147 C 
ATOM     13  C   UNL     1      31.559  -9.824 -20.814  0.00  0.00    +0.267 C 
ATOM     14  C   UNL     1      32.059 -11.039 -21.565  0.00  0.00    +0.143 C 
ATOM     15  C   UNL     1      32.730 -12.047 -23.638  0.00  0.00    +0.074 C 
ATOM     16  C   UNL     1      32.247 -12.192 -20.885  0.00  0.00    +0.191 C 
ATOM     17  C   UNL     1      32.955 -13.249 -23.095  0.00  0.00    +0.110 C 
ATOM     18  C   UNL     1      32.731 -13.397 -21.633  0.00  0.00    +0.236 C 
ENDROOT
BRANCH  17  21
ATOM     19  O   UNL     1      32.981 -14.446 -25.116  0.00  0.00    -0.270 OA
ATOM     20  N   UNL     1      34.308 -15.186 -23.347  0.00  0.00    -0.297 N 
ATOM     21  C   UNL     1      33.401 -14.339 -23.963  0.00  0.00    +0.251 C 
ATOM     22  H   UNL     1      34.567 -14.995 -22.417  0.00  0.00    +0.150 HD
BRANCH  20  23
ATOM     23  C   UNL     1      34.893 -16.337 -23.999  0.00  0.00    +0.121 C 
BRANCH  23  27
ATOM     24  F   UNL     1      35.562 -16.219 -21.253  0.00  0.00    -0.204 F 
ATOM     25  F   UNL     1      34.235 -18.928 -24.918  0.00  0.00    -0.204 F 
ATOM     26  F   UNL     1      34.919 -20.868 -20.657  0.00  0.00    -0.204 F 
ATOM     27  C   UNL     1      34.899 -17.544 -23.108  0.00  0.00    +0.053 C 
ATOM     28  C   UNL     1      35.240 -17.416 -21.761  0.00  0.00    +0.142 C 
ATOM     29  C   UNL     1      34.564 -18.795 -23.625  0.00  0.00    +0.142 C 
ATOM     30  C   UNL     1      35.247 -18.539 -20.933  0.00  0.00    +0.059 C 
ATOM     31  C   UNL     1      34.570 -19.917 -22.798  0.00  0.00    +0.059 C 
ATOM     32  C   UNL     1      34.912 -19.790 -21.452  0.00  0.00    +0.145 C 
ENDBRANCH  23  27
ENDBRANCH  20  23
ENDBRANCH  17  21
BRANCH  16  33
ATOM     33  O   UNL     1      32.034 -12.336 -19.532  0.00  0.00    -0.502 OA
ATOM     34  H   UNL     1      31.781 -11.595 -19.017  0.00  0.00    +0.292 HD
ENDBRANCH  16  33
TORSDOF 4
ENDMDL
MODEL 2
REMARK VINA RESULT:     -11.5      1.733      2.219
REMARK  Name = 90311989
REMARK  4 active torsions:
REMARK  status: ('A' for Active; 'I' for Inactive)
REMARK    1  A    between atoms: C_16  and  O_33
REMARK    2  A    between atoms: C_17  and  C_21
REMARK    3  A    between atoms: N_20  and  C_23
REMARK    4  A    between atoms: C_23  and  C_27
REMARK                            x       y       z     vdW  Elec       q    Type
REMARK                         _______ _______ _______ _____ _____    ______ ____
ROOT
ATOM      1  O   UNL     1      32.943  -9.143 -23.978  0.00  0.00    -0.339 OA
ATOM      2  O   UNL     1      31.284 -11.361 -20.139  0.00  0.00    -0.268 OA
ATOM      3  O   UNL     1      33.768 -15.799 -20.405  0.00  0.00    -0.283 OA
ATOM      4  N   UNL     1      32.177 -10.222 -21.942  0.00  0.00    -0.253 N 
ATOM      5  N   UNL     1      33.265 -12.631 -22.885  0.00  0.00    -0.275 N 
ATOM      6  C   UNL     1      31.602  -8.929 -21.539  0.00  0.00    +0.080 C 
ATOM      7  C   UNL     1      32.442  -7.916 -23.438  0.00  0.00    +0.119 C 
ATOM      8  C   UNL     1      31.104  -8.205 -22.780  0.00  0.00    +0.049 C 
ATOM      9  C   UNL     1      32.712  -8.002 -21.026  0.00  0.00    +0.022 C 
ATOM     10  C   UNL     1      33.318  -7.385 -22.297  0.00  0.00    +0.031 C 
ATOM     11  C   UNL     1      33.150 -10.211 -23.039  0.00  0.00    +0.215 C 
ATOM     12  C   UNL     1      33.068 -11.517 -23.807  0.00  0.00    +0.147 C 
ATOM     13  C   UNL     1      32.000 -11.351 -21.139  0.00  0.00    +0.267 C 
ATOM     14  C   UNL     1      32.744 -12.591 -21.585  0.00  0.00    +0.143 C 
ATOM     15  C   UNL     1      33.916 -13.781 -23.310  0.00  0.00    +0.074 C 
ATOM     16  C   UNL     1      32.880 -13.616 -20.715  0.00  0.00    +0.191 C 
ATOM     17  C   UNL     1      34.119 -14.869 -22.557  0.00  0.00    +0.110 C 
ATOM     18  C   UNL     1      33.607 -14.847 -21.162  0.00  0.00    +0.236 C 
ENDROOT
BRANCH  17  21
ATOM     19  O   UNL     1      35.091 -16.038 -24.348  0.00  0.00    -0.270 OA
ATOM     20  N   UNL     1      35.139 -16.989 -22.219  0.00  0.00    -0.297 N 
ATOM     21  C   UNL     1      34.826 -16.007 -23.145  0.00  0.00    +0.251 C 
ATOM     22  H   UNL     1      34.872 -16.848 -21.282  0.00  0.00    +0.150 HD
BRANCH  20  23
ATOM     23  C   UNL     1      35.835 -18.210 -22.557  0.00  0.00    +0.121 C 
BRANCH  23  27
ATOM     24  F   UNL     1      37.954 -18.941 -20.831  0.00  0.00    -0.204 F 
ATOM     25  F   UNL     1      33.426 -19.614 -22.090  0.00  0.00    -0.204 F 
ATOM     26  F   UNL     1      35.303 -22.124 -18.546  0.00  0.00    -0.204 F 
ATOM     27  C   UNL     1      35.693 -19.252 -21.487  0.00  0.00    +0.053 C 
ATOM     28  C   UNL     1      36.779 -19.566 -20.670  0.00  0.00    +0.142 C 
ATOM     29  C   UNL     1      34.475 -19.909 -21.310  0.00  0.00    +0.142 C 
ATOM     30  C   UNL     1      36.647 -20.536 -19.676  0.00  0.00    +0.059 C 
ATOM     31  C   UNL     1      34.343 -20.878 -20.316  0.00  0.00    +0.059 C 
ATOM     32  C   UNL     1      35.429 -21.192 -19.500  0.00  0.00    +0.145 C 
ENDBRANCH  23  27
ENDBRANCH  20  23
ENDBRANCH  17  21
BRANCH  16  33
ATOM     33  O   UNL     1      32.401 -13.603 -19.423  0.00  0.00    -0.502 OA
ATOM     34  H   UNL     1      31.499 -13.405 -19.261  0.00  0.00    +0.292 HD
ENDBRANCH  16  33
TORSDOF 4
ENDMDL
MODEL 3
REMARK VINA RESULT:     -11.3      2.654      5.108
REMARK  Name = 90311989
REMARK  4 active torsions:
REMARK  status: ('A' for Active; 'I' for Inactive)
REMARK    1  A    between atoms: C_16  and  O_33
REMARK    2  A    between atoms: C_17  and  C_21
REMARK    3  A    between atoms: N_20  and  C_23
REMARK    4  A    between atoms: C_23  and  C_27
REMARK                            x       y       z     vdW  Elec       q    Type
REMARK                         _______ _______ _______ _____ _____    ______ ____
ROOT
ATOM      1  O   UNL     1      32.665 -12.487 -19.832  0.00  0.00    -0.339 OA
ATOM      2  O   UNL     1      33.214 -12.636 -24.531  0.00  0.00    -0.268 OA
ATOM      3  O   UNL     1      34.676 -17.468 -25.207  0.00  0.00    -0.283 OA
ATOM      4  N   UNL     1      32.826 -12.585 -22.253  0.00  0.00    -0.253 N 
ATOM      5  N   UNL     1      34.163 -15.040 -22.001  0.00  0.00    -0.275 N 
ATOM      6  C   UNL     1      32.152 -11.278 -22.295  0.00  0.00    +0.080 C 
ATOM      7  C   UNL     1      31.923 -11.274 -19.995  0.00  0.00    +0.119 C 
ATOM      8  C   UNL     1      32.592 -10.460 -21.089  0.00  0.00    +0.049 C 
ATOM      9  C   UNL     1      30.648 -11.457 -22.054  0.00  0.00    +0.022 C 
ATOM     10  C   UNL     1      30.507 -11.529 -20.525  0.00  0.00    +0.031 C 
ATOM     11  C   UNL     1      32.766 -13.330 -20.991  0.00  0.00    +0.215 C 
ATOM     12  C   UNL     1      34.019 -14.173 -20.836  0.00  0.00    +0.147 C 
ATOM     13  C   UNL     1      33.262 -13.189 -23.433  0.00  0.00    +0.267 C 
ATOM     14  C   UNL     1      33.820 -14.588 -23.282  0.00  0.00    +0.143 C 
ATOM     15  C   UNL     1      34.710 -16.307 -21.863  0.00  0.00    +0.074 C 
ATOM     16  C   UNL     1      33.970 -15.351 -24.387  0.00  0.00    +0.191 C 
ATOM     17  C   UNL     1      34.916 -17.167 -22.868  0.00  0.00    +0.110 C 
ATOM     18  C   UNL     1      34.534 -16.731 -24.237  0.00  0.00    +0.236 C 
ENDROOT
BRANCH  17  21
ATOM     19  O   UNL     1      35.736 -19.287 -23.461  0.00  0.00    -0.270 OA
ATOM     20  N   UNL     1      35.741 -18.662 -21.214  0.00  0.00    -0.297 N 
ATOM     21  C   UNL     1      35.501 -18.474 -22.566  0.00  0.00    +0.251 C 
ATOM     22  H   UNL     1      35.509 -17.933 -20.594  0.00  0.00    +0.150 HD
BRANCH  20  23
ATOM     23  C   UNL     1      36.314 -19.871 -20.668  0.00  0.00    +0.121 C 
BRANCH  23  27
ATOM     24  F   UNL     1      33.537 -19.674 -21.169  0.00  0.00    -0.204 F 
ATOM     25  F   UNL     1      36.999 -21.763 -18.681  0.00  0.00    -0.204 F 
ATOM     26  F   UNL     1      32.485 -22.970 -17.942  0.00  0.00    -0.204 F 
ATOM     27  C   UNL     1      35.294 -20.698 -19.942  0.00  0.00    +0.053 C 
ATOM     28  C   UNL     1      33.938 -20.551 -20.237  0.00  0.00    +0.142 C 
ATOM     29  C   UNL     1      35.699 -21.614 -18.971  0.00  0.00    +0.142 C 
ATOM     30  C   UNL     1      32.989 -21.318 -19.562  0.00  0.00    +0.059 C 
ATOM     31  C   UNL     1      34.751 -22.382 -18.297  0.00  0.00    +0.059 C 
ATOM     32  C   UNL     1      33.396 -22.233 -18.591  0.00  0.00    +0.145 C 
ENDBRANCH  23  27
ENDBRANCH  20  23
ENDBRANCH  17  21
BRANCH  16  33
ATOM     33  O   UNL     1      33.624 -14.949 -25.658  0.00  0.00    -0.502 OA
ATOM     34  H   UNL     1      32.874 -14.402 -25.788  0.00  0.00    +0.292 HD
ENDBRANCH  16  33
TORSDOF 4
ENDMDL
MODEL 4
REMARK VINA RESULT:     -11.3      2.661      5.046
REMARK  Name = 90311989
REMARK  4 active torsions:
REMARK  status: ('A' for Active; 'I' for Inactive)
REMARK    1  A    between atoms: C_16  and  O_33
REMARK    2  A    between atoms: C_17  and  C_21
REMARK    3  A    between atoms: N_20  and  C_23
REMARK    4  A    between atoms: C_23  and  C_27
REMARK                            x       y       z     vdW  Elec       q    Type
REMARK                         _______ _______ _______ _____ _____    ______ ____
ROOT
ATOM      1  O   UNL     1      32.668 -12.494 -19.836  0.00  0.00    -0.339 OA
ATOM      2  O   UNL     1      33.185 -12.667 -24.539  0.00  0.00    -0.268 OA
ATOM      3  O   UNL     1      34.636 -17.504 -25.200  0.00  0.00    -0.283 OA
ATOM      4  N   UNL     1      32.812 -12.604 -22.258  0.00  0.00    -0.253 N 
ATOM      5  N   UNL     1      34.147 -15.060 -22.003  0.00  0.00    -0.275 N 
ATOM      6  C   UNL     1      32.140 -11.296 -22.302  0.00  0.00    +0.080 C 
ATOM      7  C   UNL     1      31.927 -11.281 -20.001  0.00  0.00    +0.119 C 
ATOM      8  C   UNL     1      32.589 -10.474 -21.103  0.00  0.00    +0.049 C 
ATOM      9  C   UNL     1      30.637 -11.473 -22.049  0.00  0.00    +0.022 C 
ATOM     10  C   UNL     1      30.506 -11.537 -20.520  0.00  0.00    +0.031 C 
ATOM     11  C   UNL     1      32.760 -13.343 -20.992  0.00  0.00    +0.215 C 
ATOM     12  C   UNL     1      34.012 -14.187 -20.841  0.00  0.00    +0.147 C 
ATOM     13  C   UNL     1      33.239 -13.215 -23.438  0.00  0.00    +0.267 C 
ATOM     14  C   UNL     1      33.797 -14.613 -23.284  0.00  0.00    +0.143 C 
ATOM     15  C   UNL     1      34.694 -16.327 -21.863  0.00  0.00    +0.074 C 
ATOM     16  C   UNL     1      33.938 -15.382 -24.386  0.00  0.00    +0.191 C 
ATOM     17  C   UNL     1      34.892 -17.192 -22.864  0.00  0.00    +0.110 C 
ATOM     18  C   UNL     1      34.501 -16.762 -24.233  0.00  0.00    +0.236 C 
ENDROOT
BRANCH  17  21
ATOM     19  O   UNL     1      35.701 -19.318 -23.452  0.00  0.00    -0.270 OA
ATOM     20  N   UNL     1      35.732 -18.677 -21.210  0.00  0.00    -0.297 N 
ATOM     21  C   UNL     1      35.478 -18.498 -22.560  0.00  0.00    +0.251 C 
ATOM     22  H   UNL     1      35.508 -17.944 -20.592  0.00  0.00    +0.150 HD
BRANCH  20  23
ATOM     23  C   UNL     1      36.308 -19.884 -20.661  0.00  0.00    +0.121 C 
BRANCH  23  27
ATOM     24  F   UNL     1      37.009 -21.759 -18.662  0.00  0.00    -0.204 F 
ATOM     25  F   UNL     1      33.528 -19.689 -21.139  0.00  0.00    -0.204 F 
ATOM     26  F   UNL     1      32.501 -22.962 -17.881  0.00  0.00    -0.204 F 
ATOM     27  C   UNL     1      35.294 -20.704 -19.919  0.00  0.00    +0.053 C 
ATOM     28  C   UNL     1      35.707 -21.612 -18.945  0.00  0.00    +0.142 C 
ATOM     29  C   UNL     1      33.936 -20.559 -20.204  0.00  0.00    +0.142 C 
ATOM     30  C   UNL     1      34.764 -22.375 -18.256  0.00  0.00    +0.059 C 
ATOM     31  C   UNL     1      32.993 -21.321 -19.515  0.00  0.00    +0.059 C 
ATOM     32  C   UNL     1      33.407 -22.229 -18.542  0.00  0.00    +0.145 C 
ENDBRANCH  23  27
ENDBRANCH  20  23
ENDBRANCH  17  21
BRANCH  16  33
ATOM     33  O   UNL     1      33.584 -14.986 -25.657  0.00  0.00    -0.502 OA
ATOM     34  H   UNL     1      33.460 -14.077 -25.846  0.00  0.00    +0.292 HD
ENDBRANCH  16  33
TORSDOF 4
ENDMDL
MODEL 5
REMARK VINA RESULT:     -10.5      6.462     11.956
REMARK  Name = 90311989
REMARK  4 active torsions:
REMARK  status: ('A' for Active; 'I' for Inactive)
REMARK    1  A    between atoms: C_16  and  O_33
REMARK    2  A    between atoms: C_17  and  C_21
REMARK    3  A    between atoms: N_20  and  C_23
REMARK    4  A    between atoms: C_23  and  C_27
REMARK                            x       y       z     vdW  Elec       q    Type
REMARK                         _______ _______ _______ _____ _____    ______ ____
ROOT
ATOM      1  O   UNL     1      31.093 -23.801 -15.504  0.00  0.00    -0.339 OA
ATOM      2  O   UNL     1      35.822 -23.952 -15.672  0.00  0.00    -0.268 OA
ATOM      3  O   UNL     1      36.781 -20.751 -19.515  0.00  0.00    -0.283 OA
ATOM      4  N   UNL     1      33.522 -23.794 -15.501  0.00  0.00    -0.253 N 
ATOM      5  N   UNL     1      33.457 -22.502 -17.992  0.00  0.00    -0.275 N 
ATOM      6  C   UNL     1      33.467 -24.504 -14.214  0.00  0.00    +0.080 C 
ATOM      7  C   UNL     1      31.159 -24.394 -14.203  0.00  0.00    +0.119 C 
ATOM      8  C   UNL     1      32.264 -25.435 -14.218  0.00  0.00    +0.049 C 
ATOM      9  C   UNL     1      33.130 -23.517 -13.088  0.00  0.00    +0.022 C 
ATOM     10  C   UNL     1      31.599 -23.389 -13.131  0.00  0.00    +0.031 C 
ATOM     11  C   UNL     1      32.288 -23.150 -15.965  0.00  0.00    +0.215 C 
ATOM     12  C   UNL     1      32.252 -23.149 -17.482  0.00  0.00    +0.147 C 
ATOM     13  C   UNL     1      34.751 -23.527 -16.106  0.00  0.00    +0.267 C 
ATOM     14  C   UNL     1      34.693 -22.678 -17.357  0.00  0.00    +0.143 C 
ATOM     15  C   UNL     1      33.406 -21.755 -19.161  0.00  0.00    +0.074 C 
ATOM     16  C   UNL     1      35.834 -22.120 -17.818  0.00  0.00    +0.191 C 
ATOM     17  C   UNL     1      34.454 -21.149 -19.730  0.00  0.00    +0.110 C 
ATOM     18  C   UNL     1      35.776 -21.289 -19.064  0.00  0.00    +0.236 C 
ENDROOT
BRANCH  17  21
ATOM     19  O   UNL     1      33.109 -20.205 -21.409  0.00  0.00    -0.270 OA
ATOM     20  N   UNL     1      35.423 -19.941 -21.533  0.00  0.00    -0.297 N 
ATOM     21  C   UNL     1      34.243 -20.392 -20.964  0.00  0.00    +0.251 C 
ATOM     22  H   UNL     1      36.270 -20.156 -21.080  0.00  0.00    +0.150 HD
BRANCH  20  23
ATOM     23  C   UNL     1      35.475 -19.171 -22.755  0.00  0.00    +0.121 C 
BRANCH  23  27
ATOM     24  F   UNL     1      35.739 -17.896 -20.244  0.00  0.00    -0.204 F 
ATOM     25  F   UNL     1      34.473 -17.497 -24.802  0.00  0.00    -0.204 F 
ATOM     26  F   UNL     1      34.118 -13.774 -21.905  0.00  0.00    -0.204 F 
ATOM     27  C   UNL     1      35.115 -17.732 -22.529  0.00  0.00    +0.053 C 
ATOM     28  C   UNL     1      35.268 -17.164 -21.264  0.00  0.00    +0.142 C 
ATOM     29  C   UNL     1      34.624 -16.961 -23.583  0.00  0.00    +0.142 C 
ATOM     30  C   UNL     1      34.932 -15.827 -21.053  0.00  0.00    +0.059 C 
ATOM     31  C   UNL     1      34.289 -15.624 -23.373  0.00  0.00    +0.059 C 
ATOM     32  C   UNL     1      34.441 -15.058 -22.108  0.00  0.00    +0.145 C 
ENDBRANCH  23  27
ENDBRANCH  20  23
ENDBRANCH  17  21
BRANCH  16  33
ATOM     33  O   UNL     1      37.062 -22.253 -17.209  0.00  0.00    -0.502 OA
ATOM     34  H   UNL     1      37.112 -22.418 -16.288  0.00  0.00    +0.292 HD
ENDBRANCH  16  33
TORSDOF 4
ENDMDL
MODEL 6
REMARK VINA RESULT:     -10.3      3.581      9.321
REMARK  Name = 90311989
REMARK  4 active torsions:
REMARK  status: ('A' for Active; 'I' for Inactive)
REMARK    1  A    between atoms: C_16  and  O_33
REMARK    2  A    between atoms: C_17  and  C_21
REMARK    3  A    between atoms: N_20  and  C_23
REMARK    4  A    between atoms: C_23  and  C_27
REMARK                            x       y       z     vdW  Elec       q    Type
REMARK                         _______ _______ _______ _____ _____    ______ ____
ROOT
ATOM      1  O   UNL     1      35.700 -17.491 -20.438  0.00  0.00    -0.339 OA
ATOM      2  O   UNL     1      33.694 -17.845 -24.711  0.00  0.00    -0.268 OA
ATOM      3  O   UNL     1      33.312 -12.943 -26.038  0.00  0.00    -0.283 OA
ATOM      4  N   UNL     1      34.783 -17.690 -22.678  0.00  0.00    -0.253 N 
ATOM      5  N   UNL     1      34.242 -14.936 -22.633  0.00  0.00    -0.275 N 
ATOM      6  C   UNL     1      35.067 -19.132 -22.605  0.00  0.00    +0.080 C 
ATOM      7  C   UNL     1      36.029 -18.881 -20.519  0.00  0.00    +0.119 C 
ATOM      8  C   UNL     1      34.862 -19.600 -21.172  0.00  0.00    +0.049 C 
ATOM      9  C   UNL     1      36.563 -19.382 -22.835  0.00  0.00    +0.022 C 
ATOM     10  C   UNL     1      37.211 -19.142 -21.462  0.00  0.00    +0.031 C 
ATOM     11  C   UNL     1      35.433 -16.828 -21.685  0.00  0.00    +0.215 C 
ATOM     12  C   UNL     1      34.545 -15.634 -21.387  0.00  0.00    +0.147 C 
ATOM     13  C   UNL     1      34.146 -17.155 -23.798  0.00  0.00    +0.267 C 
ATOM     14  C   UNL     1      34.025 -15.646 -23.821  0.00  0.00    +0.143 C 
ATOM     15  C   UNL     1      34.096 -13.556 -22.641  0.00  0.00    +0.074 C 
ATOM     16  C   UNL     1      33.711 -15.037 -24.985  0.00  0.00    +0.191 C 
ATOM     17  C   UNL     1      33.787 -12.825 -23.718  0.00  0.00    +0.110 C 
ATOM     18  C   UNL     1      33.582 -13.544 -25.003  0.00  0.00    +0.236 C 
ENDROOT
BRANCH  17  21
ATOM     19  O   UNL     1      34.664 -10.673 -23.374  0.00  0.00    -0.270 OA
ATOM     20  N   UNL     1      32.365 -10.921 -23.680  0.00  0.00    -0.297 N 
ATOM     21  C   UNL     1      33.670 -11.374 -23.572  0.00  0.00    +0.251 C 
ATOM     22  H   UNL     1      31.654 -11.583 -23.840  0.00  0.00    +0.150 HD
BRANCH  20  23
ATOM     23  C   UNL     1      31.993  -9.529 -23.571  0.00  0.00    +0.121 C 
BRANCH  23  27
ATOM     24  F   UNL     1      30.737 -10.734 -21.341  0.00  0.00    -0.204 F 
ATOM     25  F   UNL     1      33.570  -7.271 -22.929  0.00  0.00    -0.204 F 
ATOM     26  F   UNL     1      32.575  -7.596 -18.315  0.00  0.00    -0.204 F 
ATOM     27  C   UNL     1      32.149  -9.014 -22.170  0.00  0.00    +0.053 C 
ATOM     28  C   UNL     1      31.500  -9.656 -21.114  0.00  0.00    +0.142 C 
ATOM     29  C   UNL     1      32.942  -7.894 -21.922  0.00  0.00    +0.142 C 
ATOM     30  C   UNL     1      31.645  -9.176 -19.812  0.00  0.00    +0.059 C 
ATOM     31  C   UNL     1      33.087  -7.415 -20.620  0.00  0.00    +0.059 C 
ATOM     32  C   UNL     1      32.438  -8.056 -19.566  0.00  0.00    +0.145 C 
ENDBRANCH  23  27
ENDBRANCH  20  23
ENDBRANCH  17  21
BRANCH  16  33
ATOM     33  O   UNL     1      33.513 -15.699 -26.177  0.00  0.00    -0.502 OA
ATOM     34  H   UNL     1      32.868 -16.377 -26.233  0.00  0.00    +0.292 HD
ENDBRANCH  16  33
TORSDOF 4
ENDMDL
MODEL 7
REMARK VINA RESULT:     -10.2      3.385      6.502
REMARK  Name = 90311989
REMARK  4 active torsions:
REMARK  status: ('A' for Active; 'I' for Inactive)
REMARK    1  A    between atoms: C_16  and  O_33
REMARK    2  A    between atoms: C_17  and  C_21
REMARK    3  A    between atoms: N_20  and  C_23
REMARK    4  A    between atoms: C_23  and  C_27
REMARK                            x       y       z     vdW  Elec       q    Type
REMARK                         _______ _______ _______ _____ _____    ______ ____
ROOT
ATOM      1  O   UNL     1      33.448 -12.765 -20.853  0.00  0.00    -0.339 OA
ATOM      2  O   UNL     1      33.695 -15.135 -24.943  0.00  0.00    -0.268 OA
ATOM      3  O   UNL     1      35.344 -19.685 -23.357  0.00  0.00    -0.283 OA
ATOM      4  N   UNL     1      33.455 -14.006 -22.940  0.00  0.00    -0.253 N 
ATOM      5  N   UNL     1      34.923 -16.027 -21.660  0.00  0.00    -0.275 N 
ATOM      6  C   UNL     1      32.717 -12.886 -23.544  0.00  0.00    +0.080 C 
ATOM      7  C   UNL     1      32.639 -11.787 -21.513  0.00  0.00    +0.119 C 
ATOM      8  C   UNL     1      33.194 -11.587 -22.912  0.00  0.00    +0.049 C 
ATOM      9  C   UNL     1      31.242 -12.946 -23.126  0.00  0.00    +0.022 C 
ATOM     10  C   UNL     1      31.204 -12.280 -21.742  0.00  0.00    +0.031 C 
ATOM     11  C   UNL     1      33.513 -14.058 -21.476  0.00  0.00    +0.215 C 
ATOM     12  C   UNL     1      34.813 -14.710 -21.040  0.00  0.00    +0.147 C 
ATOM     13  C   UNL     1      33.841 -15.096 -23.722  0.00  0.00    +0.267 C 
ATOM     14  C   UNL     1      34.476 -16.246 -22.970  0.00  0.00    +0.143 C 
ATOM     15  C   UNL     1      35.540 -17.068 -20.981  0.00  0.00    +0.074 C 
ATOM     16  C   UNL     1      34.590 -17.442 -23.588  0.00  0.00    +0.191 C 
ATOM     17  C   UNL     1      35.721 -18.301 -21.469  0.00  0.00    +0.110 C 
ATOM     18  C   UNL     1      35.229 -18.576 -22.845  0.00  0.00    +0.236 C 
ENDROOT
BRANCH  17  21
ATOM     19  O   UNL     1      37.544 -19.128 -20.241  0.00  0.00    -0.270 OA
ATOM     20  N   UNL     1      35.588 -20.393 -20.350  0.00  0.00    -0.297 N 
ATOM     21  C   UNL     1      36.387 -19.297 -20.631  0.00  0.00    +0.251 C 
ATOM     22  H   UNL     1      34.677 -20.413 -20.722  0.00  0.00    +0.150 HD
BRANCH  20  23
ATOM     23  C   UNL     1      36.022 -21.511 -19.542  0.00  0.00    +0.121 C 
BRANCH  23  27
ATOM     24  F   UNL     1      33.289 -21.321 -20.245  0.00  0.00    -0.204 F 
ATOM     25  F   UNL     1      36.493 -22.783 -17.062  0.00  0.00    -0.204 F 
ATOM     26  F   UNL     1      31.881 -23.488 -16.282  0.00  0.00    -0.204 F 
ATOM     27  C   UNL     1      34.919 -22.039 -18.674  0.00  0.00    +0.053 C 
ATOM     28  C   UNL     1      33.590 -21.912 -19.080  0.00  0.00    +0.142 C 
ATOM     29  C   UNL     1      35.220 -22.656 -17.460  0.00  0.00    +0.142 C 
ATOM     30  C   UNL     1      32.564 -22.402 -18.272  0.00  0.00    +0.059 C 
ATOM     31  C   UNL     1      34.194 -23.146 -16.653  0.00  0.00    +0.059 C 
ATOM     32  C   UNL     1      32.866 -23.018 -17.058  0.00  0.00    +0.145 C 
ENDBRANCH  23  27
ENDBRANCH  20  23
ENDBRANCH  17  21
BRANCH  16  33
ATOM     33  O   UNL     1      34.143 -17.700 -24.864  0.00  0.00    -0.502 OA
ATOM     34  H   UNL     1      33.412 -18.271 -24.998  0.00  0.00    +0.292 HD
ENDBRANCH  16  33
TORSDOF 4
ENDMDL
MODEL 8
REMARK VINA RESULT:     -10.1      2.965      5.527
REMARK  Name = 90311989
REMARK  4 active torsions:
REMARK  status: ('A' for Active; 'I' for Inactive)
REMARK    1  A    between atoms: C_16  and  O_33
REMARK    2  A    between atoms: C_17  and  C_21
REMARK    3  A    between atoms: N_20  and  C_23
REMARK    4  A    between atoms: C_23  and  C_27
REMARK                            x       y       z     vdW  Elec       q    Type
REMARK                         _______ _______ _______ _____ _____    ______ ____
ROOT
ATOM      1  O   UNL     1      30.574  -3.233 -23.520  0.00  0.00    -0.339 OA
ATOM      2  O   UNL     1      34.678  -5.087 -24.979  0.00  0.00    -0.268 OA
ATOM      3  O   UNL     1      34.170  -9.928 -23.480  0.00  0.00    -0.283 OA
ATOM      4  N   UNL     1      32.629  -4.200 -24.380  0.00  0.00    -0.253 N 
ATOM      5  N   UNL     1      32.126  -6.487 -22.832  0.00  0.00    -0.275 N 
ATOM      6  C   UNL     1      32.837  -2.952 -25.130  0.00  0.00    +0.080 C 
ATOM      7  C   UNL     1      30.821  -2.112 -24.374  0.00  0.00    +0.119 C 
ATOM      8  C   UNL     1      32.303  -1.789 -24.306  0.00  0.00    +0.049 C 
ATOM      9  C   UNL     1      31.934  -2.932 -26.371  0.00  0.00    +0.022 C 
ATOM     10  C   UNL     1      30.572  -2.444 -25.851  0.00  0.00    +0.031 C 
ATOM     11  C   UNL     1      31.289  -4.439 -23.834  0.00  0.00    +0.215 C 
ATOM     12  C   UNL     1      31.396  -5.254 -22.557  0.00  0.00    +0.147 C 
ATOM     13  C   UNL     1      33.588  -5.214 -24.423  0.00  0.00    +0.267 C 
ATOM     14  C   UNL     1      33.209  -6.500 -23.722  0.00  0.00    +0.143 C 
ATOM     15  C   UNL     1      31.799  -7.656 -22.159  0.00  0.00    +0.074 C 
ATOM     16  C   UNL     1      33.928  -7.616 -23.977  0.00  0.00    +0.191 C 
ATOM     17  C   UNL     1      32.424  -8.829 -22.312  0.00  0.00    +0.110 C 
ATOM     18  C   UNL     1      33.558  -8.886 -23.273  0.00  0.00    +0.236 C 
ENDROOT
BRANCH  17  21
ATOM     19  O   UNL     1      31.643  -9.855 -20.349  0.00  0.00    -0.270 OA
ATOM     20  N   UNL     1      31.934 -11.154 -22.263  0.00  0.00    -0.297 N 
ATOM     21  C   UNL     1      31.962  -9.978 -21.532  0.00  0.00    +0.251 C 
ATOM     22  H   UNL     1      32.215 -11.123 -23.206  0.00  0.00    +0.150 HD
BRANCH  20  23
ATOM     23  C   UNL     1      31.516 -12.424 -21.713  0.00  0.00    +0.121 C 
BRANCH  23  27
ATOM     24  F   UNL     1      32.895 -13.048 -24.103  0.00  0.00    -0.204 F 
ATOM     25  F   UNL     1      32.372 -13.906 -19.463  0.00  0.00    -0.204 F 
ATOM     26  F   UNL     1      35.604 -16.286 -21.967  0.00  0.00    -0.204 F 
ATOM     27  C   UNL     1      32.606 -13.452 -21.781  0.00  0.00    +0.053 C 
ATOM     28  C   UNL     1      33.246 -13.713 -22.993  0.00  0.00    +0.142 C 
ATOM     29  C   UNL     1      32.980 -14.149 -20.632  0.00  0.00    +0.142 C 
ATOM     30  C   UNL     1      34.259 -14.670 -23.056  0.00  0.00    +0.059 C 
ATOM     31  C   UNL     1      33.993 -15.105 -20.694  0.00  0.00    +0.059 C 
ATOM     32  C   UNL     1      34.632 -15.366 -21.906  0.00  0.00    +0.145 C 
ENDBRANCH  23  27
ENDBRANCH  20  23
ENDBRANCH  17  21
BRANCH  16  33
ATOM     33  O   UNL     1      34.983  -7.672 -24.860  0.00  0.00    -0.502 OA
ATOM     34  H   UNL     1      35.248  -8.495 -25.220  0.00  0.00    +0.292 HD
ENDBRANCH  16  33
TORSDOF 4
ENDMDL
MODEL 9
REMARK VINA RESULT:     -10.0      5.137     10.985
REMARK  Name = 90311989
REMARK  4 active torsions:
REMARK  status: ('A' for Active; 'I' for Inactive)
REMARK    1  A    between atoms: C_16  and  O_33
REMARK    2  A    between atoms: C_17  and  C_21
REMARK    3  A    between atoms: N_20  and  C_23
REMARK    4  A    between atoms: C_23  and  C_27
REMARK                            x       y       z     vdW  Elec       q    Type
REMARK                         _______ _______ _______ _____ _____    ______ ____
ROOT
ATOM      1  O   UNL     1      31.885 -23.027 -17.622  0.00  0.00    -0.339 OA
ATOM      2  O   UNL     1      36.602 -22.618 -17.607  0.00  0.00    -0.268 OA
ATOM      3  O   UNL     1      37.279 -18.813 -20.923  0.00  0.00    -0.283 OA
ATOM      4  N   UNL     1      34.295 -22.746 -17.514  0.00  0.00    -0.253 N 
ATOM      5  N   UNL     1      34.145 -21.127 -19.802  0.00  0.00    -0.275 N 
ATOM      6  C   UNL     1      34.290 -23.634 -16.342  0.00  0.00    +0.080 C 
ATOM      7  C   UNL     1      31.986 -23.788 -16.415  0.00  0.00    +0.119 C 
ATOM      8  C   UNL     1      33.206 -24.685 -16.527  0.00  0.00    +0.049 C 
ATOM      9  C   UNL     1      33.810 -22.863 -15.105  0.00  0.00    +0.022 C 
ATOM     10  C   UNL     1      32.276 -22.904 -15.195  0.00  0.00    +0.031 C 
ATOM     11  C   UNL     1      33.007 -22.186 -17.937  0.00  0.00    +0.215 C 
ATOM     12  C   UNL     1      33.011 -21.972 -19.439  0.00  0.00    +0.147 C 
ATOM     13  C   UNL     1      35.500 -22.259 -18.022  0.00  0.00    +0.267 C 
ATOM     14  C   UNL     1      35.376 -21.252 -19.145  0.00  0.00    +0.143 C 
ATOM     15  C   UNL     1      34.037 -20.232 -20.857  0.00  0.00    +0.074 C 
ATOM     16  C   UNL     1      36.455 -20.509 -19.475  0.00  0.00    +0.191 C 
ATOM     17  C   UNL     1      35.022 -19.436 -21.291  0.00  0.00    +0.110 C 
ATOM     18  C   UNL     1      36.333 -19.520 -20.595  0.00  0.00    +0.236 C 
ENDROOT
BRANCH  17  21
ATOM     19  O   UNL     1      34.161 -18.938 -23.419  0.00  0.00    -0.270 OA
ATOM     20  N   UNL     1      35.236 -17.256 -22.213  0.00  0.00    -0.297 N 
ATOM     21  C   UNL     1      34.756 -18.539 -22.416  0.00  0.00    +0.251 C 
ATOM     22  H   UNL     1      35.697 -17.060 -21.365  0.00  0.00    +0.150 HD
BRANCH  20  23
ATOM     23  C   UNL     1      35.097 -16.191 -23.180  0.00  0.00    +0.121 C 
BRANCH  23  27
ATOM     24  F   UNL     1      34.879 -15.507 -20.443  0.00  0.00    -0.204 F 
ATOM     25  F   UNL     1      33.484 -14.624 -24.894  0.00  0.00    -0.204 F 
ATOM     26  F   UNL     1      31.741 -12.075 -21.310  0.00  0.00    -0.204 F 
ATOM     27  C   UNL     1      34.204 -15.093 -22.681  0.00  0.00    +0.053 C 
ATOM     28  C   UNL     1      34.142 -14.808 -21.317  0.00  0.00    +0.142 C 
ATOM     29  C   UNL     1      33.432 -14.357 -23.582  0.00  0.00    +0.142 C 
ATOM     30  C   UNL     1      33.311 -13.788 -20.854  0.00  0.00    +0.059 C 
ATOM     31  C   UNL     1      32.602 -13.338 -23.119  0.00  0.00    +0.059 C 
ATOM     32  C   UNL     1      32.540 -13.054 -21.755  0.00  0.00    +0.145 C 
ENDBRANCH  23  27
ENDBRANCH  20  23
ENDBRANCH  17  21
BRANCH  16  33
ATOM     33  O   UNL     1      37.674 -20.588 -18.838  0.00  0.00    -0.502 OA
ATOM     34  H   UNL     1      38.450 -20.761 -19.333  0.00  0.00    +0.292 HD
ENDBRANCH  16  33
TORSDOF 4
ENDMDL
