MODEL 1
REMARK VINA RESULT:     -12.3      0.000      0.000
REMARK  Name = 15602701
REMARK  5 active torsions:
REMARK  status: ('A' for Active; 'I' for Inactive)
REMARK    1  A    between atoms: N_5  and  C_12
REMARK    2  A    between atoms: C_6  and  C_22
REMARK    3  A    between atoms: C_13  and  C_21
REMARK    4  A    between atoms: C_22  and  C_23
REMARK    5  A    between atoms: C_23  and  N_24
REMARK                            x       y       z     vdW  Elec       q    Type
REMARK                         _______ _______ _______ _____ _____    ______ ____
ROOT
ATOM      1  S   UNL     1      36.582 -20.732 -19.527  0.00  0.00    -0.056 S 
ATOM      2  O   UNL     1      35.247 -23.567 -16.100  0.00  0.00    -0.252 OA
ATOM      3  N   UNL     1      34.586 -22.039 -18.531  0.00  0.00    -0.223 NA
ATOM      4  N   UNL     1      36.694 -22.228 -17.377  0.00  0.00    -0.248 N 
ATOM      5  N   UNL     1      37.492 -23.321 -15.501  0.00  0.00    -0.268 N 
ATOM      6  C   UNL     1      35.072 -20.638 -20.297  0.00  0.00    +0.031 C 
ATOM      7  C   UNL     1      34.133 -21.376 -19.654  0.00  0.00    +0.103 C 
ATOM      8  C   UNL     1      35.863 -21.774 -18.367  0.00  0.00    +0.166 C 
ATOM      9  C   UNL     1      36.360 -23.092 -16.300  0.00  0.00    +0.310 C 
ATOM     10  H   UNL     1      37.629 -21.920 -17.416  0.00  0.00    +0.158 HD
ATOM     11  H   UNL     1      38.320 -22.871 -15.786  0.00  0.00    +0.156 HD
ENDROOT
BRANCH   5  12
ATOM     12  C   UNL     1      37.589 -24.119 -14.336  0.00  0.00    +0.052 C 
ATOM     13  C   UNL     1      36.868 -24.626 -12.105  0.00  0.00    +0.073 C 
ATOM     14  C   UNL     1      36.772 -23.839 -13.252  0.00  0.00    +0.019 C 
ATOM     15  C   UNL     1      38.497 -25.164 -14.304  0.00  0.00    +0.015 C 
ATOM     16  C   UNL     1      37.777 -25.682 -12.056  0.00  0.00    +0.004 C 
ATOM     17  C   UNL     1      38.593 -25.951 -13.156  0.00  0.00    +0.001 C 
BRANCH  13  21
ATOM     18  F   UNL     1      35.563 -25.462 -10.281  0.00  0.00    -0.166 F 
ATOM     19  F   UNL     1      36.606 -23.587  -9.966  0.00  0.00    -0.166 F 
ATOM     20  F   UNL     1      34.865 -23.654 -11.268  0.00  0.00    -0.166 F 
ATOM     21  C   UNL     1      35.996 -24.340 -10.929  0.00  0.00    +0.419 C 
ENDBRANCH  13  21
ENDBRANCH   5  12
BRANCH   6  22
ATOM     22  C   UNL     1      34.921 -19.796 -21.543  0.00  0.00    +0.056 C 
BRANCH  22  23
ATOM     23  C   UNL     1      36.007 -18.728 -21.666  0.00  0.00    +0.093 C 
BRANCH  23  24
ATOM     24  N   UNL     1      35.434 -17.417 -21.733  0.00  0.00    -0.320 N 
ATOM     25  N   UNL     1      34.166 -14.624 -22.021  0.00  0.00    -0.220 N 
ATOM     26  N   UNL     1      33.553 -13.526 -22.502  0.00  0.00    -0.178 NA
ATOM     27  N   UNL     1      34.799 -17.638 -24.027  0.00  0.00    -0.232 NA
ATOM     28  N   UNL     1      33.664 -15.858 -25.247  0.00  0.00    -0.245 NA
ATOM     29  C   UNL     1      34.299 -15.627 -22.936  0.00  0.00    +0.185 C 
ATOM     30  C   UNL     1      34.844 -16.897 -22.898  0.00  0.00    +0.128 C 
ATOM     31  C   UNL     1      33.726 -15.142 -24.100  0.00  0.00    +0.103 C 
ATOM     32  C   UNL     1      33.286 -13.848 -23.773  0.00  0.00    +0.134 C 
ATOM     33  C   UNL     1      34.604 -14.628 -20.644  0.00  0.00    +0.135 C 
ATOM     34  C   UNL     1      34.220 -17.081 -25.117  0.00  0.00    +0.251 C 
ATOM     35  H   UNL     1      35.453 -16.854 -20.926  0.00  0.00    +0.148 HD
ENDBRANCH  23  24
ENDBRANCH  22  23
ENDBRANCH   6  22
TORSDOF 5
ENDMDL
MODEL 2
REMARK VINA RESULT:     -12.0      5.212     11.776
REMARK  Name = 15602701
REMARK  5 active torsions:
REMARK  status: ('A' for Active; 'I' for Inactive)
REMARK    1  A    between atoms: N_5  and  C_12
REMARK    2  A    between atoms: C_6  and  C_22
REMARK    3  A    between atoms: C_13  and  C_21
REMARK    4  A    between atoms: C_22  and  C_23
REMARK    5  A    between atoms: C_23  and  N_24
REMARK                            x       y       z     vdW  Elec       q    Type
REMARK                         _______ _______ _______ _____ _____    ______ ____
ROOT
ATOM      1  S   UNL     1      34.134 -23.414 -16.685  0.00  0.00    -0.056 S 
ATOM      2  O   UNL     1      32.420 -20.667 -20.013  0.00  0.00    -0.252 OA
ATOM      3  N   UNL     1      31.972 -22.397 -17.671  0.00  0.00    -0.223 NA
ATOM      4  N   UNL     1      34.041 -21.817 -18.761  0.00  0.00    -0.248 N 
ATOM      5  N   UNL     1      34.685 -20.520 -20.566  0.00  0.00    -0.268 N 
ATOM      6  C   UNL     1      32.646 -23.787 -15.958  0.00  0.00    +0.031 C 
ATOM      7  C   UNL     1      31.612 -23.179 -16.591  0.00  0.00    +0.103 C 
ATOM      8  C   UNL     1      33.277 -22.447 -17.814  0.00  0.00    +0.166 C 
ATOM      9  C   UNL     1      33.591 -20.967 -19.806  0.00  0.00    +0.310 C 
ATOM     10  H   UNL     1      35.013 -21.973 -18.713  0.00  0.00    +0.158 HD
ATOM     11  H   UNL     1      35.570 -20.845 -20.281  0.00  0.00    +0.156 HD
ENDROOT
BRANCH   5  12
ATOM     12  C   UNL     1      34.673 -19.661 -21.690  0.00  0.00    +0.052 C 
ATOM     13  C   UNL     1      34.723 -17.444 -22.607  0.00  0.00    +0.073 C 
ATOM     14  C   UNL     1      34.735 -18.291 -21.498  0.00  0.00    +0.019 C 
ATOM     15  C   UNL     1      34.601 -20.209 -22.960  0.00  0.00    +0.015 C 
ATOM     16  C   UNL     1      34.651 -17.980 -23.893  0.00  0.00    +0.004 C 
ATOM     17  C   UNL     1      34.589 -19.362 -24.069  0.00  0.00    +0.001 C 
BRANCH  13  21
ATOM     18  F   UNL     1      33.635 -15.318 -22.751  0.00  0.00    -0.166 F 
ATOM     19  F   UNL     1      35.050 -15.591 -21.131  0.00  0.00    -0.166 F 
ATOM     20  F   UNL     1      35.767 -15.384 -23.173  0.00  0.00    -0.166 F 
ATOM     21  C   UNL     1      34.791 -15.966 -22.418  0.00  0.00    +0.419 C 
ENDBRANCH  13  21
ENDBRANCH   5  12
BRANCH   6  22
ATOM     22  C   UNL     1      32.612 -24.702 -14.756  0.00  0.00    +0.056 C 
BRANCH  22  23
ATOM     23  C   UNL     1      33.646 -24.321 -13.697  0.00  0.00    +0.093 C 
BRANCH  23  24
ATOM     24  N   UNL     1      34.879 -25.019 -13.908  0.00  0.00    -0.320 N 
ATOM     25  N   UNL     1      37.597 -26.425 -14.264  0.00  0.00    -0.220 N 
ATOM     26  N   UNL     1      38.895 -26.772 -14.171  0.00  0.00    -0.178 NA
ATOM     27  N   UNL     1      36.110 -23.621 -12.409  0.00  0.00    -0.232 NA
ATOM     28  N   UNL     1      38.488 -23.941 -11.979  0.00  0.00    -0.245 NA
ATOM     29  C   UNL     1      37.256 -25.354 -13.490  0.00  0.00    +0.185 C 
ATOM     30  C   UNL     1      36.079 -24.665 -13.268  0.00  0.00    +0.128 C 
ATOM     31  C   UNL     1      38.423 -24.980 -12.845  0.00  0.00    +0.103 C 
ATOM     32  C   UNL     1      39.395 -25.886 -13.303  0.00  0.00    +0.134 C 
ATOM     33  C   UNL     1      36.735 -27.187 -15.137  0.00  0.00    +0.135 C 
ATOM     34  C   UNL     1      37.296 -23.328 -11.825  0.00  0.00    +0.251 C 
ATOM     35  H   UNL     1      34.886 -25.782 -14.529  0.00  0.00    +0.148 HD
ENDBRANCH  23  24
ENDBRANCH  22  23
ENDBRANCH   6  22
TORSDOF 5
ENDMDL
MODEL 3
REMARK VINA RESULT:     -11.9      0.824      1.835
REMARK  Name = 15602701
REMARK  5 active torsions:
REMARK  status: ('A' for Active; 'I' for Inactive)
REMARK    1  A    between atoms: N_5  and  C_12
REMARK    2  A    between atoms: C_6  and  C_22
REMARK    3  A    between atoms: C_13  and  C_21
REMARK    4  A    between atoms: C_22  and  C_23
REMARK    5  A    between atoms: C_23  and  N_24
REMARK                            x       y       z     vdW  Elec       q    Type
REMARK                         _______ _______ _______ _____ _____    ______ ____
ROOT
ATOM      1  S   UNL     1      36.445 -20.668 -19.886  0.00  0.00    -0.056 S 
ATOM      2  O   UNL     1      35.286 -23.358 -16.283  0.00  0.00    -0.252 OA
ATOM      3  N   UNL     1      34.497 -21.909 -18.724  0.00  0.00    -0.223 NA
ATOM      4  N   UNL     1      36.669 -22.087 -17.694  0.00  0.00    -0.248 N 
ATOM      5  N   UNL     1      37.566 -23.125 -15.830  0.00  0.00    -0.268 N 
ATOM      6  C   UNL     1      34.892 -20.579 -20.566  0.00  0.00    +0.031 C 
ATOM      7  C   UNL     1      33.985 -21.279 -19.841  0.00  0.00    +0.103 C 
ATOM      8  C   UNL     1      35.785 -21.656 -18.648  0.00  0.00    +0.166 C 
ATOM      9  C   UNL     1      36.390 -22.907 -16.568  0.00  0.00    +0.310 C 
ATOM     10  H   UNL     1      37.604 -21.795 -17.800  0.00  0.00    +0.158 HD
ATOM     11  H   UNL     1      38.381 -22.697 -16.181  0.00  0.00    +0.156 HD
ENDROOT
BRANCH   5  12
ATOM     12  C   UNL     1      37.723 -23.882 -14.645  0.00  0.00    +0.052 C 
ATOM     13  C   UNL     1      37.098 -24.329 -12.372  0.00  0.00    +0.073 C 
ATOM     14  C   UNL     1      36.943 -23.582 -13.540  0.00  0.00    +0.019 C 
ATOM     15  C   UNL     1      38.653 -24.907 -14.615  0.00  0.00    +0.015 C 
ATOM     16  C   UNL     1      38.030 -25.366 -12.325  0.00  0.00    +0.004 C 
ATOM     17  C   UNL     1      38.808 -25.654 -13.447  0.00  0.00    +0.001 C 
BRANCH  13  21
ATOM     18  F   UNL     1      36.061 -25.097 -10.358  0.00  0.00    -0.166 F 
ATOM     19  F   UNL     1      36.805 -23.060 -10.366  0.00  0.00    -0.166 F 
ATOM     20  F   UNL     1      35.021 -23.567 -11.500  0.00  0.00    -0.166 F 
ATOM     21  C   UNL     1      36.266 -24.021 -11.173  0.00  0.00    +0.419 C 
ENDBRANCH  13  21
ENDBRANCH   5  12
BRANCH   6  22
ATOM     22  C   UNL     1      34.677 -19.780 -21.831  0.00  0.00    +0.056 C 
BRANCH  22  23
ATOM     23  C   UNL     1      35.772 -18.740 -22.064  0.00  0.00    +0.093 C 
BRANCH  23  24
ATOM     24  N   UNL     1      35.247 -17.575 -22.712  0.00  0.00    -0.320 N 
ATOM     25  N   UNL     1      34.105 -15.006 -23.971  0.00  0.00    -0.220 N 
ATOM     26  N   UNL     1      33.590 -13.776 -24.157  0.00  0.00    -0.178 NA
ATOM     27  N   UNL     1      34.931 -16.382 -20.665  0.00  0.00    -0.232 NA
ATOM     28  N   UNL     1      34.020 -14.122 -20.596  0.00  0.00    -0.245 NA
ATOM     29  C   UNL     1      34.336 -15.316 -22.663  0.00  0.00    +0.185 C 
ATOM     30  C   UNL     1      34.840 -16.427 -22.013  0.00  0.00    +0.128 C 
ATOM     31  C   UNL     1      33.942 -14.198 -21.945  0.00  0.00    +0.103 C 
ATOM     32  C   UNL     1      33.493 -13.287 -22.916  0.00  0.00    +0.134 C 
ATOM     33  C   UNL     1      34.348 -15.838 -25.127  0.00  0.00    +0.135 C 
ATOM     34  C   UNL     1      34.521 -15.249 -20.048  0.00  0.00    +0.251 C 
ATOM     35  H   UNL     1      35.169 -17.579 -23.693  0.00  0.00    +0.148 HD
ENDBRANCH  23  24
ENDBRANCH  22  23
ENDBRANCH   6  22
TORSDOF 5
ENDMDL
MODEL 4
REMARK VINA RESULT:     -11.8      3.615      4.267
REMARK  Name = 15602701
REMARK  5 active torsions:
REMARK  status: ('A' for Active; 'I' for Inactive)
REMARK    1  A    between atoms: N_5  and  C_12
REMARK    2  A    between atoms: C_6  and  C_22
REMARK    3  A    between atoms: C_13  and  C_21
REMARK    4  A    between atoms: C_22  and  C_23
REMARK    5  A    between atoms: C_23  and  N_24
REMARK                            x       y       z     vdW  Elec       q    Type
REMARK                         _______ _______ _______ _____ _____    ______ ____
ROOT
ATOM      1  S   UNL     1      35.976 -20.824 -19.980  0.00  0.00    -0.056 S 
ATOM      2  O   UNL     1      32.095 -22.346 -17.934  0.00  0.00    -0.252 OA
ATOM      3  N   UNL     1      33.394 -20.832 -20.102  0.00  0.00    -0.223 NA
ATOM      4  N   UNL     1      34.399 -22.038 -18.274  0.00  0.00    -0.248 N 
ATOM      5  N   UNL     1      33.657 -23.285 -16.472  0.00  0.00    -0.268 N 
ATOM      6  C   UNL     1      35.212 -19.992 -21.246  0.00  0.00    +0.031 C 
ATOM      7  C   UNL     1      33.861 -20.090 -21.170  0.00  0.00    +0.103 C 
ATOM      8  C   UNL     1      34.420 -21.268 -19.407  0.00  0.00    +0.166 C 
ATOM      9  C   UNL     1      33.257 -22.538 -17.593  0.00  0.00    +0.310 C 
ATOM     10  H   UNL     1      35.275 -22.270 -17.887  0.00  0.00    +0.158 HD
ATOM     11  H   UNL     1      34.627 -23.354 -16.322  0.00  0.00    +0.156 HD
ENDROOT
BRANCH   5  12
ATOM     12  C   UNL     1      32.836 -23.952 -15.532  0.00  0.00    +0.052 C 
ATOM     13  C   UNL     1      30.659 -24.670 -14.820  0.00  0.00    +0.073 C 
ATOM     14  C   UNL     1      31.468 -24.012 -15.748  0.00  0.00    +0.019 C 
ATOM     15  C   UNL     1      33.416 -24.531 -14.416  0.00  0.00    +0.015 C 
ATOM     16  C   UNL     1      31.229 -25.258 -13.691  0.00  0.00    +0.004 C 
ATOM     17  C   UNL     1      32.607 -25.188 -13.488  0.00  0.00    +0.001 C 
BRANCH  13  21
ATOM     18  F   UNL     1      28.837 -25.198 -16.278  0.00  0.00    -0.166 F 
ATOM     19  F   UNL     1      28.547 -25.577 -14.163  0.00  0.00    -0.166 F 
ATOM     20  F   UNL     1      28.572 -23.533 -14.904  0.00  0.00    -0.166 F 
ATOM     21  C   UNL     1      29.186 -24.745 -15.037  0.00  0.00    +0.419 C 
ENDBRANCH  13  21
ENDBRANCH   5  12
BRANCH   6  22
ATOM     22  C   UNL     1      36.049 -19.264 -22.273  0.00  0.00    +0.056 C 
BRANCH  22  23
ATOM     23  C   UNL     1      35.201 -18.481 -23.274  0.00  0.00    +0.093 C 
BRANCH  23  24
ATOM     24  N   UNL     1      34.832 -17.201 -22.746  0.00  0.00    -0.320 N 
ATOM     25  N   UNL     1      33.997 -14.409 -21.749  0.00  0.00    -0.220 N 
ATOM     26  N   UNL     1      33.556 -13.138 -21.683  0.00  0.00    -0.178 NA
ATOM     27  N   UNL     1      34.174 -16.335 -24.875  0.00  0.00    -0.232 NA
ATOM     28  N   UNL     1      33.321 -14.068 -25.156  0.00  0.00    -0.245 NA
ATOM     29  C   UNL     1      33.980 -14.934 -23.008  0.00  0.00    +0.185 C 
ATOM     30  C   UNL     1      34.328 -16.159 -23.543  0.00  0.00    +0.128 C 
ATOM     31  C   UNL     1      33.487 -13.925 -23.821  0.00  0.00    +0.103 C 
ATOM     32  C   UNL     1      33.246 -12.848 -22.951  0.00  0.00    +0.134 C 
ATOM     33  C   UNL     1      34.427 -15.058 -20.533  0.00  0.00    +0.135 C 
ATOM     34  C   UNL     1      33.687 -15.293 -25.589  0.00  0.00    +0.251 C 
ATOM     35  H   UNL     1      34.934 -17.045 -21.779  0.00  0.00    +0.148 HD
ENDBRANCH  23  24
ENDBRANCH  22  23
ENDBRANCH   6  22
TORSDOF 5
ENDMDL
MODEL 5
REMARK VINA RESULT:     -11.7      2.077      2.999
REMARK  Name = 15602701
REMARK  5 active torsions:
REMARK  status: ('A' for Active; 'I' for Inactive)
REMARK    1  A    between atoms: N_5  and  C_12
REMARK    2  A    between atoms: C_6  and  C_22
REMARK    3  A    between atoms: C_13  and  C_21
REMARK    4  A    between atoms: C_22  and  C_23
REMARK    5  A    between atoms: C_23  and  N_24
REMARK                            x       y       z     vdW  Elec       q    Type
REMARK                         _______ _______ _______ _____ _____    ______ ____
ROOT
ATOM      1  S   UNL     1      33.924 -21.069 -20.231  0.00  0.00    -0.056 S 
ATOM      2  O   UNL     1      36.768 -22.328 -16.783  0.00  0.00    -0.252 OA
ATOM      3  N   UNL     1      36.329 -20.869 -19.305  0.00  0.00    -0.223 NA
ATOM      4  N   UNL     1      34.776 -22.191 -18.021  0.00  0.00    -0.248 N 
ATOM      5  N   UNL     1      34.833 -23.418 -16.060  0.00  0.00    -0.268 N 
ATOM      6  C   UNL     1      35.061 -20.150 -21.092  0.00  0.00    +0.031 C 
ATOM      7  C   UNL     1      36.271 -20.144 -20.479  0.00  0.00    +0.103 C 
ATOM      8  C   UNL     1      35.149 -21.400 -19.075  0.00  0.00    +0.166 C 
ATOM      9  C   UNL     1      35.586 -22.617 -16.934  0.00  0.00    +0.310 C 
ATOM     10  H   UNL     1      33.841 -22.500 -18.015  0.00  0.00    +0.158 HD
ATOM     11  H   UNL     1      33.892 -23.565 -16.312  0.00  0.00    +0.156 HD
ENDROOT
BRANCH   5  12
ATOM     12  C   UNL     1      35.259 -24.040 -14.862  0.00  0.00    +0.052 C 
ATOM     13  C   UNL     1      36.829 -25.425 -13.690  0.00  0.00    +0.073 C 
ATOM     14  C   UNL     1      36.409 -24.813 -14.871  0.00  0.00    +0.019 C 
ATOM     15  C   UNL     1      34.519 -23.861 -13.705  0.00  0.00    +0.015 C 
ATOM     16  C   UNL     1      36.095 -25.255 -12.516  0.00  0.00    +0.004 C 
ATOM     17  C   UNL     1      34.939 -24.473 -12.524  0.00  0.00    +0.001 C 
BRANCH  13  21
ATOM     18  F   UNL     1      37.873 -27.528 -14.152  0.00  0.00    -0.166 F 
ATOM     19  F   UNL     1      39.076 -25.747 -14.443  0.00  0.00    -0.166 F 
ATOM     20  F   UNL     1      38.589 -26.409 -12.430  0.00  0.00    -0.166 F 
ATOM     21  C   UNL     1      38.065 -26.260 -13.681  0.00  0.00    +0.419 C 
ENDBRANCH  13  21
ENDBRANCH   5  12
BRANCH   6  22
ATOM     22  C   UNL     1      34.651 -19.470 -22.378  0.00  0.00    +0.056 C 
BRANCH  22  23
ATOM     23  C   UNL     1      35.676 -18.440 -22.851  0.00  0.00    +0.093 C 
BRANCH  23  24
ATOM     24  N   UNL     1      35.033 -17.230 -23.273  0.00  0.00    -0.320 N 
ATOM     25  N   UNL     1      33.654 -14.584 -24.038  0.00  0.00    -0.220 N 
ATOM     26  N   UNL     1      33.081 -13.367 -23.998  0.00  0.00    -0.178 NA
ATOM     27  N   UNL     1      34.954 -16.314 -21.067  0.00  0.00    -0.232 NA
ATOM     28  N   UNL     1      33.989 -14.125 -20.595  0.00  0.00    -0.245 NA
ATOM     29  C   UNL     1      34.066 -15.040 -22.821  0.00  0.00    +0.185 C 
ATOM     30  C   UNL     1      34.686 -16.197 -22.387  0.00  0.00    +0.128 C 
ATOM     31  C   UNL     1      33.736 -14.040 -21.921  0.00  0.00    +0.103 C 
ATOM     32  C   UNL     1      33.133 -13.038 -22.702  0.00  0.00    +0.134 C 
ATOM     33  C   UNL     1      33.768 -15.256 -25.312  0.00  0.00    +0.135 C 
ATOM     34  C   UNL     1      34.594 -15.286 -20.263  0.00  0.00    +0.251 C 
ATOM     35  H   UNL     1      34.826 -17.118 -24.229  0.00  0.00    +0.148 HD
ENDBRANCH  23  24
ENDBRANCH  22  23
ENDBRANCH   6  22
TORSDOF 5
ENDMDL
MODEL 6
REMARK VINA RESULT:     -11.5      2.027      2.497
REMARK  Name = 15602701
REMARK  5 active torsions:
REMARK  status: ('A' for Active; 'I' for Inactive)
REMARK    1  A    between atoms: N_5  and  C_12
REMARK    2  A    between atoms: C_6  and  C_22
REMARK    3  A    between atoms: C_13  and  C_21
REMARK    4  A    between atoms: C_22  and  C_23
REMARK    5  A    between atoms: C_23  and  N_24
REMARK                            x       y       z     vdW  Elec       q    Type
REMARK                         _______ _______ _______ _____ _____    ______ ____
ROOT
ATOM      1  S   UNL     1      33.939 -20.962 -20.218  0.00  0.00    -0.056 S 
ATOM      2  O   UNL     1      36.785 -22.377 -16.833  0.00  0.00    -0.252 OA
ATOM      3  N   UNL     1      36.369 -20.884 -19.339  0.00  0.00    -0.223 NA
ATOM      4  N   UNL     1      34.779 -22.137 -18.031  0.00  0.00    -0.248 N 
ATOM      5  N   UNL     1      34.813 -23.377 -16.078  0.00  0.00    -0.268 N 
ATOM      6  C   UNL     1      35.103 -20.093 -21.097  0.00  0.00    +0.031 C 
ATOM      7  C   UNL     1      36.323 -20.150 -20.508  0.00  0.00    +0.103 C 
ATOM      8  C   UNL     1      35.169 -21.359 -19.089  0.00  0.00    +0.166 C 
ATOM      9  C   UNL     1      35.588 -22.608 -16.963  0.00  0.00    +0.310 C 
ATOM     10  H   UNL     1      33.829 -22.401 -18.009  0.00  0.00    +0.158 HD
ATOM     11  H   UNL     1      33.862 -23.477 -16.312  0.00  0.00    +0.156 HD
ENDROOT
BRANCH   5  12
ATOM     12  C   UNL     1      35.231 -24.025 -14.892  0.00  0.00    +0.052 C 
ATOM     13  C   UNL     1      36.850 -25.346 -13.711  0.00  0.00    +0.073 C 
ATOM     14  C   UNL     1      36.438 -24.707 -14.881  0.00  0.00    +0.019 C 
ATOM     15  C   UNL     1      34.428 -23.963 -13.766  0.00  0.00    +0.015 C 
ATOM     16  C   UNL     1      36.052 -25.293 -12.568  0.00  0.00    +0.004 C 
ATOM     17  C   UNL     1      34.840 -24.602 -12.596  0.00  0.00    +0.001 C 
BRANCH  13  21
ATOM     18  F   UNL     1      38.085 -27.322 -14.257  0.00  0.00    -0.166 F 
ATOM     19  F   UNL     1      39.158 -25.438 -14.332  0.00  0.00    -0.166 F 
ATOM     20  F   UNL     1      38.602 -26.293 -12.412  0.00  0.00    -0.166 F 
ATOM     21  C   UNL     1      38.146 -26.084 -13.681  0.00  0.00    +0.419 C 
ENDBRANCH  13  21
ENDBRANCH   5  12
BRANCH   6  22
ATOM     22  C   UNL     1      34.702 -19.387 -22.371  0.00  0.00    +0.056 C 
BRANCH  22  23
ATOM     23  C   UNL     1      35.630 -18.223 -22.715  0.00  0.00    +0.093 C 
BRANCH  23  24
ATOM     24  N   UNL     1      35.069 -16.974 -22.292  0.00  0.00    -0.320 N 
ATOM     25  N   UNL     1      33.820 -14.265 -21.524  0.00  0.00    -0.220 N 
ATOM     26  N   UNL     1      33.202 -13.069 -21.562  0.00  0.00    -0.178 NA
ATOM     27  N   UNL     1      34.351 -16.369 -24.491  0.00  0.00    -0.232 NA
ATOM     28  N   UNL     1      33.193 -14.275 -24.957  0.00  0.00    -0.245 NA
ATOM     29  C   UNL     1      33.911 -14.877 -22.739  0.00  0.00    +0.185 C 
ATOM     30  C   UNL     1      34.444 -16.076 -23.174  0.00  0.00    +0.128 C 
ATOM     31  C   UNL     1      33.302 -14.013 -23.634  0.00  0.00    +0.103 C 
ATOM     32  C   UNL     1      32.887 -12.920 -22.853  0.00  0.00    +0.134 C 
ATOM     33  C   UNL     1      34.306 -14.755 -20.255  0.00  0.00    +0.135 C 
ATOM     34  C   UNL     1      33.740 -15.463 -25.290  0.00  0.00    +0.251 C 
ATOM     35  H   UNL     1      35.122 -16.735 -21.339  0.00  0.00    +0.148 HD
ENDBRANCH  23  24
ENDBRANCH  22  23
ENDBRANCH   6  22
TORSDOF 5
ENDMDL
MODEL 7
REMARK VINA RESULT:     -11.3      7.812     13.607
REMARK  Name = 15602701
REMARK  5 active torsions:
REMARK  status: ('A' for Active; 'I' for Inactive)
REMARK    1  A    between atoms: N_5  and  C_12
REMARK    2  A    between atoms: C_6  and  C_22
REMARK    3  A    between atoms: C_13  and  C_21
REMARK    4  A    between atoms: C_22  and  C_23
REMARK    5  A    between atoms: C_23  and  N_24
REMARK                            x       y       z     vdW  Elec       q    Type
REMARK                         _______ _______ _______ _____ _____    ______ ____
ROOT
ATOM      1  S   UNL     1      34.960 -16.167 -22.092  0.00  0.00    -0.056 S 
ATOM      2  O   UNL     1      33.437 -12.658 -24.724  0.00  0.00    -0.252 OA
ATOM      3  N   UNL     1      34.275 -15.473 -24.486  0.00  0.00    -0.223 NA
ATOM      4  N   UNL     1      34.145 -13.774 -22.782  0.00  0.00    -0.248 N 
ATOM      5  N   UNL     1      33.541 -11.543 -22.674  0.00  0.00    -0.268 N 
ATOM      6  C   UNL     1      35.031 -17.322 -23.334  0.00  0.00    +0.031 C 
ATOM      7  C   UNL     1      34.643 -16.804 -24.526  0.00  0.00    +0.103 C 
ATOM      8  C   UNL     1      34.403 -15.034 -23.254  0.00  0.00    +0.166 C 
ATOM      9  C   UNL     1      33.681 -12.654 -23.523  0.00  0.00    +0.310 C 
ATOM     10  H   UNL     1      34.300 -13.627 -21.820  0.00  0.00    +0.158 HD
ATOM     11  H   UNL     1      33.775 -11.689 -21.729  0.00  0.00    +0.156 HD
ENDROOT
BRANCH   5  12
ATOM     12  C   UNL     1      33.106 -10.239 -23.011  0.00  0.00    +0.052 C 
ATOM     13  C   UNL     1      33.619  -7.982 -23.646  0.00  0.00    +0.073 C 
ATOM     14  C   UNL     1      34.047  -9.268 -23.314  0.00  0.00    +0.019 C 
ATOM     15  C   UNL     1      31.750  -9.961 -23.033  0.00  0.00    +0.015 C 
ATOM     16  C   UNL     1      32.256  -7.686 -23.673  0.00  0.00    +0.004 C 
ATOM     17  C   UNL     1      31.321  -8.676 -23.365  0.00  0.00    +0.001 C 
BRANCH  13  21
ATOM     18  F   UNL     1      35.759  -6.997 -23.228  0.00  0.00    -0.166 F 
ATOM     19  F   UNL     1      35.039  -6.957 -25.274  0.00  0.00    -0.166 F 
ATOM     20  F   UNL     1      34.131  -5.664 -23.780  0.00  0.00    -0.166 F 
ATOM     21  C   UNL     1      34.617  -6.925 -23.976  0.00  0.00    +0.419 C 
ENDBRANCH  13  21
ENDBRANCH   5  12
BRANCH   6  22
ATOM     22  C   UNL     1      35.491 -18.727 -23.021  0.00  0.00    +0.056 C 
BRANCH  22  23
ATOM     23  C   UNL     1      35.889 -18.903 -21.556  0.00  0.00    +0.093 C 
BRANCH  23  24
ATOM     24  N   UNL     1      34.947 -19.732 -20.863  0.00  0.00    -0.320 N 
ATOM     25  N   UNL     1      33.037 -21.569 -19.293  0.00  0.00    -0.220 N 
ATOM     26  N   UNL     1      32.528 -22.481 -18.444  0.00  0.00    -0.178 NA
ATOM     27  N   UNL     1      36.620 -20.778 -19.514  0.00  0.00    -0.232 NA
ATOM     28  N   UNL     1      36.083 -22.484 -17.856  0.00  0.00    -0.245 NA
ATOM     29  C   UNL     1      34.392 -21.433 -19.210  0.00  0.00    +0.185 C 
ATOM     30  C   UNL     1      35.321 -20.645 -19.863  0.00  0.00    +0.128 C 
ATOM     31  C   UNL     1      34.792 -22.326 -18.229  0.00  0.00    +0.103 C 
ATOM     32  C   UNL     1      33.604 -22.941 -17.796  0.00  0.00    +0.134 C 
ATOM     33  C   UNL     1      32.136 -20.858 -20.170  0.00  0.00    +0.135 C 
ATOM     34  C   UNL     1      36.917 -21.677 -18.545  0.00  0.00    +0.251 C 
ATOM     35  H   UNL     1      33.994 -19.656 -21.098  0.00  0.00    +0.148 HD
ENDBRANCH  23  24
ENDBRANCH  22  23
ENDBRANCH   6  22
TORSDOF 5
ENDMDL
MODEL 8
REMARK VINA RESULT:     -11.3      5.723     11.795
REMARK  Name = 15602701
REMARK  5 active torsions:
REMARK  status: ('A' for Active; 'I' for Inactive)
REMARK    1  A    between atoms: N_5  and  C_12
REMARK    2  A    between atoms: C_6  and  C_22
REMARK    3  A    between atoms: C_13  and  C_21
REMARK    4  A    between atoms: C_22  and  C_23
REMARK    5  A    between atoms: C_23  and  N_24
REMARK                            x       y       z     vdW  Elec       q    Type
REMARK                         _______ _______ _______ _____ _____    ______ ____
ROOT
ATOM      1  S   UNL     1      33.785 -23.903 -15.849  0.00  0.00    -0.056 S 
ATOM      2  O   UNL     1      33.010 -21.098 -19.467  0.00  0.00    -0.252 OA
ATOM      3  N   UNL     1      31.956 -22.765 -17.279  0.00  0.00    -0.223 NA
ATOM      4  N   UNL     1      34.245 -22.331 -17.895  0.00  0.00    -0.248 N 
ATOM      5  N   UNL     1      35.346 -21.100 -19.517  0.00  0.00    -0.268 N 
ATOM      6  C   UNL     1      32.155 -24.172 -15.462  0.00  0.00    +0.031 C 
ATOM      7  C   UNL     1      31.322 -23.509 -16.303  0.00  0.00    +0.103 C 
ATOM      8  C   UNL     1      33.256 -22.898 -17.137  0.00  0.00    +0.166 C 
ATOM      9  C   UNL     1      34.087 -21.467 -19.012  0.00  0.00    +0.310 C 
ATOM     10  H   UNL     1      35.172 -22.546 -17.638  0.00  0.00    +0.158 HD
ATOM     11  H   UNL     1      36.125 -21.476 -19.047  0.00  0.00    +0.156 HD
ENDROOT
BRANCH   5  12
ATOM     12  C   UNL     1      35.632 -20.257 -20.617  0.00  0.00    +0.052 C 
ATOM     13  C   UNL     1      35.063 -19.427 -22.795  0.00  0.00    +0.073 C 
ATOM     14  C   UNL     1      34.781 -20.258 -21.711  0.00  0.00    +0.019 C 
ATOM     15  C   UNL     1      36.754 -19.447 -20.576  0.00  0.00    +0.015 C 
ATOM     16  C   UNL     1      36.190 -18.605 -22.770  0.00  0.00    +0.004 C 
ATOM     17  C   UNL     1      37.035 -18.615 -21.660  0.00  0.00    +0.001 C 
BRANCH  13  21
ATOM     18  F   UNL     1      32.839 -19.580 -23.666  0.00  0.00    -0.166 F 
ATOM     19  F   UNL     1      34.210 -18.252 -24.695  0.00  0.00    -0.166 F 
ATOM     20  F   UNL     1      34.448 -20.406 -24.873  0.00  0.00    -0.166 F 
ATOM     21  C   UNL     1      34.158 -19.415 -23.981  0.00  0.00    +0.419 C 
ENDBRANCH  13  21
ENDBRANCH   5  12
BRANCH   6  22
ATOM     22  C   UNL     1      31.802 -25.067 -14.297  0.00  0.00    +0.056 C 
BRANCH  22  23
ATOM     23  C   UNL     1      32.697 -24.829 -13.081  0.00  0.00    +0.093 C 
BRANCH  23  24
ATOM     24  N   UNL     1      34.032 -25.290 -13.326  0.00  0.00    -0.320 N 
ATOM     25  N   UNL     1      36.942 -26.219 -13.720  0.00  0.00    -0.220 N 
ATOM     26  N   UNL     1      38.259 -26.447 -13.559  0.00  0.00    -0.178 NA
ATOM     27  N   UNL     1      34.893 -24.365 -11.296  0.00  0.00    -0.232 NA
ATOM     28  N   UNL     1      37.236 -24.575 -10.656  0.00  0.00    -0.245 NA
ATOM     29  C   UNL     1      36.376 -25.511 -12.701  0.00  0.00    +0.185 C 
ATOM     30  C   UNL     1      35.097 -25.055 -12.441  0.00  0.00    +0.128 C 
ATOM     31  C   UNL     1      37.407 -25.262 -11.809  0.00  0.00    +0.103 C 
ATOM     32  C   UNL     1      38.538 -25.861 -12.390  0.00  0.00    +0.134 C 
ATOM     33  C   UNL     1      36.290 -26.724 -14.906  0.00  0.00    +0.135 C 
ATOM     34  C   UNL     1      35.960 -24.170 -10.486  0.00  0.00    +0.251 C 
ATOM     35  H   UNL     1      34.210 -25.795 -14.152  0.00  0.00    +0.148 HD
ENDBRANCH  23  24
ENDBRANCH  22  23
ENDBRANCH   6  22
TORSDOF 5
ENDMDL
MODEL 9
REMARK VINA RESULT:     -11.0      2.502      3.617
REMARK  Name = 15602701
REMARK  5 active torsions:
REMARK  status: ('A' for Active; 'I' for Inactive)
REMARK    1  A    between atoms: N_5  and  C_12
REMARK    2  A    between atoms: C_6  and  C_22
REMARK    3  A    between atoms: C_13  and  C_21
REMARK    4  A    between atoms: C_22  and  C_23
REMARK    5  A    between atoms: C_23  and  N_24
REMARK                            x       y       z     vdW  Elec       q    Type
REMARK                         _______ _______ _______ _____ _____    ______ ____
ROOT
ATOM      1  S   UNL     1      32.981 -20.517 -20.765  0.00  0.00    -0.056 S 
ATOM      2  O   UNL     1      34.648 -22.947 -17.177  0.00  0.00    -0.252 OA
ATOM      3  N   UNL     1      35.130 -21.432 -19.657  0.00  0.00    -0.223 NA
ATOM      4  N   UNL     1      33.045 -21.917 -18.550  0.00  0.00    -0.248 N 
ATOM      5  N   UNL     1      32.374 -23.049 -16.647  0.00  0.00    -0.268 N 
ATOM      6  C   UNL     1      34.480 -20.207 -21.499  0.00  0.00    +0.031 C 
ATOM      7  C   UNL     1      35.505 -20.753 -20.799  0.00  0.00    +0.103 C 
ATOM      8  C   UNL     1      33.822 -21.374 -19.538  0.00  0.00    +0.166 C 
ATOM      9  C   UNL     1      33.480 -22.670 -17.427  0.00  0.00    +0.310 C 
ATOM     10  H   UNL     1      32.073 -21.770 -18.627  0.00  0.00    +0.158 HD
ATOM     11  H   UNL     1      31.494 -22.754 -16.973  0.00  0.00    +0.156 HD
ENDROOT
BRANCH   5  12
ATOM     12  C   UNL     1      32.371 -23.803 -15.449  0.00  0.00    +0.052 C 
ATOM     13  C   UNL     1      33.526 -24.627 -13.514  0.00  0.00    +0.073 C 
ATOM     14  C   UNL     1      33.530 -23.883 -14.695  0.00  0.00    +0.019 C 
ATOM     15  C   UNL     1      31.208 -24.444 -15.056  0.00  0.00    +0.015 C 
ATOM     16  C   UNL     1      32.363 -25.278 -13.104  0.00  0.00    +0.004 C 
ATOM     17  C   UNL     1      31.204 -25.188 -13.875  0.00  0.00    +0.001 C 
BRANCH  13  21
ATOM     18  F   UNL     1      35.348 -23.515 -12.432  0.00  0.00    -0.166 F 
ATOM     19  F   UNL     1      34.561 -25.287 -11.462  0.00  0.00    -0.166 F 
ATOM     20  F   UNL     1      35.734 -25.478 -13.282  0.00  0.00    -0.166 F 
ATOM     21  C   UNL     1      34.764 -24.723 -12.689  0.00  0.00    +0.419 C 
ENDBRANCH  13  21
ENDBRANCH   5  12
BRANCH   6  22
ATOM     22  C   UNL     1      34.532 -19.407 -22.780  0.00  0.00    +0.056 C 
BRANCH  22  23
ATOM     23  C   UNL     1      35.533 -18.254 -22.714  0.00  0.00    +0.093 C 
BRANCH  23  24
ATOM     24  N   UNL     1      34.953 -17.040 -23.207  0.00  0.00    -0.320 N 
ATOM     25  N   UNL     1      33.706 -14.377 -24.125  0.00  0.00    -0.220 N 
ATOM     26  N   UNL     1      33.177 -13.139 -24.153  0.00  0.00    -0.178 NA
ATOM     27  N   UNL     1      34.820 -16.037 -21.041  0.00  0.00    -0.232 NA
ATOM     28  N   UNL     1      33.920 -13.799 -20.690  0.00  0.00    -0.245 NA
ATOM     29  C   UNL     1      34.052 -14.801 -22.875  0.00  0.00    +0.185 C 
ATOM     30  C   UNL     1      34.610 -15.962 -22.374  0.00  0.00    +0.128 C 
ATOM     31  C   UNL     1      33.723 -13.755 -22.028  0.00  0.00    +0.103 C 
ATOM     32  C   UNL     1      33.190 -12.764 -22.870  0.00  0.00    +0.134 C 
ATOM     33  C   UNL     1      33.846 -15.101 -25.367  0.00  0.00    +0.135 C 
ATOM     34  C   UNL     1      34.467 -14.966 -20.291  0.00  0.00    +0.251 C 
ATOM     35  H   UNL     1      34.788 -16.957 -24.174  0.00  0.00    +0.148 HD
ENDBRANCH  23  24
ENDBRANCH  22  23
ENDBRANCH   6  22
TORSDOF 5
ENDMDL
