MODEL 1
REMARK VINA RESULT:     -13.3      0.000      0.000
REMARK  Name = 24794406
REMARK  5 active torsions:
REMARK  status: ('A' for Active; 'I' for Inactive)
REMARK    1  A    between atoms: C_1  and  S_24
REMARK    2  A    between atoms: C_2  and  N_8
REMARK    3  A    between atoms: C_9  and  C_11
REMARK    4  A    between atoms: C_12  and  N_18
REMARK    5  A    between atoms: S_24  and  N_28
REMARK                            x       y       z     vdW  Elec       q    Type
REMARK                         _______ _______ _______ _____ _____    ______ ____
ROOT
ATOM      1  C   UNL     1      32.476 -24.324 -14.214  0.00  0.00    +0.139 C 
ATOM      2  C   UNL     1      31.719 -23.922 -15.314  0.00  0.00    +0.070 C 
ATOM      3  C   UNL     1      31.872 -25.031 -13.173  0.00  0.00    +0.021 C 
ATOM      4  C   UNL     1      30.359 -24.227 -15.375  0.00  0.00    +0.016 C 
ATOM      5  C   UNL     1      30.512 -25.337 -13.235  0.00  0.00    +0.001 C 
ATOM      6  C   UNL     1      29.756 -24.935 -14.336  0.00  0.00    +0.001 C 
ENDROOT
BRANCH   2   8
ATOM      7  O   UNL     1      33.576 -24.842 -17.481  0.00  0.00    -0.270 OA
ATOM      8  N   UNL     1      32.307 -23.202 -16.383  0.00  0.00    -0.279 N 
ATOM      9  C   UNL     1      33.174 -23.672 -17.380  0.00  0.00    +0.250 C 
ATOM     10  H   UNL     1      32.077 -22.246 -16.433  0.00  0.00    +0.155 HD
BRANCH   9  11
ATOM     11  C   UNL     1      33.639 -22.680 -18.336  0.00  0.00    +0.054 C 
ATOM     12  C   UNL     1      34.527 -20.776 -20.172  0.00  0.00    +0.058 C 
ATOM     13  C   UNL     1      32.724 -21.826 -18.953  0.00  0.00    +0.006 C 
ATOM     14  C   UNL     1      34.996 -22.582 -18.638  0.00  0.00    +0.006 C 
ATOM     15  C   UNL     1      33.169 -20.874 -19.871  0.00  0.00    +0.015 C 
ATOM     16  C   UNL     1      35.441 -21.631 -19.556  0.00  0.00    +0.015 C 
BRANCH  12  18
ATOM     17  O   UNL     1      36.958 -19.228 -19.929  0.00  0.00    -0.269 OA
ATOM     18  N   UNL     1      34.989 -19.787 -21.126  0.00  0.00    -0.233 N 
ATOM     19  C   UNL     1      36.223 -19.120 -20.912  0.00  0.00    +0.257 C 
ATOM     20  C   UNL     1      34.216 -19.466 -22.244  0.00  0.00    +0.072 C 
ATOM     21  C   UNL     1      36.648 -18.149 -21.967  0.00  0.00    +0.059 C 
ATOM     22  C   UNL     1      34.603 -18.568 -23.158  0.00  0.00    +0.017 C 
ATOM     23  C   UNL     1      35.860 -17.897 -23.014  0.00  0.00    +0.006 C 
ENDBRANCH  12  18
ENDBRANCH   9  11
ENDBRANCH   2   8
BRANCH   1  24
ATOM     24  S   UNL     1      34.186 -23.961 -14.099  0.00  0.00    +0.076 S 
ATOM     25  O   UNL     1      34.565 -24.074 -12.697  0.00  0.00    -0.150 OA
ATOM     26  O   UNL     1      34.439 -22.711 -14.801  0.00  0.00    -0.150 OA
BRANCH  24  28
ATOM     27 CL   UNL     1      40.599 -26.309 -13.920  0.00  0.00    -0.081 Cl
ATOM     28  N   UNL     1      34.906 -25.267 -14.959  0.00  0.00    -0.199 N 
ATOM     29  N   UNL     1      37.100 -24.499 -14.504  0.00  0.00    -0.227 NA
ATOM     30  C   UNL     1      36.292 -25.563 -14.709  0.00  0.00    +0.147 C 
ATOM     31  C   UNL     1      36.722 -26.880 -14.688  0.00  0.00    +0.036 C 
ATOM     32  C   UNL     1      38.069 -27.120 -14.440  0.00  0.00    +0.016 C 
ATOM     33  C   UNL     1      38.402 -24.772 -14.267  0.00  0.00    +0.112 C 
ATOM     34  C   UNL     1      38.932 -26.051 -14.225  0.00  0.00    +0.077 C 
ATOM     35  H   UNL     1      34.385 -25.796 -15.605  0.00  0.00    +0.175 HD
ENDBRANCH  24  28
ENDBRANCH   1  24
TORSDOF 5
ENDMDL
MODEL 2
REMARK VINA RESULT:     -11.3      3.422      5.755
REMARK  Name = 24794406
REMARK  5 active torsions:
REMARK  status: ('A' for Active; 'I' for Inactive)
REMARK    1  A    between atoms: C_1  and  S_24
REMARK    2  A    between atoms: C_2  and  N_8
REMARK    3  A    between atoms: C_9  and  C_11
REMARK    4  A    between atoms: C_12  and  N_18
REMARK    5  A    between atoms: S_24  and  N_28
REMARK                            x       y       z     vdW  Elec       q    Type
REMARK                         _______ _______ _______ _____ _____    ______ ____
ROOT
ATOM      1  C   UNL     1      34.843 -23.522 -16.099  0.00  0.00    +0.139 C 
ATOM      2  C   UNL     1      35.831 -22.612 -16.474  0.00  0.00    +0.070 C 
ATOM      3  C   UNL     1      35.035 -24.342 -14.987  0.00  0.00    +0.021 C 
ATOM      4  C   UNL     1      37.013 -22.523 -15.738  0.00  0.00    +0.016 C 
ATOM      5  C   UNL     1      36.216 -24.252 -14.250  0.00  0.00    +0.001 C 
ATOM      6  C   UNL     1      37.205 -23.342 -14.626  0.00  0.00    +0.001 C 
ENDROOT
BRANCH   2   8
ATOM      7  O   UNL     1      37.267 -22.581 -19.106  0.00  0.00    -0.270 OA
ATOM      8  N   UNL     1      35.662 -21.769 -17.599  0.00  0.00    -0.279 N 
ATOM      9  C   UNL     1      36.358 -21.787 -18.817  0.00  0.00    +0.250 C 
ATOM     10  H   UNL     1      34.965 -21.078 -17.516  0.00  0.00    +0.155 HD
BRANCH   9  11
ATOM     11  C   UNL     1      35.976 -20.768 -19.781  0.00  0.00    +0.054 C 
ATOM     12  C   UNL     1      35.244 -18.811 -21.629  0.00  0.00    +0.058 C 
ATOM     13  C   UNL     1      36.929 -19.869 -20.259  0.00  0.00    +0.006 C 
ATOM     14  C   UNL     1      34.657 -20.687 -20.227  0.00  0.00    +0.006 C 
ATOM     15  C   UNL     1      36.563 -18.890 -21.183  0.00  0.00    +0.015 C 
ATOM     16  C   UNL     1      34.291 -19.709 -21.150  0.00  0.00    +0.015 C 
BRANCH  12  18
ATOM     17  O   UNL     1      34.277 -19.320 -24.307  0.00  0.00    -0.269 OA
ATOM     18  N   UNL     1      34.864 -17.794 -22.591  0.00  0.00    -0.233 N 
ATOM     19  C   UNL     1      34.365 -18.174 -23.863  0.00  0.00    +0.257 C 
ATOM     20  C   UNL     1      35.007 -16.438 -22.283  0.00  0.00    +0.072 C 
ATOM     21  C   UNL     1      33.952 -17.064 -24.777  0.00  0.00    +0.059 C 
ATOM     22  C   UNL     1      34.662 -15.463 -23.131  0.00  0.00    +0.017 C 
ATOM     23  C   UNL     1      34.112 -15.790 -24.412  0.00  0.00    +0.006 C 
ENDBRANCH  12  18
ENDBRANCH   9  11
ENDBRANCH   2   8
BRANCH   1  24
ATOM     24  S   UNL     1      33.346 -23.665 -16.997  0.00  0.00    +0.076 S 
ATOM     25  O   UNL     1      33.603 -24.522 -18.147  0.00  0.00    -0.150 OA
ATOM     26  O   UNL     1      32.811 -22.329 -17.218  0.00  0.00    -0.150 OA
BRANCH  24  28
ATOM     27 CL   UNL     1      26.793 -22.617 -15.370  0.00  0.00    -0.081 Cl
ATOM     28  N   UNL     1      32.331 -24.523 -15.903  0.00  0.00    -0.199 N 
ATOM     29  N   UNL     1      30.748 -22.763 -15.821  0.00  0.00    -0.227 NA
ATOM     30  C   UNL     1      30.963 -24.096 -15.768  0.00  0.00    +0.147 C 
ATOM     31  C   UNL     1      29.962 -25.038 -15.597  0.00  0.00    +0.036 C 
ATOM     32  C   UNL     1      28.653 -24.581 -15.473  0.00  0.00    +0.016 C 
ATOM     33  C   UNL     1      29.464 -22.357 -15.697  0.00  0.00    +0.112 C 
ATOM     34  C   UNL     1      28.392 -23.216 -15.523  0.00  0.00    +0.077 C 
ATOM     35  H   UNL     1      32.676 -25.283 -15.382  0.00  0.00    +0.175 HD
ENDBRANCH  24  28
ENDBRANCH   1  24
TORSDOF 5
ENDMDL
MODEL 3
REMARK VINA RESULT:     -11.1      3.369      5.686
REMARK  Name = 24794406
REMARK  5 active torsions:
REMARK  status: ('A' for Active; 'I' for Inactive)
REMARK    1  A    between atoms: C_1  and  S_24
REMARK    2  A    between atoms: C_2  and  N_8
REMARK    3  A    between atoms: C_9  and  C_11
REMARK    4  A    between atoms: C_12  and  N_18
REMARK    5  A    between atoms: S_24  and  N_28
REMARK                            x       y       z     vdW  Elec       q    Type
REMARK                         _______ _______ _______ _____ _____    ______ ____
ROOT
ATOM      1  C   UNL     1      34.971 -23.596 -16.135  0.00  0.00    +0.139 C 
ATOM      2  C   UNL     1      35.974 -22.719 -16.547  0.00  0.00    +0.070 C 
ATOM      3  C   UNL     1      35.209 -24.485 -15.086  0.00  0.00    +0.021 C 
ATOM      4  C   UNL     1      37.215 -22.731 -15.911  0.00  0.00    +0.016 C 
ATOM      5  C   UNL     1      36.450 -24.495 -14.450  0.00  0.00    +0.001 C 
ATOM      6  C   UNL     1      37.453 -23.618 -14.862  0.00  0.00    +0.001 C 
ENDROOT
BRANCH   2   8
ATOM      7  O   UNL     1      35.921 -23.174 -19.510  0.00  0.00    -0.270 OA
ATOM      8  N   UNL     1      35.759 -21.807 -17.609  0.00  0.00    -0.279 N 
ATOM      9  C   UNL     1      35.742 -22.062 -18.989  0.00  0.00    +0.250 C 
ATOM     10  H   UNL     1      35.601 -20.872 -17.346  0.00  0.00    +0.155 HD
BRANCH   9  11
ATOM     11  C   UNL     1      35.522 -20.908 -19.844  0.00  0.00    +0.054 C 
ATOM     12  C   UNL     1      35.100 -18.691 -21.484  0.00  0.00    +0.058 C 
ATOM     13  C   UNL     1      36.597 -20.102 -20.219  0.00  0.00    +0.006 C 
ATOM     14  C   UNL     1      34.236 -20.603 -20.289  0.00  0.00    +0.006 C 
ATOM     15  C   UNL     1      36.386 -18.994 -21.039  0.00  0.00    +0.015 C 
ATOM     16  C   UNL     1      34.024 -19.496 -21.109  0.00  0.00    +0.015 C 
BRANCH  12  18
ATOM     17  O   UNL     1      34.830 -15.960 -20.570  0.00  0.00    -0.269 OA
ATOM     18  N   UNL     1      34.880 -17.539 -22.337  0.00  0.00    -0.233 N 
ATOM     19  C   UNL     1      34.804 -16.241 -21.769  0.00  0.00    +0.257 C 
ATOM     20  C   UNL     1      34.719 -17.698 -23.716  0.00  0.00    +0.072 C 
ATOM     21  C   UNL     1      34.623 -15.104 -22.723  0.00  0.00    +0.059 C 
ATOM     22  C   UNL     1      34.524 -16.667 -24.546  0.00  0.00    +0.017 C 
ATOM     23  C   UNL     1      34.482 -15.332 -24.031  0.00  0.00    +0.006 C 
ENDBRANCH  12  18
ENDBRANCH   9  11
ENDBRANCH   2   8
BRANCH   1  24
ATOM     24  S   UNL     1      33.398 -23.613 -16.907  0.00  0.00    +0.076 S 
ATOM     25  O   UNL     1      33.465 -24.552 -18.018  0.00  0.00    -0.150 OA
ATOM     26  O   UNL     1      32.999 -22.238 -17.168  0.00  0.00    -0.150 OA
BRANCH  24  28
ATOM     27 CL   UNL     1      26.705 -22.783 -15.813  0.00  0.00    -0.081 Cl
ATOM     28  N   UNL     1      32.388 -24.290 -15.689  0.00  0.00    -0.199 N 
ATOM     29  N   UNL     1      30.680 -22.694 -16.065  0.00  0.00    -0.227 NA
ATOM     30  C   UNL     1      30.988 -23.960 -15.707  0.00  0.00    +0.147 C 
ATOM     31  C   UNL     1      30.049 -24.921 -15.369  0.00  0.00    +0.036 C 
ATOM     32  C   UNL     1      28.706 -24.559 -15.401  0.00  0.00    +0.016 C 
ATOM     33  C   UNL     1      29.365 -22.379 -16.085  0.00  0.00    +0.112 C 
ATOM     34  C   UNL     1      28.350 -23.265 -15.765  0.00  0.00    +0.077 C 
ATOM     35  H   UNL     1      32.758 -24.886 -14.998  0.00  0.00    +0.175 HD
ENDBRANCH  24  28
ENDBRANCH   1  24
TORSDOF 5
ENDMDL
MODEL 4
REMARK VINA RESULT:     -10.8      1.805      2.327
REMARK  Name = 24794406
REMARK  5 active torsions:
REMARK  status: ('A' for Active; 'I' for Inactive)
REMARK    1  A    between atoms: C_1  and  S_24
REMARK    2  A    between atoms: C_2  and  N_8
REMARK    3  A    between atoms: C_9  and  C_11
REMARK    4  A    between atoms: C_12  and  N_18
REMARK    5  A    between atoms: S_24  and  N_28
REMARK                            x       y       z     vdW  Elec       q    Type
REMARK                         _______ _______ _______ _____ _____    ______ ____
ROOT
ATOM      1  C   UNL     1      32.332 -24.232 -14.926  0.00  0.00    +0.139 C 
ATOM      2  C   UNL     1      31.554 -23.737 -15.972  0.00  0.00    +0.070 C 
ATOM      3  C   UNL     1      31.753 -25.042 -13.949  0.00  0.00    +0.021 C 
ATOM      4  C   UNL     1      30.197 -24.049 -16.041  0.00  0.00    +0.016 C 
ATOM      5  C   UNL     1      30.395 -25.355 -14.018  0.00  0.00    +0.001 C 
ATOM      6  C   UNL     1      29.617 -24.859 -15.065  0.00  0.00    +0.001 C 
ENDROOT
BRANCH   2   8
ATOM      7  O   UNL     1      33.468 -24.407 -18.181  0.00  0.00    -0.270 OA
ATOM      8  N   UNL     1      32.118 -22.912 -16.977  0.00  0.00    -0.279 N 
ATOM      9  C   UNL     1      33.014 -23.267 -17.996  0.00  0.00    +0.250 C 
ATOM     10  H   UNL     1      31.845 -21.967 -16.957  0.00  0.00    +0.155 HD
BRANCH   9  11
ATOM     11  C   UNL     1      33.441 -22.185 -18.869  0.00  0.00    +0.054 C 
ATOM     12  C   UNL     1      34.262 -20.110 -20.543  0.00  0.00    +0.058 C 
ATOM     13  C   UNL     1      34.794 -22.021 -19.164  0.00  0.00    +0.006 C 
ATOM     14  C   UNL     1      32.499 -21.311 -19.411  0.00  0.00    +0.006 C 
ATOM     15  C   UNL     1      35.205 -20.983 -20.001  0.00  0.00    +0.015 C 
ATOM     16  C   UNL     1      32.909 -20.274 -20.247  0.00  0.00    +0.015 C 
BRANCH  12  18
ATOM     17  O   UNL     1      34.573 -20.301 -23.412  0.00  0.00    -0.269 OA
ATOM     18  N   UNL     1      34.689 -19.031 -21.413  0.00  0.00    -0.233 N 
ATOM     19  C   UNL     1      34.764 -19.241 -22.814  0.00  0.00    +0.257 C 
ATOM     20  C   UNL     1      35.050 -17.791 -20.881  0.00  0.00    +0.072 C 
ATOM     21  C   UNL     1      35.168 -18.063 -23.644  0.00  0.00    +0.059 C 
ATOM     22  C   UNL     1      35.441 -16.763 -21.641  0.00  0.00    +0.017 C 
ATOM     23  C   UNL     1      35.493 -16.905 -23.065  0.00  0.00    +0.006 C 
ENDBRANCH  12  18
ENDBRANCH   9  11
ENDBRANCH   2   8
BRANCH   1  24
ATOM     24  S   UNL     1      34.040 -23.863 -14.804  0.00  0.00    +0.076 S 
ATOM     25  O   UNL     1      34.199 -22.436 -15.047  0.00  0.00    -0.150 OA
ATOM     26  O   UNL     1      34.776 -24.807 -15.633  0.00  0.00    -0.150 OA
BRANCH  24  28
ATOM     27 CL   UNL     1      39.960 -23.577 -11.404  0.00  0.00    -0.081 Cl
ATOM     28  N   UNL     1      34.373 -24.168 -13.143  0.00  0.00    -0.199 N 
ATOM     29  N   UNL     1      36.698 -24.395 -13.538  0.00  0.00    -0.227 NA
ATOM     30  C   UNL     1      35.727 -24.008 -12.681  0.00  0.00    +0.147 C 
ATOM     31  C   UNL     1      35.967 -23.482 -11.422  0.00  0.00    +0.036 C 
ATOM     32  C   UNL     1      37.291 -23.343 -11.017  0.00  0.00    +0.016 C 
ATOM     33  C   UNL     1      37.971 -24.245 -13.110  0.00  0.00    +0.112 C 
ATOM     34  C   UNL     1      38.318 -23.730 -11.872  0.00  0.00    +0.077 C 
ATOM     35  H   UNL     1      33.659 -24.444 -12.526  0.00  0.00    +0.175 HD
ENDBRANCH  24  28
ENDBRANCH   1  24
TORSDOF 5
ENDMDL
MODEL 5
REMARK VINA RESULT:     -10.8     11.388     17.036
REMARK  Name = 24794406
REMARK  5 active torsions:
REMARK  status: ('A' for Active; 'I' for Inactive)
REMARK    1  A    between atoms: C_1  and  S_24
REMARK    2  A    between atoms: C_2  and  N_8
REMARK    3  A    between atoms: C_9  and  C_11
REMARK    4  A    between atoms: C_12  and  N_18
REMARK    5  A    between atoms: S_24  and  N_28
REMARK                            x       y       z     vdW  Elec       q    Type
REMARK                         _______ _______ _______ _____ _____    ______ ____
ROOT
ATOM      1  C   UNL     1      32.975  -6.870 -22.862  0.00  0.00    +0.139 C 
ATOM      2  C   UNL     1      32.509  -7.844 -21.980  0.00  0.00    +0.070 C 
ATOM      3  C   UNL     1      32.694  -5.524 -22.627  0.00  0.00    +0.021 C 
ATOM      4  C   UNL     1      31.759  -7.473 -20.864  0.00  0.00    +0.016 C 
ATOM      5  C   UNL     1      31.945  -5.153 -21.509  0.00  0.00    +0.001 C 
ATOM      6  C   UNL     1      31.479  -6.128 -20.627  0.00  0.00    +0.001 C 
ENDROOT
BRANCH   2   8
ATOM      7  O   UNL     1      30.639 -10.129 -22.502  0.00  0.00    -0.270 OA
ATOM      8  N   UNL     1      32.779  -9.218 -22.196  0.00  0.00    -0.279 N 
ATOM      9  C   UNL     1      31.871 -10.259 -22.437  0.00  0.00    +0.250 C 
ATOM     10  H   UNL     1      33.729  -9.476 -22.173  0.00  0.00    +0.155 HD
BRANCH   9  11
ATOM     11  C   UNL     1      32.452 -11.583 -22.594  0.00  0.00    +0.054 C 
ATOM     12  C   UNL     1      33.566 -14.123 -22.892  0.00  0.00    +0.058 C 
ATOM     13  C   UNL     1      32.146 -12.590 -21.679  0.00  0.00    +0.006 C 
ATOM     14  C   UNL     1      33.316 -11.846 -23.657  0.00  0.00    +0.006 C 
ATOM     15  C   UNL     1      32.703 -13.861 -21.829  0.00  0.00    +0.015 C 
ATOM     16  C   UNL     1      33.873 -13.115 -23.806  0.00  0.00    +0.015 C 
BRANCH  12  18
ATOM     17  O   UNL     1      33.396 -15.753 -25.276  0.00  0.00    -0.269 OA
ATOM     18  N   UNL     1      34.145 -15.443 -23.048  0.00  0.00    -0.233 N 
ATOM     19  C   UNL     1      34.025 -16.127 -24.285  0.00  0.00    +0.257 C 
ATOM     20  C   UNL     1      34.801 -16.060 -21.980  0.00  0.00    +0.072 C 
ATOM     21  C   UNL     1      34.691 -17.464 -24.375  0.00  0.00    +0.059 C 
ATOM     22  C   UNL     1      35.360 -17.271 -22.075  0.00  0.00    +0.017 C 
ATOM     23  C   UNL     1      35.306 -17.988 -23.314  0.00  0.00    +0.006 C 
ENDBRANCH  12  18
ENDBRANCH   9  11
ENDBRANCH   2   8
BRANCH   1  24
ATOM     24  S   UNL     1      33.919  -7.293 -24.276  0.00  0.00    +0.076 S 
ATOM     25  O   UNL     1      33.000  -7.398 -25.401  0.00  0.00    -0.150 OA
ATOM     26  O   UNL     1      34.761  -8.433 -23.943  0.00  0.00    -0.150 OA
BRANCH  24  28
ATOM     27 CL   UNL     1      36.682  -4.788 -30.000  0.00  0.00    -0.081 Cl
ATOM     28  N   UNL     1      34.898  -5.897 -24.508  0.00  0.00    -0.199 N 
ATOM     29  N   UNL     1      35.645  -6.639 -26.629  0.00  0.00    -0.227 NA
ATOM     30  C   UNL     1      35.330  -5.584 -25.844  0.00  0.00    +0.147 C 
ATOM     31  C   UNL     1      35.402  -4.263 -26.253  0.00  0.00    +0.036 C 
ATOM     32  C   UNL     1      35.823  -4.007 -27.554  0.00  0.00    +0.016 C 
ATOM     33  C   UNL     1      36.050  -6.351 -27.886  0.00  0.00    +0.112 C 
ATOM     34  C   UNL     1      36.155  -5.066 -28.392  0.00  0.00    +0.077 C 
ATOM     35  H   UNL     1      35.156  -5.328 -23.747  0.00  0.00    +0.175 HD
ENDBRANCH  24  28
ENDBRANCH   1  24
TORSDOF 5
ENDMDL
MODEL 6
REMARK VINA RESULT:     -10.7      3.223      5.349
REMARK  Name = 24794406
REMARK  5 active torsions:
REMARK  status: ('A' for Active; 'I' for Inactive)
REMARK    1  A    between atoms: C_1  and  S_24
REMARK    2  A    between atoms: C_2  and  N_8
REMARK    3  A    between atoms: C_9  and  C_11
REMARK    4  A    between atoms: C_12  and  N_18
REMARK    5  A    between atoms: S_24  and  N_28
REMARK                            x       y       z     vdW  Elec       q    Type
REMARK                         _______ _______ _______ _____ _____    ______ ____
ROOT
ATOM      1  C   UNL     1      34.964 -24.280 -12.647  0.00  0.00    +0.139 C 
ATOM      2  C   UNL     1      35.978 -23.435 -13.095  0.00  0.00    +0.070 C 
ATOM      3  C   UNL     1      35.012 -24.803 -11.354  0.00  0.00    +0.021 C 
ATOM      4  C   UNL     1      37.042 -23.113 -12.252  0.00  0.00    +0.016 C 
ATOM      5  C   UNL     1      36.075 -24.480 -10.510  0.00  0.00    +0.001 C 
ATOM      6  C   UNL     1      37.090 -23.634 -10.960  0.00  0.00    +0.001 C 
ENDROOT
BRANCH   2   8
ATOM      7  O   UNL     1      38.012 -23.586 -15.294  0.00  0.00    -0.270 OA
ATOM      8  N   UNL     1      35.955 -22.891 -14.403  0.00  0.00    -0.279 N 
ATOM      9  C   UNL     1      36.931 -22.985 -15.405  0.00  0.00    +0.250 C 
ATOM     10  H   UNL     1      35.147 -22.380 -14.640  0.00  0.00    +0.155 HD
BRANCH   9  11
ATOM     11  C   UNL     1      36.632 -22.293 -16.648  0.00  0.00    +0.054 C 
ATOM     12  C   UNL     1      36.060 -20.961 -19.032  0.00  0.00    +0.058 C 
ATOM     13  C   UNL     1      37.414 -21.208 -17.046  0.00  0.00    +0.006 C 
ATOM     14  C   UNL     1      35.565 -22.710 -17.442  0.00  0.00    +0.006 C 
ATOM     15  C   UNL     1      37.127 -20.542 -18.239  0.00  0.00    +0.015 C 
ATOM     16  C   UNL     1      35.278 -22.045 -18.633  0.00  0.00    +0.015 C 
BRANCH  12  18
ATOM     17  O   UNL     1      37.818 -19.094 -20.368  0.00  0.00    -0.269 OA
ATOM     18  N   UNL     1      35.762 -20.270 -20.272  0.00  0.00    -0.233 N 
ATOM     19  C   UNL     1      36.728 -19.405 -20.849  0.00  0.00    +0.257 C 
ATOM     20  C   UNL     1      34.521 -20.429 -20.892  0.00  0.00    +0.072 C 
ATOM     21  C   UNL     1      36.358 -18.768 -22.151  0.00  0.00    +0.059 C 
ATOM     22  C   UNL     1      34.201 -19.822 -22.040  0.00  0.00    +0.017 C 
ATOM     23  C   UNL     1      35.154 -18.972 -22.689  0.00  0.00    +0.006 C 
ENDBRANCH  12  18
ENDBRANCH   9  11
ENDBRANCH   2   8
BRANCH   1  24
ATOM     24  S   UNL     1      33.612 -24.709 -13.674  0.00  0.00    +0.076 S 
ATOM     25  O   UNL     1      32.819 -25.704 -12.965  0.00  0.00    -0.150 OA
ATOM     26  O   UNL     1      34.123 -25.028 -15.000  0.00  0.00    -0.150 OA
BRANCH  24  28
ATOM     27 CL   UNL     1      27.777 -23.308 -16.942  0.00  0.00    -0.081 Cl
ATOM     28  N   UNL     1      32.708 -23.246 -13.738  0.00  0.00    -0.199 N 
ATOM     29  N   UNL     1      31.485 -23.956 -15.637  0.00  0.00    -0.227 NA
ATOM     30  C   UNL     1      31.483 -23.235 -14.494  0.00  0.00    +0.147 C 
ATOM     31  C   UNL     1      30.395 -22.513 -14.032  0.00  0.00    +0.036 C 
ATOM     32  C   UNL     1      29.231 -22.533 -14.793  0.00  0.00    +0.016 C 
ATOM     33  C   UNL     1      30.336 -23.951 -16.351  0.00  0.00    +0.112 C 
ATOM     34  C   UNL     1      29.193 -23.263 -15.976  0.00  0.00    +0.077 C 
ATOM     35  H   UNL     1      33.020 -22.438 -13.271  0.00  0.00    +0.175 HD
ENDBRANCH  24  28
ENDBRANCH   1  24
TORSDOF 5
ENDMDL
MODEL 7
REMARK VINA RESULT:     -10.6     11.425     17.115
REMARK  Name = 24794406
REMARK  5 active torsions:
REMARK  status: ('A' for Active; 'I' for Inactive)
REMARK    1  A    between atoms: C_1  and  S_24
REMARK    2  A    between atoms: C_2  and  N_8
REMARK    3  A    between atoms: C_9  and  C_11
REMARK    4  A    between atoms: C_12  and  N_18
REMARK    5  A    between atoms: S_24  and  N_28
REMARK                            x       y       z     vdW  Elec       q    Type
REMARK                         _______ _______ _______ _____ _____    ______ ____
ROOT
ATOM      1  C   UNL     1      33.343  -6.890 -22.910  0.00  0.00    +0.139 C 
ATOM      2  C   UNL     1      32.602  -7.846 -22.216  0.00  0.00    +0.070 C 
ATOM      3  C   UNL     1      33.071  -5.533 -22.732  0.00  0.00    +0.021 C 
ATOM      4  C   UNL     1      31.588  -7.447 -21.346  0.00  0.00    +0.016 C 
ATOM      5  C   UNL     1      32.057  -5.134 -21.861  0.00  0.00    +0.001 C 
ATOM      6  C   UNL     1      31.316  -6.091 -21.167  0.00  0.00    +0.001 C 
ENDROOT
BRANCH   2   8
ATOM      7  O   UNL     1      30.701 -10.154 -22.438  0.00  0.00    -0.270 OA
ATOM      8  N   UNL     1      32.857  -9.230 -22.379  0.00  0.00    -0.279 N 
ATOM      9  C   UNL     1      31.935 -10.282 -22.478  0.00  0.00    +0.250 C 
ATOM     10  H   UNL     1      33.806  -9.488 -22.427  0.00  0.00    +0.155 HD
BRANCH   9  11
ATOM     11  C   UNL     1      32.504 -11.614 -22.612  0.00  0.00    +0.054 C 
ATOM     12  C   UNL     1      33.595 -14.168 -22.873  0.00  0.00    +0.058 C 
ATOM     13  C   UNL     1      33.433 -11.876 -23.619  0.00  0.00    +0.006 C 
ATOM     14  C   UNL     1      32.120 -12.629 -21.737  0.00  0.00    +0.006 C 
ATOM     15  C   UNL     1      33.978 -13.153 -23.750  0.00  0.00    +0.015 C 
ATOM     16  C   UNL     1      32.665 -13.906 -21.867  0.00  0.00    +0.015 C 
BRANCH  12  18
ATOM     17  O   UNL     1      33.366 -15.854 -25.212  0.00  0.00    -0.269 OA
ATOM     18  N   UNL     1      34.163 -15.495 -23.008  0.00  0.00    -0.233 N 
ATOM     19  C   UNL     1      34.013 -16.208 -24.225  0.00  0.00    +0.257 C 
ATOM     20  C   UNL     1      34.836 -16.090 -21.938  0.00  0.00    +0.072 C 
ATOM     21  C   UNL     1      34.668 -17.551 -24.296  0.00  0.00    +0.059 C 
ATOM     22  C   UNL     1      35.385 -17.308 -22.015  0.00  0.00    +0.017 C 
ATOM     23  C   UNL     1      35.302 -18.054 -23.235  0.00  0.00    +0.006 C 
ENDBRANCH  12  18
ENDBRANCH   9  11
ENDBRANCH   2   8
BRANCH   1  24
ATOM     24  S   UNL     1      34.625  -7.351 -24.012  0.00  0.00    +0.076 S 
ATOM     25  O   UNL     1      35.045  -8.699 -23.657  0.00  0.00    -0.150 OA
ATOM     26  O   UNL     1      35.616  -6.285 -24.036  0.00  0.00    -0.150 OA
BRANCH  24  28
ATOM     27 CL   UNL     1      34.887  -3.059 -29.322  0.00  0.00    -0.081 Cl
ATOM     28  N   UNL     1      33.811  -7.421 -25.527  0.00  0.00    -0.199 N 
ATOM     29  N   UNL     1      34.239  -5.137 -25.986  0.00  0.00    -0.227 NA
ATOM     30  C   UNL     1      34.072  -6.381 -26.487  0.00  0.00    +0.147 C 
ATOM     31  C   UNL     1      34.139  -6.690 -27.836  0.00  0.00    +0.036 C 
ATOM     32  C   UNL     1      34.395  -5.654 -28.729  0.00  0.00    +0.016 C 
ATOM     33  C   UNL     1      34.486  -4.157 -26.883  0.00  0.00    +0.112 C 
ATOM     34  C   UNL     1      34.573  -4.360 -28.251  0.00  0.00    +0.077 C 
ATOM     35  H   UNL     1      33.184  -8.151 -25.732  0.00  0.00    +0.175 HD
ENDBRANCH  24  28
ENDBRANCH   1  24
TORSDOF 5
ENDMDL
MODEL 8
REMARK VINA RESULT:     -10.5      3.097      5.490
REMARK  Name = 24794406
REMARK  5 active torsions:
REMARK  status: ('A' for Active; 'I' for Inactive)
REMARK    1  A    between atoms: C_1  and  S_24
REMARK    2  A    between atoms: C_2  and  N_8
REMARK    3  A    between atoms: C_9  and  C_11
REMARK    4  A    between atoms: C_12  and  N_18
REMARK    5  A    between atoms: S_24  and  N_28
REMARK                            x       y       z     vdW  Elec       q    Type
REMARK                         _______ _______ _______ _____ _____    ______ ____
ROOT
ATOM      1  C   UNL     1      35.302 -23.175 -16.342  0.00  0.00    +0.139 C 
ATOM      2  C   UNL     1      36.299 -22.356 -16.871  0.00  0.00    +0.070 C 
ATOM      3  C   UNL     1      35.594 -24.034 -15.282  0.00  0.00    +0.021 C 
ATOM      4  C   UNL     1      37.588 -22.395 -16.340  0.00  0.00    +0.016 C 
ATOM      5  C   UNL     1      36.883 -24.072 -14.751  0.00  0.00    +0.001 C 
ATOM      6  C   UNL     1      37.880 -23.252 -15.280  0.00  0.00    +0.001 C 
ENDROOT
BRANCH   2   8
ATOM      7  O   UNL     1      37.180 -22.471 -19.734  0.00  0.00    -0.270 OA
ATOM      8  N   UNL     1      36.029 -21.476 -17.948  0.00  0.00    -0.279 N 
ATOM      9  C   UNL     1      36.464 -21.566 -19.278  0.00  0.00    +0.250 C 
ATOM     10  H   UNL     1      35.464 -20.698 -17.734  0.00  0.00    +0.155 HD
BRANCH   9  11
ATOM     11  C   UNL     1      36.044 -20.486 -20.157  0.00  0.00    +0.054 C 
ATOM     12  C   UNL     1      35.235 -18.417 -21.844  0.00  0.00    +0.058 C 
ATOM     13  C   UNL     1      34.715 -20.406 -20.576  0.00  0.00    +0.006 C 
ATOM     14  C   UNL     1      36.967 -19.532 -20.582  0.00  0.00    +0.006 C 
ATOM     15  C   UNL     1      34.311 -19.371 -21.419  0.00  0.00    +0.015 C 
ATOM     16  C   UNL     1      36.564 -18.498 -21.426  0.00  0.00    +0.015 C 
BRANCH  12  18
ATOM     17  O   UNL     1      34.279 -18.744 -24.554  0.00  0.00    -0.269 OA
ATOM     18  N   UNL     1      34.816 -17.340 -22.720  0.00  0.00    -0.233 N 
ATOM     19  C   UNL     1      34.327 -17.635 -24.019  0.00  0.00    +0.257 C 
ATOM     20  C   UNL     1      34.911 -16.010 -22.305  0.00  0.00    +0.072 C 
ATOM     21  C   UNL     1      33.872 -16.471 -24.841  0.00  0.00    +0.059 C 
ATOM     22  C   UNL     1      34.528 -14.983 -23.071  0.00  0.00    +0.017 C 
ATOM     23  C   UNL     1      33.987 -15.225 -24.375  0.00  0.00    +0.006 C 
ENDBRANCH  12  18
ENDBRANCH   9  11
ENDBRANCH   2   8
BRANCH   1  24
ATOM     24  S   UNL     1      33.670 -23.156 -16.980  0.00  0.00    +0.076 S 
ATOM     25  O   UNL     1      33.311 -24.529 -17.309  0.00  0.00    -0.150 OA
ATOM     26  O   UNL     1      33.594 -22.138 -18.018  0.00  0.00    -0.150 OA
BRANCH  24  28
ATOM     27 CL   UNL     1      28.538 -26.363 -13.808  0.00  0.00    -0.081 Cl
ATOM     28  N   UNL     1      32.739 -22.667 -15.618  0.00  0.00    -0.199 N 
ATOM     29  N   UNL     1      31.035 -24.246 -16.078  0.00  0.00    -0.227 NA
ATOM     30  C   UNL     1      31.720 -23.560 -15.135  0.00  0.00    +0.147 C 
ATOM     31  C   UNL     1      31.492 -23.675 -13.773  0.00  0.00    +0.036 C 
ATOM     32  C   UNL     1      30.498 -24.552 -13.351  0.00  0.00    +0.016 C 
ATOM     33  C   UNL     1      30.078 -25.089 -15.630  0.00  0.00    +0.112 C 
ATOM     34  C   UNL     1      29.773 -25.276 -14.291  0.00  0.00    +0.077 C 
ATOM     35  H   UNL     1      32.899 -21.799 -15.181  0.00  0.00    +0.175 HD
ENDBRANCH  24  28
ENDBRANCH   1  24
TORSDOF 5
ENDMDL
