MODEL 1
REMARK VINA RESULT:     -11.6      0.000      0.000
REMARK  Name = 60854
REMARK  3 active torsions:
REMARK  status: ('A' for Active; 'I' for Inactive)
REMARK    1  A    between atoms: N_2  and  C_17
REMARK    2  A    between atoms: C_17  and  C_18
REMARK    3  A    between atoms: C_18  and  C_22
REMARK                            x       y       z     vdW  Elec       q    Type
REMARK                         _______ _______ _______ _____ _____    ______ ____
ROOT
ATOM      1  S   UNL     1      32.505  -9.642 -23.301  0.00  0.00    +0.014 S 
ATOM      2  N   UNL     1      34.484 -15.931 -23.527  0.00  0.00    +0.389 N 
ATOM      3  N   UNL     1      33.437 -13.315 -23.056  0.00  0.00    -0.297 N 
ATOM      4  N   UNL     1      33.098 -11.079 -23.873  0.00  0.00    -0.194 NA
ATOM      5  C   UNL     1      34.445 -15.379 -22.167  0.00  0.00    -0.055 C 
ATOM      6  C   UNL     1      33.333 -15.442 -24.296  0.00  0.00    -0.055 C 
ATOM      7  C   UNL     1      34.494 -13.849 -22.192  0.00  0.00    +0.069 C 
ATOM      8  C   UNL     1      33.347 -13.915 -24.393  0.00  0.00    +0.069 C 
ATOM      9  C   UNL     1      33.018 -11.989 -22.901  0.00  0.00    +0.140 A 
ATOM     10  C   UNL     1      32.469 -11.557 -21.644  0.00  0.00    +0.040 A 
ATOM     11  C   UNL     1      32.122 -10.207 -21.722  0.00  0.00    +0.050 A 
ATOM     12  C   UNL     1      32.243 -12.241 -20.430  0.00  0.00    +0.003 C 
ATOM     13  C   UNL     1      31.559  -9.515 -20.638  0.00  0.00    +0.008 C 
ATOM     14  C   UNL     1      31.684 -11.561 -19.343  0.00  0.00    +0.000 C 
ATOM     15  C   UNL     1      31.347 -10.215 -19.448  0.00  0.00    +0.001 C 
ATOM     16  H   UNL     1      35.341 -15.621 -23.983  0.00  0.00    -0.080 HD
ENDROOT
BRANCH   2  17
ATOM     17  C   UNL     1      34.490 -17.393 -23.487  0.00  0.00    -0.072 C 
BRANCH  17  18
ATOM     18  C   UNL     1      35.818 -17.919 -22.942  0.00  0.00    +0.004 C 
BRANCH  18  22
ATOM     19 CL   UNL     1      38.305 -18.933 -21.441  0.00  0.00    -0.083 Cl
ATOM     20  O   UNL     1      32.628 -22.593 -18.344  0.00  0.00    -0.274 OA
ATOM     21  N   UNL     1      34.725 -21.724 -18.959  0.00  0.00    -0.284 N 
ATOM     22  C   UNL     1      35.604 -18.944 -21.856  0.00  0.00    -0.014 C 
ATOM     23  C   UNL     1      34.100 -20.297 -20.616  0.00  0.00    +0.000 C 
ATOM     24  C   UNL     1      34.297 -19.358 -21.611  0.00  0.00    -0.006 C 
ATOM     25  C   UNL     1      35.179 -20.801 -19.894  0.00  0.00    +0.048 C 
ATOM     26  C   UNL     1      36.688 -19.454 -21.128  0.00  0.00    +0.055 C 
ATOM     27  C   UNL     1      32.835 -20.927 -20.130  0.00  0.00    +0.113 C 
ATOM     28  C   UNL     1      36.480 -20.402 -20.124  0.00  0.00    +0.025 C 
ATOM     29  C   UNL     1      33.334 -21.865 -19.026  0.00  0.00    +0.231 C 
ATOM     30  H   UNL     1      35.304 -22.214 -18.332  0.00  0.00    +0.155 HD
ENDBRANCH  18  22
ENDBRANCH  17  18
ENDBRANCH   2  17
TORSDOF 3
ENDMDL
MODEL 2
REMARK VINA RESULT:     -11.3      4.995     10.327
REMARK  Name = 60854
REMARK  3 active torsions:
REMARK  status: ('A' for Active; 'I' for Inactive)
REMARK    1  A    between atoms: N_2  and  C_17
REMARK    2  A    between atoms: C_17  and  C_18
REMARK    3  A    between atoms: C_18  and  C_22
REMARK                            x       y       z     vdW  Elec       q    Type
REMARK                         _______ _______ _______ _____ _____    ______ ____
ROOT
ATOM      1  S   UNL     1      35.733 -24.813 -14.280  0.00  0.00    +0.014 S 
ATOM      2  N   UNL     1      34.660 -21.514 -19.890  0.00  0.00    +0.389 N 
ATOM      3  N   UNL     1      34.750 -22.774 -17.328  0.00  0.00    -0.297 N 
ATOM      4  N   UNL     1      35.990 -24.103 -15.754  0.00  0.00    -0.194 NA
ATOM      5  C   UNL     1      33.431 -22.028 -19.271  0.00  0.00    -0.055 C 
ATOM      6  C   UNL     1      35.572 -21.021 -18.852  0.00  0.00    -0.055 C 
ATOM      7  C   UNL     1      33.740 -23.180 -18.311  0.00  0.00    +0.069 C 
ATOM      8  C   UNL     1      35.954 -22.139 -17.880  0.00  0.00    +0.069 C 
ATOM      9  C   UNL     1      34.871 -23.479 -16.125  0.00  0.00    +0.140 A 
ATOM     10  C   UNL     1      33.751 -23.552 -15.226  0.00  0.00    +0.040 A 
ATOM     11  C   UNL     1      34.101 -24.300 -14.100  0.00  0.00    +0.050 A 
ATOM     12  C   UNL     1      32.445 -23.021 -15.302  0.00  0.00    +0.003 C 
ATOM     13  C   UNL     1      33.201 -24.537 -13.050  0.00  0.00    +0.008 C 
ATOM     14  C   UNL     1      31.540 -23.252 -14.261  0.00  0.00    +0.000 C 
ATOM     15  C   UNL     1      31.915 -24.000 -13.150  0.00  0.00    +0.001 C 
ATOM     16  H   UNL     1      35.115 -22.273 -20.397  0.00  0.00    -0.080 HD
ENDROOT
BRANCH   2  17
ATOM     17  C   UNL     1      34.345 -20.451 -20.845  0.00  0.00    -0.072 C 
BRANCH  17  18
ATOM     18  C   UNL     1      35.537 -19.510 -21.027  0.00  0.00    +0.004 C 
BRANCH  18  22
ATOM     19 CL   UNL     1      34.929 -20.027 -23.999  0.00  0.00    -0.083 Cl
ATOM     20  O   UNL     1      34.102 -12.690 -23.168  0.00  0.00    -0.274 OA
ATOM     21  N   UNL     1      34.227 -14.901 -23.956  0.00  0.00    -0.284 N 
ATOM     22  C   UNL     1      35.176 -18.319 -21.880  0.00  0.00    -0.014 C 
ATOM     23  C   UNL     1      34.814 -15.980 -22.042  0.00  0.00    +0.000 C 
ATOM     24  C   UNL     1      35.144 -17.071 -21.261  0.00  0.00    -0.006 C 
ATOM     25  C   UNL     1      34.526 -16.138 -23.395  0.00  0.00    +0.048 C 
ATOM     26  C   UNL     1      34.887 -18.474 -23.242  0.00  0.00    +0.055 C 
ATOM     27  C   UNL     1      34.699 -14.536 -21.671  0.00  0.00    +0.113 C 
ATOM     28  C   UNL     1      34.553 -17.366 -24.024  0.00  0.00    +0.025 C 
ATOM     29  C   UNL     1      34.305 -13.882 -23.000  0.00  0.00    +0.231 C 
ATOM     30  H   UNL     1      33.992 -14.761 -24.902  0.00  0.00    +0.155 HD
ENDBRANCH  18  22
ENDBRANCH  17  18
ENDBRANCH   2  17
TORSDOF 3
ENDMDL
MODEL 3
REMARK VINA RESULT:     -11.1      1.598      2.331
REMARK  Name = 60854
REMARK  3 active torsions:
REMARK  status: ('A' for Active; 'I' for Inactive)
REMARK    1  A    between atoms: N_2  and  C_17
REMARK    2  A    between atoms: C_17  and  C_18
REMARK    3  A    between atoms: C_18  and  C_22
REMARK                            x       y       z     vdW  Elec       q    Type
REMARK                         _______ _______ _______ _____ _____    ______ ____
ROOT
ATOM      1  S   UNL     1      30.839 -10.019 -22.123  0.00  0.00    +0.014 S 
ATOM      2  N   UNL     1      34.293 -15.638 -22.057  0.00  0.00    +0.389 N 
ATOM      3  N   UNL     1      33.171 -13.015 -22.187  0.00  0.00    -0.297 N 
ATOM      4  N   UNL     1      31.258 -11.597 -21.850  0.00  0.00    -0.194 NA
ATOM      5  C   UNL     1      34.748 -14.685 -23.076  0.00  0.00    -0.055 C 
ATOM      6  C   UNL     1      33.938 -14.921 -20.826  0.00  0.00    -0.055 C 
ATOM      7  C   UNL     1      33.652 -13.669 -23.408  0.00  0.00    +0.069 C 
ATOM      8  C   UNL     1      32.814 -13.914 -21.083  0.00  0.00    +0.069 C 
ATOM      9  C   UNL     1      32.509 -11.784 -22.274  0.00  0.00    +0.140 A 
ATOM     10  C   UNL     1      33.184 -10.650 -22.842  0.00  0.00    +0.040 A 
ATOM     11  C   UNL     1      32.336  -9.540 -22.824  0.00  0.00    +0.050 A 
ATOM     12  C   UNL     1      34.481 -10.496 -23.377  0.00  0.00    +0.003 C 
ATOM     13  C   UNL     1      32.731  -8.287 -23.318  0.00  0.00    +0.008 C 
ATOM     14  C   UNL     1      34.885  -9.251 -23.873  0.00  0.00    +0.000 C 
ATOM     15  C   UNL     1      34.020  -8.163 -23.842  0.00  0.00    +0.001 C 
ATOM     16  H   UNL     1      33.467 -16.124 -22.406  0.00  0.00    -0.080 HD
ENDROOT
BRANCH   2  17
ATOM     17  C   UNL     1      35.329 -16.635 -21.788  0.00  0.00    -0.072 C 
BRANCH  17  18
ATOM     18  C   UNL     1      34.983 -17.973 -22.442  0.00  0.00    +0.004 C 
BRANCH  18  22
ATOM     19 CL   UNL     1      37.806 -18.810 -21.548  0.00  0.00    -0.083 Cl
ATOM     20  O   UNL     1      33.249 -23.412 -17.906  0.00  0.00    -0.274 OA
ATOM     21  N   UNL     1      35.084 -22.239 -18.790  0.00  0.00    -0.284 N 
ATOM     22  C   UNL     1      35.091 -19.113 -21.460  0.00  0.00    -0.014 C 
ATOM     23  C   UNL     1      34.006 -20.750 -20.130  0.00  0.00    +0.000 C 
ATOM     24  C   UNL     1      33.907 -19.706 -21.029  0.00  0.00    -0.006 C 
ATOM     25  C   UNL     1      35.250 -21.183 -19.681  0.00  0.00    +0.048 C 
ATOM     26  C   UNL     1      36.343 -19.552 -21.007  0.00  0.00    +0.055 C 
ATOM     27  C   UNL     1      32.931 -21.574 -19.496  0.00  0.00    +0.113 C 
ATOM     28  C   UNL     1      36.433 -20.608 -20.097  0.00  0.00    +0.025 C 
ATOM     29  C   UNL     1      33.729 -22.543 -18.617  0.00  0.00    +0.231 C 
ATOM     30  H   UNL     1      35.823 -22.710 -18.341  0.00  0.00    +0.155 HD
ENDBRANCH  18  22
ENDBRANCH  17  18
ENDBRANCH   2  17
TORSDOF 3
ENDMDL
MODEL 4
REMARK VINA RESULT:     -10.7      1.307      1.795
REMARK  Name = 60854
REMARK  3 active torsions:
REMARK  status: ('A' for Active; 'I' for Inactive)
REMARK    1  A    between atoms: N_2  and  C_17
REMARK    2  A    between atoms: C_17  and  C_18
REMARK    3  A    between atoms: C_18  and  C_22
REMARK                            x       y       z     vdW  Elec       q    Type
REMARK                         _______ _______ _______ _____ _____    ______ ____
ROOT
ATOM      1  S   UNL     1      33.091 -11.247 -23.998  0.00  0.00    +0.014 S 
ATOM      2  N   UNL     1      35.378 -17.361 -23.055  0.00  0.00    +0.389 N 
ATOM      3  N   UNL     1      34.135 -14.791 -23.121  0.00  0.00    -0.297 N 
ATOM      4  N   UNL     1      33.853 -12.693 -24.263  0.00  0.00    -0.194 NA
ATOM      5  C   UNL     1      35.051 -16.661 -21.806  0.00  0.00    -0.055 C 
ATOM      6  C   UNL     1      34.375 -17.048 -24.079  0.00  0.00    -0.055 C 
ATOM      7  C   UNL     1      35.030 -15.145 -22.015  0.00  0.00    +0.069 C 
ATOM      8  C   UNL     1      34.333 -15.545 -24.365  0.00  0.00    +0.069 C 
ATOM      9  C   UNL     1      33.630 -13.489 -23.216  0.00  0.00    +0.140 A 
ATOM     10  C   UNL     1      32.829 -12.956 -22.147  0.00  0.00    +0.040 A 
ATOM     11  C   UNL     1      32.438 -11.651 -22.458  0.00  0.00    +0.050 A 
ATOM     12  C   UNL     1      32.407 -13.509 -20.919  0.00  0.00    +0.003 C 
ATOM     13  C   UNL     1      31.645 -10.881 -21.594  0.00  0.00    +0.008 C 
ATOM     14  C   UNL     1      31.616 -12.750 -20.050  0.00  0.00    +0.000 C 
ATOM     15  C   UNL     1      31.241 -11.454 -20.385  0.00  0.00    +0.001 C 
ATOM     16  H   UNL     1      36.291 -17.046 -23.379  0.00  0.00    -0.080 HD
ENDROOT
BRANCH   2  17
ATOM     17  C   UNL     1      35.447 -18.805 -22.829  0.00  0.00    -0.072 C 
BRANCH  17  18
ATOM     18  C   UNL     1      34.244 -19.291 -22.020  0.00  0.00    +0.004 C 
BRANCH  18  22
ATOM     19 CL   UNL     1      37.208 -19.192 -21.198  0.00  0.00    -0.083 Cl
ATOM     20  O   UNL     1      34.104 -23.984 -16.442  0.00  0.00    -0.274 OA
ATOM     21  N   UNL     1      35.546 -22.583 -17.661  0.00  0.00    -0.284 N 
ATOM     22  C   UNL     1      34.671 -20.149 -20.855  0.00  0.00    -0.014 C 
ATOM     23  C   UNL     1      34.084 -21.711 -19.169  0.00  0.00    +0.000 C 
ATOM     24  C   UNL     1      33.694 -20.925 -20.236  0.00  0.00    -0.006 C 
ATOM     25  C   UNL     1      35.409 -21.718 -18.740  0.00  0.00    +0.048 C 
ATOM     26  C   UNL     1      36.004 -20.158 -20.422  0.00  0.00    +0.055 C 
ATOM     27  C   UNL     1      33.278 -22.637 -18.316  0.00  0.00    +0.113 C 
ATOM     28  C   UNL     1      36.389 -20.956 -19.342  0.00  0.00    +0.025 C 
ATOM     29  C   UNL     1      34.323 -23.180 -17.335  0.00  0.00    +0.231 C 
ATOM     30  H   UNL     1      36.392 -22.754 -17.188  0.00  0.00    +0.155 HD
ENDBRANCH  18  22
ENDBRANCH  17  18
ENDBRANCH   2  17
TORSDOF 3
ENDMDL
MODEL 5
REMARK VINA RESULT:     -10.6      4.201      6.538
REMARK  Name = 60854
REMARK  3 active torsions:
REMARK  status: ('A' for Active; 'I' for Inactive)
REMARK    1  A    between atoms: N_2  and  C_17
REMARK    2  A    between atoms: C_17  and  C_18
REMARK    3  A    between atoms: C_18  and  C_22
REMARK                            x       y       z     vdW  Elec       q    Type
REMARK                         _______ _______ _______ _____ _____    ______ ____
ROOT
ATOM      1  S   UNL     1      31.193  -3.898 -22.617  0.00  0.00    +0.014 S 
ATOM      2  N   UNL     1      31.759 -10.460 -22.263  0.00  0.00    +0.389 N 
ATOM      3  N   UNL     1      31.849  -7.638 -22.688  0.00  0.00    -0.297 N 
ATOM      4  N   UNL     1      31.016  -5.460 -22.096  0.00  0.00    -0.194 NA
ATOM      5  C   UNL     1      32.069  -9.919 -23.592  0.00  0.00    -0.055 C 
ATOM      6  C   UNL     1      32.291  -9.570 -21.225  0.00  0.00    -0.055 C 
ATOM      7  C   UNL     1      31.448  -8.532 -23.779  0.00  0.00    +0.069 C 
ATOM      8  C   UNL     1      31.676  -8.173 -21.332  0.00  0.00    +0.069 C 
ATOM      9  C   UNL     1      31.770  -6.251 -22.863  0.00  0.00    +0.140 A 
ATOM     10  C   UNL     1      32.525  -5.620 -23.911  0.00  0.00    +0.040 A 
ATOM     11  C   UNL     1      32.292  -4.243 -23.895  0.00  0.00    +0.050 A 
ATOM     12  C   UNL     1      33.403  -6.142 -24.885  0.00  0.00    +0.003 C 
ATOM     13  C   UNL     1      32.901  -3.370 -24.810  0.00  0.00    +0.008 C 
ATOM     14  C   UNL     1      34.015  -5.281 -25.802  0.00  0.00    +0.000 C 
ATOM     15  C   UNL     1      33.765  -3.914 -25.763  0.00  0.00    +0.001 C 
ATOM     16  H   UNL     1      30.747 -10.520 -22.160  0.00  0.00    -0.080 HD
ENDROOT
BRANCH   2  17
ATOM     17  C   UNL     1      32.313 -11.807 -22.117  0.00  0.00    -0.072 C 
BRANCH  17  18
ATOM     18  C   UNL     1      33.168 -12.181 -23.328  0.00  0.00    +0.004 C 
BRANCH  18  22
ATOM     19 CL   UNL     1      33.310 -13.807 -25.936  0.00  0.00    -0.083 Cl
ATOM     20  O   UNL     1      35.735 -18.473 -20.687  0.00  0.00    -0.274 OA
ATOM     21  N   UNL     1      35.063 -17.428 -22.683  0.00  0.00    -0.284 N 
ATOM     22  C   UNL     1      33.668 -13.601 -23.235  0.00  0.00    -0.014 C 
ATOM     23  C   UNL     1      34.488 -15.375 -21.890  0.00  0.00    +0.000 C 
ATOM     24  C   UNL     1      34.030 -14.075 -21.975  0.00  0.00    -0.006 C 
ATOM     25  C   UNL     1      34.580 -16.171 -23.029  0.00  0.00    +0.048 C 
ATOM     26  C   UNL     1      33.761 -14.404 -24.379  0.00  0.00    +0.055 C 
ATOM     27  C   UNL     1      34.943 -16.154 -20.698  0.00  0.00    +0.113 C 
ATOM     28  C   UNL     1      34.226 -15.718 -24.283  0.00  0.00    +0.025 C 
ATOM     29  C   UNL     1      35.309 -17.512 -21.308  0.00  0.00    +0.231 C 
ATOM     30  H   UNL     1      35.212 -18.162 -23.321  0.00  0.00    +0.155 HD
ENDBRANCH  18  22
ENDBRANCH  17  18
ENDBRANCH   2  17
TORSDOF 3
ENDMDL
MODEL 6
REMARK VINA RESULT:     -10.6      4.174      6.562
REMARK  Name = 60854
REMARK  3 active torsions:
REMARK  status: ('A' for Active; 'I' for Inactive)
REMARK    1  A    between atoms: N_2  and  C_17
REMARK    2  A    between atoms: C_17  and  C_18
REMARK    3  A    between atoms: C_18  and  C_22
REMARK                            x       y       z     vdW  Elec       q    Type
REMARK                         _______ _______ _______ _____ _____    ______ ____
ROOT
ATOM      1  S   UNL     1      34.177 -16.908 -24.707  0.00  0.00    +0.014 S 
ATOM      2  N   UNL     1      36.315 -20.878 -19.893  0.00  0.00    +0.389 N 
ATOM      3  N   UNL     1      35.334 -18.865 -21.666  0.00  0.00    -0.297 N 
ATOM      4  N   UNL     1      34.634 -18.273 -23.889  0.00  0.00    -0.194 NA
ATOM      5  C   UNL     1      36.680 -19.470 -19.694  0.00  0.00    -0.055 C 
ATOM      6  C   UNL     1      34.955 -20.968 -20.438  0.00  0.00    -0.055 C 
ATOM      7  C   UNL     1      36.638 -18.699 -21.016  0.00  0.00    +0.069 C 
ATOM      8  C   UNL     1      34.856 -20.248 -21.785  0.00  0.00    +0.069 C 
ATOM      9  C   UNL     1      34.915 -17.939 -22.628  0.00  0.00    +0.140 A 
ATOM     10  C   UNL     1      34.771 -16.554 -22.271  0.00  0.00    +0.040 A 
ATOM     11  C   UNL     1      34.346 -15.823 -23.382  0.00  0.00    +0.050 A 
ATOM     12  C   UNL     1      34.980 -15.869 -21.054  0.00  0.00    +0.003 C 
ATOM     13  C   UNL     1      34.121 -14.439 -23.326  0.00  0.00    +0.008 C 
ATOM     14  C   UNL     1      34.759 -14.489 -20.988  0.00  0.00    +0.000 C 
ATOM     15  C   UNL     1      34.335 -13.786 -22.110  0.00  0.00    +0.001 C 
ATOM     16  H   UNL     1      36.965 -21.296 -20.557  0.00  0.00    -0.080 HD
ENDROOT
BRANCH   2  17
ATOM     17  C   UNL     1      36.412 -21.616 -18.633  0.00  0.00    -0.072 C 
BRANCH  17  18
ATOM     18  C   UNL     1      35.123 -22.387 -18.350  0.00  0.00    +0.004 C 
BRANCH  18  22
ATOM     19 CL   UNL     1      32.336 -23.092 -17.252  0.00  0.00    -0.083 Cl
ATOM     20  O   UNL     1      36.914 -24.019 -11.474  0.00  0.00    -0.274 OA
ATOM     21  N   UNL     1      35.079 -23.883 -12.937  0.00  0.00    -0.284 N 
ATOM     22  C   UNL     1      35.031 -22.799 -16.902  0.00  0.00    -0.014 C 
ATOM     23  C   UNL     1      36.129 -23.208 -14.839  0.00  0.00    +0.000 C 
ATOM     24  C   UNL     1      36.213 -22.831 -16.165  0.00  0.00    -0.006 C 
ATOM     25  C   UNL     1      34.901 -23.542 -14.274  0.00  0.00    +0.048 C 
ATOM     26  C   UNL     1      33.796 -23.135 -16.330  0.00  0.00    +0.055 C 
ATOM     27  C   UNL     1      37.205 -23.336 -13.809  0.00  0.00    +0.113 C 
ATOM     28  C   UNL     1      33.721 -23.516 -14.988  0.00  0.00    +0.025 C 
ATOM     29  C   UNL     1      36.426 -23.789 -12.569  0.00  0.00    +0.231 C 
ATOM     30  H   UNL     1      34.354 -24.155 -12.330  0.00  0.00    +0.155 HD
ENDBRANCH  18  22
ENDBRANCH  17  18
ENDBRANCH   2  17
TORSDOF 3
ENDMDL
MODEL 7
REMARK VINA RESULT:     -10.6      6.090     11.508
REMARK  Name = 60854
REMARK  3 active torsions:
REMARK  status: ('A' for Active; 'I' for Inactive)
REMARK    1  A    between atoms: N_2  and  C_17
REMARK    2  A    between atoms: C_17  and  C_18
REMARK    3  A    between atoms: C_18  and  C_22
REMARK                            x       y       z     vdW  Elec       q    Type
REMARK                         _______ _______ _______ _____ _____    ______ ____
ROOT
ATOM      1  S   UNL     1      35.317 -24.919 -11.754  0.00  0.00    +0.014 S 
ATOM      2  N   UNL     1      34.273 -22.224 -17.683  0.00  0.00    +0.389 N 
ATOM      3  N   UNL     1      35.073 -23.572 -15.296  0.00  0.00    -0.297 N 
ATOM      4  N   UNL     1      34.568 -24.156 -13.018  0.00  0.00    -0.194 NA
ATOM      5  C   UNL     1      35.696 -22.346 -17.339  0.00  0.00    -0.055 C 
ATOM      6  C   UNL     1      33.546 -23.413 -17.223  0.00  0.00    -0.055 C 
ATOM      7  C   UNL     1      35.886 -22.473 -15.826  0.00  0.00    +0.069 C 
ATOM      8  C   UNL     1      33.663 -23.574 -15.705  0.00  0.00    +0.069 C 
ATOM      9  C   UNL     1      35.400 -24.144 -14.061  0.00  0.00    +0.140 A 
ATOM     10  C   UNL     1      36.688 -24.757 -13.877  0.00  0.00    +0.040 A 
ATOM     11  C   UNL     1      36.790 -25.257 -12.577  0.00  0.00    +0.050 A 
ATOM     12  C   UNL     1      37.787 -24.919 -14.748  0.00  0.00    +0.003 C 
ATOM     13  C   UNL     1      37.942 -25.910 -12.115  0.00  0.00    +0.008 C 
ATOM     14  C   UNL     1      38.941 -25.568 -14.297  0.00  0.00    +0.000 C 
ATOM     15  C   UNL     1      39.015 -26.057 -12.997  0.00  0.00    +0.001 C 
ATOM     16  H   UNL     1      33.891 -21.402 -17.217  0.00  0.00    -0.080 HD
ENDROOT
BRANCH   2  17
ATOM     17  C   UNL     1      34.109 -22.049 -19.127  0.00  0.00    -0.072 C 
BRANCH  17  18
ATOM     18  C   UNL     1      35.465 -21.944 -19.823  0.00  0.00    +0.004 C 
BRANCH  18  22
ATOM     19 CL   UNL     1      37.527 -19.828 -18.964  0.00  0.00    -0.083 Cl
ATOM     20  O   UNL     1      34.299 -16.951 -25.006  0.00  0.00    -0.274 OA
ATOM     21  N   UNL     1      35.612 -17.390 -23.106  0.00  0.00    -0.284 N 
ATOM     22  C   UNL     1      35.564 -20.691 -20.657  0.00  0.00    -0.014 C 
ATOM     23  C   UNL     1      34.804 -19.434 -22.520  0.00  0.00    +0.000 C 
ATOM     24  C   UNL     1      34.714 -20.581 -21.756  0.00  0.00    -0.006 C 
ATOM     25  C   UNL     1      35.715 -18.433 -22.192  0.00  0.00    +0.048 C 
ATOM     26  C   UNL     1      36.479 -19.681 -20.329  0.00  0.00    +0.055 C 
ATOM     27  C   UNL     1      34.038 -19.033 -23.740  0.00  0.00    +0.113 C 
ATOM     28  C   UNL     1      36.563 -18.525 -21.108  0.00  0.00    +0.025 C 
ATOM     29  C   UNL     1      34.634 -17.660 -24.070  0.00  0.00    +0.231 C 
ATOM     30  H   UNL     1      36.155 -16.570 -23.078  0.00  0.00    +0.155 HD
ENDBRANCH  18  22
ENDBRANCH  17  18
ENDBRANCH   2  17
TORSDOF 3
ENDMDL
MODEL 8
REMARK VINA RESULT:     -10.5      2.351      3.731
REMARK  Name = 60854
REMARK  3 active torsions:
REMARK  status: ('A' for Active; 'I' for Inactive)
REMARK    1  A    between atoms: N_2  and  C_17
REMARK    2  A    between atoms: C_17  and  C_18
REMARK    3  A    between atoms: C_18  and  C_22
REMARK                            x       y       z     vdW  Elec       q    Type
REMARK                         _______ _______ _______ _____ _____    ______ ____
ROOT
ATOM      1  S   UNL     1      33.507 -13.873 -25.767  0.00  0.00    +0.014 S 
ATOM      2  N   UNL     1      35.268 -19.405 -22.637  0.00  0.00    +0.389 N 
ATOM      3  N   UNL     1      34.345 -16.884 -23.612  0.00  0.00    -0.297 N 
ATOM      4  N   UNL     1      34.006 -15.428 -25.495  0.00  0.00    -0.194 NA
ATOM      5  C   UNL     1      35.362 -18.205 -21.797  0.00  0.00    -0.055 C 
ATOM      6  C   UNL     1      34.072 -19.330 -23.484  0.00  0.00    -0.055 C 
ATOM      7  C   UNL     1      35.455 -16.940 -22.655  0.00  0.00    +0.069 C 
ATOM      8  C   UNL     1      34.124 -18.104 -24.398  0.00  0.00    +0.069 C 
ATOM      9  C   UNL     1      33.981 -15.659 -24.181  0.00  0.00    +0.140 A 
ATOM     10  C   UNL     1      33.553 -14.578 -23.335  0.00  0.00    +0.040 A 
ATOM     11  C   UNL     1      33.242 -13.464 -24.117  0.00  0.00    +0.050 A 
ATOM     12  C   UNL     1      33.411 -14.478 -21.934  0.00  0.00    +0.003 C 
ATOM     13  C   UNL     1      32.794 -12.257 -23.556  0.00  0.00    +0.008 C 
ATOM     14  C   UNL     1      32.966 -13.280 -21.365  0.00  0.00    +0.000 C 
ATOM     15  C   UNL     1      32.663 -12.185 -22.167  0.00  0.00    +0.001 C 
ATOM     16  H   UNL     1      36.093 -19.454 -23.234  0.00  0.00    -0.080 HD
ENDROOT
BRANCH   2  17
ATOM     17  C   UNL     1      35.234 -20.610 -21.807  0.00  0.00    -0.072 C 
BRANCH  17  18
ATOM     18  C   UNL     1      34.158 -20.499 -20.727  0.00  0.00    +0.004 C 
BRANCH  18  22
ATOM     19 CL   UNL     1      37.103 -20.409 -19.842  0.00  0.00    -0.083 Cl
ATOM     20  O   UNL     1      33.767 -24.732 -14.803  0.00  0.00    -0.274 OA
ATOM     21  N   UNL     1      35.273 -23.468 -16.092  0.00  0.00    -0.284 N 
ATOM     22  C   UNL     1      34.535 -21.273 -19.488  0.00  0.00    -0.014 C 
ATOM     23  C   UNL     1      33.869 -22.682 -17.699  0.00  0.00    +0.000 C 
ATOM     24  C   UNL     1      33.524 -21.973 -18.834  0.00  0.00    -0.006 C 
ATOM     25  C   UNL     1      35.183 -22.687 -17.239  0.00  0.00    +0.048 C 
ATOM     26  C   UNL     1      35.857 -21.281 -19.022  0.00  0.00    +0.055 C 
ATOM     27  C   UNL     1      33.020 -23.517 -16.796  0.00  0.00    +0.113 C 
ATOM     28  C   UNL     1      36.197 -22.000 -17.875  0.00  0.00    +0.025 C 
ATOM     29  C   UNL     1      34.028 -24.006 -15.750  0.00  0.00    +0.231 C 
ATOM     30  H   UNL     1      36.104 -23.621 -15.586  0.00  0.00    +0.155 HD
ENDBRANCH  18  22
ENDBRANCH  17  18
ENDBRANCH   2  17
TORSDOF 3
ENDMDL
MODEL 9
REMARK VINA RESULT:     -10.4      5.771     11.196
REMARK  Name = 60854
REMARK  3 active torsions:
REMARK  status: ('A' for Active; 'I' for Inactive)
REMARK    1  A    between atoms: N_2  and  C_17
REMARK    2  A    between atoms: C_17  and  C_18
REMARK    3  A    between atoms: C_18  and  C_22
REMARK                            x       y       z     vdW  Elec       q    Type
REMARK                         _______ _______ _______ _____ _____    ______ ____
ROOT
ATOM      1  S   UNL     1      33.814 -15.584 -24.905  0.00  0.00    +0.014 S 
ATOM      2  N   UNL     1      31.763 -10.256 -21.602  0.00  0.00    +0.389 N 
ATOM      3  N   UNL     1      32.866 -12.664 -22.671  0.00  0.00    -0.297 N 
ATOM      4  N   UNL     1      33.166 -14.095 -24.580  0.00  0.00    -0.194 NA
ATOM      5  C   UNL     1      31.905 -11.448 -20.756  0.00  0.00    -0.055 C 
ATOM      6  C   UNL     1      32.860 -10.201 -22.576  0.00  0.00    -0.055 C 
ATOM      7  C   UNL     1      31.869 -12.726 -21.598  0.00  0.00    +0.069 C 
ATOM      8  C   UNL     1      32.854 -11.437 -23.478  0.00  0.00    +0.069 C 
ATOM      9  C   UNL     1      33.308 -13.845 -23.277  0.00  0.00    +0.140 A 
ATOM     10  C   UNL     1      33.951 -14.857 -22.483  0.00  0.00    +0.040 A 
ATOM     11  C   UNL     1      34.305 -15.937 -23.294  0.00  0.00    +0.050 A 
ATOM     12  C   UNL     1      34.257 -14.921 -21.106  0.00  0.00    +0.003 C 
ATOM     13  C   UNL     1      34.950 -17.075 -22.785  0.00  0.00    +0.008 C 
ATOM     14  C   UNL     1      34.900 -16.050 -20.589  0.00  0.00    +0.000 C 
ATOM     15  C   UNL     1      35.241 -17.112 -21.420  0.00  0.00    +0.001 C 
ATOM     16  H   UNL     1      30.878 -10.313 -22.104  0.00  0.00    -0.080 HD
ENDROOT
BRANCH   2  17
ATOM     17  C   UNL     1      31.745  -9.045 -20.781  0.00  0.00    -0.072 C 
BRANCH  17  18
ATOM     18  C   UNL     1      33.052  -8.266 -20.927  0.00  0.00    +0.004 C 
BRANCH  18  22
ATOM     19 CL   UNL     1      34.863  -7.779 -23.367  0.00  0.00    -0.083 Cl
ATOM     20  O   UNL     1      30.482  -1.786 -23.063  0.00  0.00    -0.274 OA
ATOM     21  N   UNL     1      32.079  -3.425 -23.602  0.00  0.00    -0.284 N 
ATOM     22  C   UNL     1      32.850  -6.985 -21.698  0.00  0.00    -0.014 C 
ATOM     23  C   UNL     1      31.673  -4.941 -21.956  0.00  0.00    +0.000 C 
ATOM     24  C   UNL     1      31.858  -6.114 -21.251  0.00  0.00    -0.006 C 
ATOM     25  C   UNL     1      32.455  -4.653 -23.072  0.00  0.00    +0.048 C 
ATOM     26  C   UNL     1      33.636  -6.692 -22.821  0.00  0.00    +0.055 C 
ATOM     27  C   UNL     1      30.704  -3.826 -21.724  0.00  0.00    +0.113 C 
ATOM     28  C   UNL     1      33.441  -5.504 -23.529  0.00  0.00    +0.025 C 
ATOM     29  C   UNL     1      31.037  -2.855 -22.862  0.00  0.00    +0.231 C 
ATOM     30  H   UNL     1      32.491  -3.010 -24.394  0.00  0.00    +0.155 HD
ENDBRANCH  18  22
ENDBRANCH  17  18
ENDBRANCH   2  17
TORSDOF 3
ENDMDL
