MODEL 1
REMARK VINA RESULT:     -11.6      0.000      0.000
REMARK  Name = 3055168
REMARK  6 active torsions:
REMARK  status: ('A' for Active; 'I' for Inactive)
REMARK    1  A    between atoms: C_1  and  C_21
REMARK    2  A    between atoms: C_4  and  O_7
REMARK    3  A    between atoms: O_7  and  C_8
REMARK    4  A    between atoms: C_8  and  C_12
REMARK    5  A    between atoms: C_17  and  O_19
REMARK    6  A    between atoms: C_21  and  C_26
REMARK                            x       y       z     vdW  Elec       q    Type
REMARK                         _______ _______ _______ _____ _____    ______ ____
ROOT
ATOM      1  C   UNL     1      35.067 -20.440 -20.362  0.00  0.00    -0.021 C 
ATOM      2  C   UNL     1      35.877 -21.378 -19.722  0.00  0.00    -0.001 C 
ATOM      3  C   UNL     1      33.679 -20.533 -20.261  0.00  0.00    -0.001 C 
ATOM      4  C   UNL     1      33.913 -22.497 -18.885  0.00  0.00    +0.139 C 
ATOM      5  C   UNL     1      35.298 -22.410 -18.982  0.00  0.00    +0.037 C 
ATOM      6  C   UNL     1      33.100 -21.563 -19.521  0.00  0.00    +0.037 C 
ENDROOT
BRANCH   4   7
ATOM      7  O   UNL     1      33.346 -23.508 -18.157  0.00  0.00    -0.466 OA
BRANCH   7   8
ATOM      8  C   UNL     1      32.822 -23.159 -16.878  0.00  0.00    +0.279 C 
BRANCH   8  12
ATOM      9  N   UNL     1      33.375 -23.778 -14.530  0.00  0.00    -0.274 N 
ATOM     10  N   UNL     1      34.917 -24.224 -16.067  0.00  0.00    -0.390 NA
ATOM     11  C   UNL     1      34.417 -24.351 -13.848  0.00  0.00    +0.153 C 
ATOM     12  C   UNL     1      33.721 -23.723 -15.852  0.00  0.00    +0.205 C 
ATOM     13  C   UNL     1      35.367 -24.621 -14.829  0.00  0.00    +0.133 C 
ATOM     14  C   UNL     1      34.604 -24.647 -12.497  0.00  0.00    +0.037 C 
ATOM     15  C   UNL     1      32.134 -23.316 -13.953  0.00  0.00    +0.115 C 
ATOM     16  C   UNL     1      36.583 -25.221 -14.459  0.00  0.00    +0.033 C 
ATOM     17  C   UNL     1      35.819 -25.246 -12.147  0.00  0.00    +0.137 C 
ATOM     18  C   UNL     1      36.792 -25.528 -13.109  0.00  0.00    +0.039 C 
BRANCH  17  19
ATOM     19  O   UNL     1      36.058 -25.557 -10.841  0.00  0.00    -0.472 OA
ATOM     20  C   UNL     1      35.698 -24.580  -9.867  0.00  0.00    +0.252 C 
ENDBRANCH  17  19
ENDBRANCH   8  12
ENDBRANCH   7   8
ENDBRANCH   4   7
BRANCH   1  21
ATOM     21  C   UNL     1      35.685 -19.338 -21.154  0.00  0.00    +0.047 C 
BRANCH  21  26
ATOM     22  S   UNL     1      34.949 -16.683 -21.301  0.00  0.00    -0.048 S 
ATOM     23  O   UNL     1      34.584 -19.467 -23.948  0.00  0.00    -0.274 OA
ATOM     24  O   UNL     1      35.262 -14.952 -23.255  0.00  0.00    -0.263 OA
ATOM     25  N   UNL     1      34.916 -17.183 -23.805  0.00  0.00    -0.246 N 
ATOM     26  C   UNL     1      34.642 -18.413 -21.775  0.00  0.00    +0.137 C 
ATOM     27  C   UNL     1      34.707 -18.444 -23.285  0.00  0.00    +0.239 C 
ATOM     28  C   UNL     1      35.069 -16.120 -22.955  0.00  0.00    +0.279 C 
ATOM     29  H   UNL     1      34.956 -17.048 -24.780  0.00  0.00    +0.158 HD
ENDBRANCH  21  26
ENDBRANCH   1  21
TORSDOF 6
ENDMDL
MODEL 2
REMARK VINA RESULT:     -11.5      2.921     10.825
REMARK  Name = 3055168
REMARK  6 active torsions:
REMARK  status: ('A' for Active; 'I' for Inactive)
REMARK    1  A    between atoms: C_1  and  C_21
REMARK    2  A    between atoms: C_4  and  O_7
REMARK    3  A    between atoms: O_7  and  C_8
REMARK    4  A    between atoms: C_8  and  C_12
REMARK    5  A    between atoms: C_17  and  O_19
REMARK    6  A    between atoms: C_21  and  C_26
REMARK                            x       y       z     vdW  Elec       q    Type
REMARK                         _______ _______ _______ _____ _____    ______ ____
ROOT
ATOM      1  C   UNL     1      34.879 -23.123 -16.634  0.00  0.00    -0.021 C 
ATOM      2  C   UNL     1      33.746 -23.111 -17.449  0.00  0.00    -0.001 C 
ATOM      3  C   UNL     1      36.027 -22.434 -17.026  0.00  0.00    -0.001 C 
ATOM      4  C   UNL     1      34.911 -21.726 -19.041  0.00  0.00    +0.139 C 
ATOM      5  C   UNL     1      33.763 -22.411 -18.656  0.00  0.00    +0.037 C 
ATOM      6  C   UNL     1      36.043 -21.733 -18.231  0.00  0.00    +0.037 C 
ENDROOT
BRANCH   4   7
ATOM      7  O   UNL     1      34.926 -21.038 -20.224  0.00  0.00    -0.466 OA
BRANCH   7   8
ATOM      8  C   UNL     1      36.070 -20.226 -20.476  0.00  0.00    +0.279 C 
BRANCH   8  12
ATOM      9  N   UNL     1      35.249 -19.194 -22.589  0.00  0.00    -0.274 N 
ATOM     10  N   UNL     1      35.560 -17.823 -20.868  0.00  0.00    -0.390 NA
ATOM     11  C   UNL     1      34.906 -17.947 -23.047  0.00  0.00    +0.153 C 
ATOM     12  C   UNL     1      35.633 -19.068 -21.283  0.00  0.00    +0.205 C 
ATOM     13  C   UNL     1      35.109 -17.109 -21.953  0.00  0.00    +0.133 C 
ATOM     14  C   UNL     1      34.451 -17.495 -24.285  0.00  0.00    +0.037 C 
ATOM     15  C   UNL     1      35.210 -20.419 -23.354  0.00  0.00    +0.115 C 
ATOM     16  C   UNL     1      34.846 -15.735 -22.086  0.00  0.00    +0.033 C 
ATOM     17  C   UNL     1      34.194 -16.125 -24.399  0.00  0.00    +0.137 C 
ATOM     18  C   UNL     1      34.388 -15.259 -23.320  0.00  0.00    +0.039 C 
BRANCH  17  19
ATOM     19  O   UNL     1      33.748 -15.626 -25.587  0.00  0.00    -0.472 OA
ATOM     20  C   UNL     1      33.351 -14.256 -25.605  0.00  0.00    +0.252 C 
ENDBRANCH  17  19
ENDBRANCH   8  12
ENDBRANCH   7   8
ENDBRANCH   4   7
BRANCH   1  21
ATOM     21  C   UNL     1      34.861 -23.871 -15.345  0.00  0.00    +0.047 C 
BRANCH  21  26
ATOM     22  S   UNL     1      36.790 -23.664 -13.382  0.00  0.00    -0.048 S 
ATOM     23  O   UNL     1      35.863 -26.696 -15.583  0.00  0.00    -0.274 OA
ATOM     24  O   UNL     1      37.419 -25.336 -11.453  0.00  0.00    -0.263 OA
ATOM     25  N   UNL     1      36.667 -26.214 -13.469  0.00  0.00    -0.246 N 
ATOM     26  C   UNL     1      36.243 -24.393 -14.957  0.00  0.00    +0.137 C 
ATOM     27  C   UNL     1      36.225 -25.888 -14.735  0.00  0.00    +0.239 C 
ATOM     28  C   UNL     1      37.015 -25.214 -12.600  0.00  0.00    +0.279 C 
ATOM     29  H   UNL     1      36.732 -27.157 -13.192  0.00  0.00    +0.158 HD
ENDBRANCH  21  26
ENDBRANCH   1  21
TORSDOF 6
ENDMDL
MODEL 3
REMARK VINA RESULT:     -11.4      2.868     10.763
REMARK  Name = 3055168
REMARK  6 active torsions:
REMARK  status: ('A' for Active; 'I' for Inactive)
REMARK    1  A    between atoms: C_1  and  C_21
REMARK    2  A    between atoms: C_4  and  O_7
REMARK    3  A    between atoms: O_7  and  C_8
REMARK    4  A    between atoms: C_8  and  C_12
REMARK    5  A    between atoms: C_17  and  O_19
REMARK    6  A    between atoms: C_21  and  C_26
REMARK                            x       y       z     vdW  Elec       q    Type
REMARK                         _______ _______ _______ _____ _____    ______ ____
ROOT
ATOM      1  C   UNL     1      34.140 -22.749 -18.073  0.00  0.00    -0.021 C 
ATOM      2  C   UNL     1      33.391 -22.059 -19.026  0.00  0.00    -0.001 C 
ATOM      3  C   UNL     1      35.502 -22.484 -17.931  0.00  0.00    -0.001 C 
ATOM      4  C   UNL     1      35.363 -20.845 -19.692  0.00  0.00    +0.139 C 
ATOM      5  C   UNL     1      34.005 -21.105 -19.838  0.00  0.00    +0.037 C 
ATOM      6  C   UNL     1      36.115 -21.529 -18.741  0.00  0.00    +0.037 C 
ENDROOT
BRANCH   4   7
ATOM      7  O   UNL     1      35.964 -19.907 -20.487  0.00  0.00    -0.466 OA
BRANCH   7   8
ATOM      8  C   UNL     1      35.368 -19.673 -21.761  0.00  0.00    +0.279 C 
BRANCH   8  12
ATOM      9  N   UNL     1      34.760 -17.639 -23.063  0.00  0.00    -0.274 N 
ATOM     10  N   UNL     1      35.154 -17.352 -20.894  0.00  0.00    -0.390 NA
ATOM     11  C   UNL     1      34.582 -16.299 -22.832  0.00  0.00    +0.153 C 
ATOM     12  C   UNL     1      35.101 -18.225 -21.876  0.00  0.00    +0.205 C 
ATOM     13  C   UNL     1      34.833 -16.145 -21.471  0.00  0.00    +0.133 C 
ATOM     14  C   UNL     1      34.234 -15.240 -23.672  0.00  0.00    +0.037 C 
ATOM     15  C   UNL     1      34.613 -18.308 -24.335  0.00  0.00    +0.115 C 
ATOM     16  C   UNL     1      34.736 -14.866 -20.897  0.00  0.00    +0.033 C 
ATOM     17  C   UNL     1      34.141 -13.975 -23.084  0.00  0.00    +0.137 C 
ATOM     18  C   UNL     1      34.387 -13.789 -21.721  0.00  0.00    +0.039 C 
BRANCH  17  19
ATOM     19  O   UNL     1      33.805 -12.902 -23.856  0.00  0.00    -0.472 OA
ATOM     20  C   UNL     1      33.069 -11.856 -23.225  0.00  0.00    +0.252 C 
ENDBRANCH  17  19
ENDBRANCH   8  12
ENDBRANCH   7   8
ENDBRANCH   4   7
BRANCH   1  21
ATOM     21  C   UNL     1      33.485 -23.770 -17.205  0.00  0.00    +0.047 C 
BRANCH  21  26
ATOM     22  S   UNL     1      32.071 -23.528 -14.848  0.00  0.00    -0.048 S 
ATOM     23  O   UNL     1      35.677 -24.781 -15.413  0.00  0.00    -0.274 OA
ATOM     24  O   UNL     1      31.879 -25.188 -12.818  0.00  0.00    -0.263 OA
ATOM     25  N   UNL     1      33.881 -25.116 -13.996  0.00  0.00    -0.246 N 
ATOM     26  C   UNL     1      33.668 -23.474 -15.719  0.00  0.00    +0.137 C 
ATOM     27  C   UNL     1      34.536 -24.516 -15.052  0.00  0.00    +0.239 C 
ATOM     28  C   UNL     1      32.591 -24.753 -13.710  0.00  0.00    +0.279 C 
ATOM     29  H   UNL     1      34.336 -25.800 -13.452  0.00  0.00    +0.158 HD
ENDBRANCH  21  26
ENDBRANCH   1  21
TORSDOF 6
ENDMDL
MODEL 4
REMARK VINA RESULT:     -11.0      1.811      2.325
REMARK  Name = 3055168
REMARK  6 active torsions:
REMARK  status: ('A' for Active; 'I' for Inactive)
REMARK    1  A    between atoms: C_1  and  C_21
REMARK    2  A    between atoms: C_4  and  O_7
REMARK    3  A    between atoms: O_7  and  C_8
REMARK    4  A    between atoms: C_8  and  C_12
REMARK    5  A    between atoms: C_17  and  O_19
REMARK    6  A    between atoms: C_21  and  C_26
REMARK                            x       y       z     vdW  Elec       q    Type
REMARK                         _______ _______ _______ _____ _____    ______ ____
ROOT
ATOM      1  C   UNL     1      35.382 -20.305 -20.528  0.00  0.00    -0.021 C 
ATOM      2  C   UNL     1      36.325 -21.071 -19.842  0.00  0.00    -0.001 C 
ATOM      3  C   UNL     1      34.021 -20.537 -20.333  0.00  0.00    -0.001 C 
ATOM      4  C   UNL     1      34.547 -22.296 -18.772  0.00  0.00    +0.139 C 
ATOM      5  C   UNL     1      35.906 -22.069 -18.962  0.00  0.00    +0.037 C 
ATOM      6  C   UNL     1      33.602 -21.535 -19.453  0.00  0.00    +0.037 C 
ENDROOT
BRANCH   4   7
ATOM      7  O   UNL     1      34.136 -23.274 -17.907  0.00  0.00    -0.466 OA
BRANCH   7   8
ATOM      8  C   UNL     1      34.132 -22.941 -16.521  0.00  0.00    +0.279 C 
BRANCH   8  12
ATOM      9  N   UNL     1      36.320 -23.488 -15.464  0.00  0.00    -0.274 N 
ATOM     10  N   UNL     1      34.800 -25.108 -15.499  0.00  0.00    -0.390 NA
ATOM     11  C   UNL     1      36.915 -24.562 -14.854  0.00  0.00    +0.153 C 
ATOM     12  C   UNL     1      35.058 -23.864 -15.832  0.00  0.00    +0.205 C 
ATOM     13  C   UNL     1      35.945 -25.561 -14.888  0.00  0.00    +0.133 C 
ATOM     14  C   UNL     1      38.180 -24.741 -14.292  0.00  0.00    +0.037 C 
ATOM     15  C   UNL     1      36.923 -22.192 -15.677  0.00  0.00    +0.115 C 
ATOM     16  C   UNL     1      36.238 -26.819 -14.334  0.00  0.00    +0.033 C 
ATOM     17  C   UNL     1      38.454 -25.999 -13.745  0.00  0.00    +0.137 C 
ATOM     18  C   UNL     1      37.501 -27.021 -13.764  0.00  0.00    +0.039 C 
BRANCH  17  19
ATOM     19  O   UNL     1      39.674 -26.231 -13.183  0.00  0.00    -0.472 OA
ATOM     20  C   UNL     1      40.741 -26.565 -14.069  0.00  0.00    +0.252 C 
ENDBRANCH  17  19
ENDBRANCH   8  12
ENDBRANCH   7   8
ENDBRANCH   4   7
BRANCH   1  21
ATOM     21  C   UNL     1      35.830 -19.238 -21.469  0.00  0.00    +0.047 C 
BRANCH  21  26
ATOM     22  S   UNL     1      34.985 -16.619 -21.281  0.00  0.00    -0.048 S 
ATOM     23  O   UNL     1      34.423 -19.166 -24.125  0.00  0.00    -0.274 OA
ATOM     24  O   UNL     1      35.010 -14.705 -23.085  0.00  0.00    -0.263 OA
ATOM     25  N   UNL     1      34.686 -16.892 -23.803  0.00  0.00    -0.246 N 
ATOM     26  C   UNL     1      34.690 -18.311 -21.881  0.00  0.00    +0.137 C 
ATOM     27  C   UNL     1      34.583 -18.202 -23.385  0.00  0.00    +0.239 C 
ATOM     28  C   UNL     1      34.895 -15.904 -22.877  0.00  0.00    +0.279 C 
ATOM     29  H   UNL     1      34.610 -16.667 -24.760  0.00  0.00    +0.158 HD
ENDBRANCH  21  26
ENDBRANCH   1  21
TORSDOF 6
ENDMDL
MODEL 5
REMARK VINA RESULT:     -11.0      2.822     10.963
REMARK  Name = 3055168
REMARK  6 active torsions:
REMARK  status: ('A' for Active; 'I' for Inactive)
REMARK    1  A    between atoms: C_1  and  C_21
REMARK    2  A    between atoms: C_4  and  O_7
REMARK    3  A    between atoms: O_7  and  C_8
REMARK    4  A    between atoms: C_8  and  C_12
REMARK    5  A    between atoms: C_17  and  O_19
REMARK    6  A    between atoms: C_21  and  C_26
REMARK                            x       y       z     vdW  Elec       q    Type
REMARK                         _______ _______ _______ _____ _____    ______ ____
ROOT
ATOM      1  C   UNL     1      33.953 -22.440 -18.725  0.00  0.00    -0.021 C 
ATOM      2  C   UNL     1      32.999 -21.570 -19.251  0.00  0.00    -0.001 C 
ATOM      3  C   UNL     1      35.282 -22.352 -19.138  0.00  0.00    -0.001 C 
ATOM      4  C   UNL     1      34.702 -20.527 -20.602  0.00  0.00    +0.139 C 
ATOM      5  C   UNL     1      33.375 -20.611 -20.193  0.00  0.00    +0.037 C 
ATOM      6  C   UNL     1      35.658 -21.393 -20.078  0.00  0.00    +0.037 C 
ENDROOT
BRANCH   4   7
ATOM      7  O   UNL     1      35.070 -19.585 -21.523  0.00  0.00    -0.466 OA
BRANCH   7   8
ATOM      8  C   UNL     1      35.488 -18.321 -21.013  0.00  0.00    +0.279 C 
BRANCH   8  12
ATOM      9  N   UNL     1      34.676 -16.019 -21.508  0.00  0.00    -0.274 N 
ATOM     10  N   UNL     1      34.817 -17.416 -23.231  0.00  0.00    -0.390 NA
ATOM     11  C   UNL     1      34.258 -15.300 -22.599  0.00  0.00    +0.153 C 
ATOM     12  C   UNL     1      34.998 -17.277 -21.936  0.00  0.00    +0.205 C 
ATOM     13  C   UNL     1      34.356 -16.194 -23.661  0.00  0.00    +0.133 C 
ATOM     14  C   UNL     1      33.817 -13.985 -22.742  0.00  0.00    +0.037 C 
ATOM     15  C   UNL     1      34.759 -15.531 -20.151  0.00  0.00    +0.115 C 
ATOM     16  C   UNL     1      33.995 -15.768 -24.951  0.00  0.00    +0.033 C 
ATOM     17  C   UNL     1      33.463 -13.576 -24.032  0.00  0.00    +0.137 C 
ATOM     18  C   UNL     1      33.550 -14.450 -25.118  0.00  0.00    +0.039 C 
BRANCH  17  19
ATOM     19  O   UNL     1      33.023 -12.301 -24.232  0.00  0.00    -0.472 OA
ATOM     20  C   UNL     1      32.824 -11.496 -23.072  0.00  0.00    +0.252 C 
ENDBRANCH  17  19
ENDBRANCH   8  12
ENDBRANCH   7   8
ENDBRANCH   4   7
BRANCH   1  21
ATOM     21  C   UNL     1      33.552 -23.466 -17.719  0.00  0.00    +0.047 C 
BRANCH  21  26
ATOM     22  S   UNL     1      32.135 -23.390 -15.353  0.00  0.00    -0.048 S 
ATOM     23  O   UNL     1      35.953 -23.480 -15.909  0.00  0.00    -0.274 OA
ATOM     24  O   UNL     1      32.489 -24.750 -13.130  0.00  0.00    -0.263 OA
ATOM     25  N   UNL     1      34.361 -24.190 -14.389  0.00  0.00    -0.246 N 
ATOM     26  C   UNL     1      33.628 -22.939 -16.289  0.00  0.00    +0.137 C 
ATOM     27  C   UNL     1      34.787 -23.552 -15.536  0.00  0.00    +0.239 C 
ATOM     28  C   UNL     1      33.023 -24.227 -14.097  0.00  0.00    +0.279 C 
ATOM     29  H   UNL     1      35.013 -24.615 -13.786  0.00  0.00    +0.158 HD
ENDBRANCH  21  26
ENDBRANCH   1  21
TORSDOF 6
ENDMDL
MODEL 6
REMARK VINA RESULT:     -11.0      5.538     13.200
REMARK  Name = 3055168
REMARK  6 active torsions:
REMARK  status: ('A' for Active; 'I' for Inactive)
REMARK    1  A    between atoms: C_1  and  C_21
REMARK    2  A    between atoms: C_4  and  O_7
REMARK    3  A    between atoms: O_7  and  C_8
REMARK    4  A    between atoms: C_8  and  C_12
REMARK    5  A    between atoms: C_17  and  O_19
REMARK    6  A    between atoms: C_21  and  C_26
REMARK                            x       y       z     vdW  Elec       q    Type
REMARK                         _______ _______ _______ _____ _____    ______ ____
ROOT
ATOM      1  C   UNL     1      35.010 -17.416 -22.980  0.00  0.00    -0.021 C 
ATOM      2  C   UNL     1      34.569 -17.188 -24.284  0.00  0.00    -0.001 C 
ATOM      3  C   UNL     1      35.029 -16.371 -22.057  0.00  0.00    -0.001 C 
ATOM      4  C   UNL     1      34.169 -14.874 -23.739  0.00  0.00    +0.139 C 
ATOM      5  C   UNL     1      34.148 -15.913 -24.664  0.00  0.00    +0.037 C 
ATOM      6  C   UNL     1      34.607 -15.097 -22.437  0.00  0.00    +0.037 C 
ENDROOT
BRANCH   4   7
ATOM      7  O   UNL     1      33.754 -13.625 -24.112  0.00  0.00    -0.466 OA
BRANCH   7   8
ATOM      8  C   UNL     1      32.739 -13.023 -23.311  0.00  0.00    +0.279 C 
BRANCH   8  12
ATOM      9  N   UNL     1      32.243 -10.715 -22.517  0.00  0.00    -0.274 N 
ATOM     10  N   UNL     1      34.139 -10.994 -23.642  0.00  0.00    -0.390 NA
ATOM     11  C   UNL     1      32.825  -9.475 -22.566  0.00  0.00    +0.153 C 
ATOM     12  C   UNL     1      33.065 -11.589 -23.173  0.00  0.00    +0.205 C 
ATOM     13  C   UNL     1      34.008  -9.676 -23.273  0.00  0.00    +0.133 C 
ATOM     14  C   UNL     1      32.431  -8.232 -22.069  0.00  0.00    +0.037 C 
ATOM     15  C   UNL     1      30.985 -11.038 -21.883  0.00  0.00    +0.115 C 
ATOM     16  C   UNL     1      34.860  -8.582 -23.508  0.00  0.00    +0.033 C 
ATOM     17  C   UNL     1      33.291  -7.156 -22.310  0.00  0.00    +0.137 C 
ATOM     18  C   UNL     1      34.484  -7.326 -23.017  0.00  0.00    +0.039 C 
BRANCH  17  19
ATOM     19  O   UNL     1      32.957  -5.918 -21.848  0.00  0.00    -0.472 OA
ATOM     20  C   UNL     1      31.590  -5.529 -21.969  0.00  0.00    +0.252 C 
ENDBRANCH  17  19
ENDBRANCH   8  12
ENDBRANCH   7   8
ENDBRANCH   4   7
BRANCH   1  21
ATOM     21  C   UNL     1      35.462 -18.778 -22.574  0.00  0.00    +0.047 C 
BRANCH  21  26
ATOM     22  S   UNL     1      34.148 -20.247 -20.642  0.00  0.00    -0.048 S 
ATOM     23  O   UNL     1      37.772 -18.921 -20.656  0.00  0.00    -0.274 OA
ATOM     24  O   UNL     1      34.975 -22.313 -19.241  0.00  0.00    -0.263 OA
ATOM     25  N   UNL     1      36.533 -20.698 -19.848  0.00  0.00    -0.246 N 
ATOM     26  C   UNL     1      35.391 -18.987 -21.063  0.00  0.00    +0.137 C 
ATOM     27  C   UNL     1      36.703 -19.503 -20.516  0.00  0.00    +0.239 C 
ATOM     28  C   UNL     1      35.288 -21.265 -19.788  0.00  0.00    +0.279 C 
ATOM     29  H   UNL     1      37.301 -21.141 -19.417  0.00  0.00    +0.158 HD
ENDBRANCH  21  26
ENDBRANCH   1  21
TORSDOF 6
ENDMDL
MODEL 7
REMARK VINA RESULT:     -10.9      2.632      4.201
REMARK  Name = 3055168
REMARK  6 active torsions:
REMARK  status: ('A' for Active; 'I' for Inactive)
REMARK    1  A    between atoms: C_1  and  C_21
REMARK    2  A    between atoms: C_4  and  O_7
REMARK    3  A    between atoms: O_7  and  C_8
REMARK    4  A    between atoms: C_8  and  C_12
REMARK    5  A    between atoms: C_17  and  O_19
REMARK    6  A    between atoms: C_21  and  C_26
REMARK                            x       y       z     vdW  Elec       q    Type
REMARK                         _______ _______ _______ _____ _____    ______ ____
ROOT
ATOM      1  C   UNL     1      35.078 -17.394 -22.815  0.00  0.00    -0.021 C 
ATOM      2  C   UNL     1      34.561 -18.494 -23.501  0.00  0.00    -0.001 C 
ATOM      3  C   UNL     1      35.486 -17.529 -21.488  0.00  0.00    -0.001 C 
ATOM      4  C   UNL     1      34.861 -19.856 -21.535  0.00  0.00    +0.139 C 
ATOM      5  C   UNL     1      34.452 -19.728 -22.858  0.00  0.00    +0.037 C 
ATOM      6  C   UNL     1      35.378 -18.762 -20.847  0.00  0.00    +0.037 C 
ENDROOT
BRANCH   4   7
ATOM      7  O   UNL     1      34.756 -21.067 -20.906  0.00  0.00    -0.466 OA
BRANCH   7   8
ATOM      8  C   UNL     1      35.677 -21.319 -19.848  0.00  0.00    +0.279 C 
BRANCH   8  12
ATOM      9  N   UNL     1      35.538 -22.333 -17.577  0.00  0.00    -0.274 N 
ATOM     10  N   UNL     1      33.650 -22.247 -18.746  0.00  0.00    -0.390 NA
ATOM     11  C   UNL     1      34.582 -22.895 -16.770  0.00  0.00    +0.153 C 
ATOM     12  C   UNL     1      34.933 -21.962 -18.745  0.00  0.00    +0.205 C 
ATOM     13  C   UNL     1      33.412 -22.829 -17.523  0.00  0.00    +0.133 C 
ATOM     14  C   UNL     1      34.639 -23.439 -15.487  0.00  0.00    +0.037 C 
ATOM     15  C   UNL     1      36.934 -22.164 -17.247  0.00  0.00    +0.115 C 
ATOM     16  C   UNL     1      32.218 -23.332 -16.977  0.00  0.00    +0.033 C 
ATOM     17  C   UNL     1      33.441 -23.934 -14.960  0.00  0.00    +0.137 C 
ATOM     18  C   UNL     1      32.251 -23.882 -15.690  0.00  0.00    +0.039 C 
BRANCH  17  19
ATOM     19  O   UNL     1      33.436 -24.478 -13.710  0.00  0.00    -0.472 OA
ATOM     20  C   UNL     1      32.220 -25.080 -13.270  0.00  0.00    +0.252 C 
ENDBRANCH  17  19
ENDBRANCH   8  12
ENDBRANCH   7   8
ENDBRANCH   4   7
BRANCH   1  21
ATOM     21  C   UNL     1      35.194 -16.075 -23.501  0.00  0.00    +0.047 C 
BRANCH  21  26
ATOM     22  S   UNL     1      34.024 -13.836 -22.391  0.00  0.00    -0.048 S 
ATOM     23  O   UNL     1      33.407 -15.457 -25.839  0.00  0.00    -0.274 OA
ATOM     24  O   UNL     1      33.506 -11.494 -23.469  0.00  0.00    -0.263 OA
ATOM     25  N   UNL     1      33.391 -13.379 -24.823  0.00  0.00    -0.246 N 
ATOM     26  C   UNL     1      33.885 -15.290 -23.476  0.00  0.00    +0.137 C 
ATOM     27  C   UNL     1      33.539 -14.751 -24.845  0.00  0.00    +0.239 C 
ATOM     28  C   UNL     1      33.595 -12.699 -23.652  0.00  0.00    +0.279 C 
ATOM     29  H   UNL     1      33.141 -12.893 -25.643  0.00  0.00    +0.158 HD
ENDBRANCH  21  26
ENDBRANCH   1  21
TORSDOF 6
ENDMDL
MODEL 8
REMARK VINA RESULT:     -10.8      3.884      7.975
REMARK  Name = 3055168
REMARK  6 active torsions:
REMARK  status: ('A' for Active; 'I' for Inactive)
REMARK    1  A    between atoms: C_1  and  C_21
REMARK    2  A    between atoms: C_4  and  O_7
REMARK    3  A    between atoms: O_7  and  C_8
REMARK    4  A    between atoms: C_8  and  C_12
REMARK    5  A    between atoms: C_17  and  O_19
REMARK    6  A    between atoms: C_21  and  C_26
REMARK                            x       y       z     vdW  Elec       q    Type
REMARK                         _______ _______ _______ _____ _____    ______ ____
ROOT
ATOM      1  C   UNL     1      33.817 -13.297 -23.361  0.00  0.00    -0.021 C 
ATOM      2  C   UNL     1      33.393 -14.031 -24.469  0.00  0.00    -0.001 C 
ATOM      3  C   UNL     1      34.463 -13.939 -22.305  0.00  0.00    -0.001 C 
ATOM      4  C   UNL     1      34.259 -16.043 -23.463  0.00  0.00    +0.139 C 
ATOM      5  C   UNL     1      33.614 -15.408 -24.519  0.00  0.00    +0.037 C 
ATOM      6  C   UNL     1      34.685 -15.315 -22.356  0.00  0.00    +0.037 C 
ENDROOT
BRANCH   4   7
ATOM      7  O   UNL     1      34.478 -17.392 -23.514  0.00  0.00    -0.466 OA
BRANCH   7   8
ATOM      8  C   UNL     1      35.635 -17.879 -22.838  0.00  0.00    +0.279 C 
BRANCH   8  12
ATOM      9  N   UNL     1      36.070 -19.532 -21.027  0.00  0.00    -0.274 N 
ATOM     10  N   UNL     1      33.963 -19.326 -21.702  0.00  0.00    -0.390 NA
ATOM     11  C   UNL     1      35.353 -20.418 -20.265  0.00  0.00    +0.153 C 
ATOM     12  C   UNL     1      35.196 -18.904 -21.870  0.00  0.00    +0.205 C 
ATOM     13  C   UNL     1      34.040 -20.270 -20.705  0.00  0.00    +0.133 C 
ATOM     14  C   UNL     1      35.728 -21.309 -19.259  0.00  0.00    +0.037 C 
ATOM     15  C   UNL     1      37.495 -19.304 -20.949  0.00  0.00    +0.115 C 
ATOM     16  C   UNL     1      33.029 -21.051 -20.118  0.00  0.00    +0.033 C 
ATOM     17  C   UNL     1      34.710 -22.077 -18.686  0.00  0.00    +0.137 C 
ATOM     18  C   UNL     1      33.383 -21.952 -19.106  0.00  0.00    +0.039 C 
BRANCH  17  19
ATOM     19  O   UNL     1      35.018 -22.966 -17.699  0.00  0.00    -0.472 OA
ATOM     20  C   UNL     1      33.966 -23.336 -16.810  0.00  0.00    +0.252 C 
ENDBRANCH  17  19
ENDBRANCH   8  12
ENDBRANCH   7   8
ENDBRANCH   4   7
BRANCH   1  21
ATOM     21  C   UNL     1      33.580 -11.826 -23.306  0.00  0.00    +0.047 C 
BRANCH  21  26
ATOM     22  S   UNL     1      31.770 -12.144 -21.249  0.00  0.00    -0.048 S 
ATOM     23  O   UNL     1      32.156  -9.212 -23.728  0.00  0.00    -0.274 OA
ATOM     24  O   UNL     1      30.958 -10.421 -19.435  0.00  0.00    -0.263 OA
ATOM     25  N   UNL     1      31.503  -9.621 -21.548  0.00  0.00    -0.246 N 
ATOM     26  C   UNL     1      32.149 -11.482 -22.900  0.00  0.00    +0.137 C 
ATOM     27  C   UNL     1      31.948  -9.987 -22.802  0.00  0.00    +0.239 C 
ATOM     28  C   UNL     1      31.338 -10.581 -20.585  0.00  0.00    +0.279 C 
ATOM     29  H   UNL     1      31.306  -8.677 -21.346  0.00  0.00    +0.158 HD
ENDBRANCH  21  26
ENDBRANCH   1  21
TORSDOF 6
ENDMDL
MODEL 9
REMARK VINA RESULT:     -10.5      1.825      2.786
REMARK  Name = 3055168
REMARK  6 active torsions:
REMARK  status: ('A' for Active; 'I' for Inactive)
REMARK    1  A    between atoms: C_1  and  C_21
REMARK    2  A    between atoms: C_4  and  O_7
REMARK    3  A    between atoms: O_7  and  C_8
REMARK    4  A    between atoms: C_8  and  C_12
REMARK    5  A    between atoms: C_17  and  O_19
REMARK    6  A    between atoms: C_21  and  C_26
REMARK                            x       y       z     vdW  Elec       q    Type
REMARK                         _______ _______ _______ _____ _____    ______ ____
ROOT
ATOM      1  C   UNL     1      35.723 -18.420 -22.272  0.00  0.00    -0.021 C 
ATOM      2  C   UNL     1      34.708 -19.366 -22.127  0.00  0.00    -0.001 C 
ATOM      3  C   UNL     1      36.870 -18.502 -21.482  0.00  0.00    -0.001 C 
ATOM      4  C   UNL     1      35.986 -20.469 -20.407  0.00  0.00    +0.139 C 
ATOM      5  C   UNL     1      34.839 -20.393 -21.191  0.00  0.00    +0.037 C 
ATOM      6  C   UNL     1      37.002 -19.529 -20.548  0.00  0.00    +0.037 C 
ENDROOT
BRANCH   4   7
ATOM      7  O   UNL     1      36.115 -21.478 -19.491  0.00  0.00    -0.466 OA
BRANCH   7   8
ATOM      8  C   UNL     1      34.907 -22.045 -18.990  0.00  0.00    +0.279 C 
BRANCH   8  12
ATOM      9  N   UNL     1      34.172 -23.018 -16.818  0.00  0.00    -0.274 N 
ATOM     10  N   UNL     1      36.320 -22.475 -16.989  0.00  0.00    -0.390 NA
ATOM     11  C   UNL     1      34.730 -23.344 -15.608  0.00  0.00    +0.153 C 
ATOM     12  C   UNL     1      35.161 -22.503 -17.608  0.00  0.00    +0.205 C 
ATOM     13  C   UNL     1      36.072 -22.995 -15.741  0.00  0.00    +0.133 C 
ATOM     14  C   UNL     1      34.192 -23.895 -14.445  0.00  0.00    +0.037 C 
ATOM     15  C   UNL     1      32.786 -23.191 -17.188  0.00  0.00    +0.115 C 
ATOM     16  C   UNL     1      36.943 -23.203 -14.658  0.00  0.00    +0.033 C 
ATOM     17  C   UNL     1      35.074 -24.096 -13.378  0.00  0.00    +0.137 C 
ATOM     18  C   UNL     1      36.425 -23.756 -13.480  0.00  0.00    +0.039 C 
BRANCH  17  19
ATOM     19  O   UNL     1      34.604 -24.631 -12.215  0.00  0.00    -0.472 OA
ATOM     20  C   UNL     1      35.571 -24.983 -11.228  0.00  0.00    +0.252 C 
ENDBRANCH  17  19
ENDBRANCH   8  12
ENDBRANCH   7   8
ENDBRANCH   4   7
BRANCH   1  21
ATOM     21  C   UNL     1      35.582 -17.322 -23.271  0.00  0.00    +0.047 C 
BRANCH  21  26
ATOM     22  S   UNL     1      34.602 -15.087 -21.985  0.00  0.00    -0.048 S 
ATOM     23  O   UNL     1      33.536 -16.624 -25.360  0.00  0.00    -0.274 OA
ATOM     24  O   UNL     1      34.003 -12.714 -22.947  0.00  0.00    -0.263 OA
ATOM     25  N   UNL     1      33.685 -14.568 -24.312  0.00  0.00    -0.246 N 
ATOM     26  C   UNL     1      34.302 -16.515 -23.071  0.00  0.00    +0.137 C 
ATOM     27  C   UNL     1      33.802 -15.942 -24.377  0.00  0.00    +0.239 C 
ATOM     28  C   UNL     1      34.044 -13.916 -23.162  0.00  0.00    +0.279 C 
ATOM     29  H   UNL     1      33.346 -14.061 -25.085  0.00  0.00    +0.158 HD
ENDBRANCH  21  26
ENDBRANCH   1  21
TORSDOF 6
ENDMDL
