MODEL 1
REMARK VINA RESULT:     -13.0      0.000      0.000
REMARK  Name = 5288641
REMARK  1 active torsions:
REMARK  status: ('A' for Active; 'I' for Inactive)
REMARK    1  A    between atoms: C_14  and  S_23
REMARK                            x       y       z     vdW  Elec       q    Type
REMARK                         _______ _______ _______ _____ _____    ______ ____
ROOT
ATOM      1  O   UNL     1      35.631 -24.456 -14.641  0.00  0.00    -0.270 OA
ATOM      2  O   UNL     1      31.911 -22.487 -17.809  0.00  0.00    -0.285 OA
ATOM      3  N   UNL     1      35.319 -22.853 -17.122  0.00  0.00    -0.310 N 
ATOM      4  N   UNL     1      33.508 -25.057 -13.795  0.00  0.00    -0.280 N 
ATOM      5  C   UNL     1      33.543 -23.810 -15.713  0.00  0.00    +0.071 C 
ATOM      6  C   UNL     1      32.150 -24.068 -15.365  0.00  0.00    +0.020 C 
ATOM      7  C   UNL     1      34.026 -23.125 -16.751  0.00  0.00    +0.092 C 
ATOM      8  C   UNL     1      32.187 -24.829 -14.193  0.00  0.00    +0.051 C 
ATOM      9  C   UNL     1      34.414 -24.461 -14.679  0.00  0.00    +0.251 C 
ATOM     10  C   UNL     1      34.033 -21.838 -18.733  0.00  0.00    +0.054 C 
ATOM     11  C   UNL     1      35.337 -22.097 -18.287  0.00  0.00    +0.051 C 
ATOM     12  C   UNL     1      33.123 -22.484 -17.770  0.00  0.00    +0.210 C 
ATOM     13  C   UNL     1      30.944 -23.722 -15.943  0.00  0.00    +0.020 C 
ATOM     14  C   UNL     1      29.769 -24.156 -15.318  0.00  0.00    +0.112 C 
ATOM     15  C   UNL     1      31.040 -25.268 -13.560  0.00  0.00    +0.016 C 
ATOM     16  C   UNL     1      29.817 -24.922 -14.139  0.00  0.00    +0.020 C 
ATOM     17  C   UNL     1      33.753 -21.107 -19.868  0.00  0.00    +0.004 C 
ATOM     18  C   UNL     1      36.417 -21.611 -18.993  0.00  0.00    +0.015 C 
ATOM     19  C   UNL     1      34.846 -20.616 -20.583  0.00  0.00    +0.000 C 
ATOM     20  C   UNL     1      36.164 -20.865 -20.151  0.00  0.00    +0.001 C 
ATOM     21  H   UNL     1      36.120 -23.151 -16.633  0.00  0.00    +0.152 HD
ATOM     22  H   UNL     1      33.768 -25.570 -12.995  0.00  0.00    +0.155 HD
ENDROOT
BRANCH  14  23
ATOM     23  S   UNL     1      28.219 -23.741 -16.012  0.00  0.00    +0.042 S 
ATOM     24  O   UNL     1      28.485 -22.374 -16.868  0.00  0.00    -0.065 OA
ATOM     25  O   UNL     1      27.865 -24.780 -16.968  0.00  0.00    -0.065 OA
ATOM     26  O   UNL     1      27.334 -23.418 -14.904  0.00  0.00    -0.065 OA
ENDBRANCH  14  23
TORSDOF 1
ENDMDL
MODEL 2
REMARK VINA RESULT:     -11.6      2.527      4.836
REMARK  Name = 5288641
REMARK  1 active torsions:
REMARK  status: ('A' for Active; 'I' for Inactive)
REMARK    1  A    between atoms: C_14  and  S_23
REMARK                            x       y       z     vdW  Elec       q    Type
REMARK                         _______ _______ _______ _____ _____    ______ ____
ROOT
ATOM      1  O   UNL     1      30.151 -22.702 -16.858  0.00  0.00    -0.270 OA
ATOM      2  O   UNL     1      35.401 -22.873 -17.256  0.00  0.00    -0.285 OA
ATOM      3  N   UNL     1      32.368 -21.771 -18.601  0.00  0.00    -0.310 N 
ATOM      4  N   UNL     1      31.017 -23.931 -15.035  0.00  0.00    -0.280 N 
ATOM      5  C   UNL     1      32.531 -23.098 -16.536  0.00  0.00    +0.071 C 
ATOM      6  C   UNL     1      33.267 -23.817 -15.500  0.00  0.00    +0.020 C 
ATOM      7  C   UNL     1      33.012 -22.458 -17.603  0.00  0.00    +0.092 C 
ATOM      8  C   UNL     1      32.299 -24.302 -14.615  0.00  0.00    +0.051 C 
ATOM      9  C   UNL     1      31.067 -23.183 -16.217  0.00  0.00    +0.251 C 
ATOM     10  C   UNL     1      34.597 -21.609 -19.136  0.00  0.00    +0.054 C 
ATOM     11  C   UNL     1      33.290 -21.267 -19.510  0.00  0.00    +0.051 C 
ATOM     12  C   UNL     1      34.488 -22.393 -17.893  0.00  0.00    +0.210 C 
ATOM     13  C   UNL     1      34.608 -24.063 -15.282  0.00  0.00    +0.020 C 
ATOM     14  C   UNL     1      34.962 -24.810 -14.153  0.00  0.00    +0.112 C 
ATOM     15  C   UNL     1      32.626 -25.040 -13.495  0.00  0.00    +0.016 C 
ATOM     16  C   UNL     1      33.980 -25.293 -13.268  0.00  0.00    +0.020 C 
ATOM     17  C   UNL     1      35.711 -21.240 -19.859  0.00  0.00    +0.004 C 
ATOM     18  C   UNL     1      33.070 -20.524 -20.651  0.00  0.00    +0.015 C 
ATOM     19  C   UNL     1      35.490 -20.489 -21.013  0.00  0.00    +0.000 C 
ATOM     20  C   UNL     1      34.183 -20.134 -21.406  0.00  0.00    +0.001 C 
ATOM     21  H   UNL     1      31.393 -21.653 -18.665  0.00  0.00    +0.152 HD
ATOM     22  H   UNL     1      30.186 -24.166 -14.560  0.00  0.00    +0.155 HD
ENDROOT
BRANCH  14  23
ATOM     23  S   UNL     1      36.648 -25.148 -13.836  0.00  0.00    +0.042 S 
ATOM     24  O   UNL     1      37.383 -23.689 -13.827  0.00  0.00    -0.065 OA
ATOM     25  O   UNL     1      36.750 -25.685 -12.487  0.00  0.00    -0.065 OA
ATOM     26  O   UNL     1      37.148 -25.901 -14.975  0.00  0.00    -0.065 OA
ENDBRANCH  14  23
TORSDOF 1
ENDMDL
MODEL 3
REMARK VINA RESULT:     -11.4      2.880      5.425
REMARK  Name = 5288641
REMARK  1 active torsions:
REMARK  status: ('A' for Active; 'I' for Inactive)
REMARK    1  A    between atoms: C_14  and  S_23
REMARK                            x       y       z     vdW  Elec       q    Type
REMARK                         _______ _______ _______ _____ _____    ______ ____
ROOT
ATOM      1  O   UNL     1      31.021 -23.415 -16.099  0.00  0.00    -0.270 OA
ATOM      2  O   UNL     1      36.079 -22.702 -17.389  0.00  0.00    -0.285 OA
ATOM      3  N   UNL     1      32.720 -22.142 -18.177  0.00  0.00    -0.310 N 
ATOM      4  N   UNL     1      32.380 -24.461 -14.474  0.00  0.00    -0.280 N 
ATOM      5  C   UNL     1      33.454 -23.400 -16.195  0.00  0.00    +0.071 C 
ATOM      6  C   UNL     1      34.466 -23.974 -15.313  0.00  0.00    +0.020 C 
ATOM      7  C   UNL     1      33.630 -22.700 -17.316  0.00  0.00    +0.092 C 
ATOM      8  C   UNL     1      33.758 -24.606 -14.285  0.00  0.00    +0.051 C 
ATOM      9  C   UNL     1      32.101 -23.728 -15.633  0.00  0.00    +0.251 C 
ATOM     10  C   UNL     1      34.765 -21.612 -19.081  0.00  0.00    +0.054 C 
ATOM     11  C   UNL     1      33.374 -21.499 -19.220  0.00  0.00    +0.051 C 
ATOM     12  C   UNL     1      35.003 -22.390 -17.852  0.00  0.00    +0.210 C 
ATOM     13  C   UNL     1      35.847 -23.988 -15.331  0.00  0.00    +0.020 C 
ATOM     14  C   UNL     1      36.508 -24.653 -14.292  0.00  0.00    +0.112 C 
ATOM     15  C   UNL     1      34.392 -25.267 -13.251  0.00  0.00    +0.016 C 
ATOM     16  C   UNL     1      35.788 -25.285 -13.263  0.00  0.00    +0.020 C 
ATOM     17  C   UNL     1      35.661 -21.068 -19.976  0.00  0.00    +0.004 C 
ATOM     18  C   UNL     1      32.842 -20.816 -20.293  0.00  0.00    +0.015 C 
ATOM     19  C   UNL     1      35.123 -20.377 -21.061  0.00  0.00    +0.000 C 
ATOM     20  C   UNL     1      33.727 -20.252 -21.219  0.00  0.00    +0.001 C 
ATOM     21  H   UNL     1      31.742 -22.190 -18.072  0.00  0.00    +0.152 HD
ATOM     22  H   UNL     1      31.694 -24.827 -13.869  0.00  0.00    +0.155 HD
ENDROOT
BRANCH  14  23
ATOM     23  S   UNL     1      38.256 -24.699 -14.273  0.00  0.00    +0.042 S 
ATOM     24  O   UNL     1      38.650 -26.208 -14.760  0.00  0.00    -0.065 OA
ATOM     25  O   UNL     1      38.739 -23.782 -15.295  0.00  0.00    -0.065 OA
ATOM     26  O   UNL     1      38.667 -24.548 -12.886  0.00  0.00    -0.065 OA
ENDBRANCH  14  23
TORSDOF 1
ENDMDL
MODEL 4
REMARK VINA RESULT:     -10.5      2.236      2.910
REMARK  Name = 5288641
REMARK  1 active torsions:
REMARK  status: ('A' for Active; 'I' for Inactive)
REMARK    1  A    between atoms: C_14  and  S_23
REMARK                            x       y       z     vdW  Elec       q    Type
REMARK                         _______ _______ _______ _____ _____    ______ ____
ROOT
ATOM      1  O   UNL     1      38.235 -23.046 -15.745  0.00  0.00    -0.270 OA
ATOM      2  O   UNL     1      33.133 -22.711 -17.014  0.00  0.00    -0.285 OA
ATOM      3  N   UNL     1      36.448 -22.021 -17.884  0.00  0.00    -0.310 N 
ATOM      4  N   UNL     1      36.953 -24.050 -14.033  0.00  0.00    -0.280 N 
ATOM      5  C   UNL     1      35.805 -23.176 -15.809  0.00  0.00    +0.071 C 
ATOM      6  C   UNL     1      34.836 -23.741 -14.876  0.00  0.00    +0.020 C 
ATOM      7  C   UNL     1      35.579 -22.567 -16.975  0.00  0.00    +0.092 C 
ATOM      8  C   UNL     1      35.587 -24.258 -13.816  0.00  0.00    +0.051 C 
ATOM      9  C   UNL     1      37.179 -23.386 -15.243  0.00  0.00    +0.251 C 
ATOM     10  C   UNL     1      34.368 -21.674 -18.797  0.00  0.00    +0.054 C 
ATOM     11  C   UNL     1      35.749 -21.492 -18.962  0.00  0.00    +0.051 C 
ATOM     12  C   UNL     1      34.186 -22.373 -17.512  0.00  0.00    +0.210 C 
ATOM     13  C   UNL     1      33.457 -23.835 -14.876  0.00  0.00    +0.020 C 
ATOM     14  C   UNL     1      32.844 -24.461 -13.785  0.00  0.00    +0.112 C 
ATOM     15  C   UNL     1      35.002 -24.880 -12.730  0.00  0.00    +0.016 C 
ATOM     16  C   UNL     1      33.609 -24.978 -12.723  0.00  0.00    +0.020 C 
ATOM     17  C   UNL     1      33.434 -21.245 -19.716  0.00  0.00    +0.004 C 
ATOM     18  C   UNL     1      36.231 -20.857 -20.086  0.00  0.00    +0.015 C 
ATOM     19  C   UNL     1      33.923 -20.602 -20.853  0.00  0.00    +0.000 C 
ATOM     20  C   UNL     1      35.307 -20.410 -21.037  0.00  0.00    +0.001 C 
ATOM     21  H   UNL     1      37.427 -22.006 -17.789  0.00  0.00    +0.152 HD
ATOM     22  H   UNL     1      37.664 -24.334 -13.413  0.00  0.00    +0.155 HD
ENDROOT
BRANCH  14  23
ATOM     23  S   UNL     1      31.102 -24.602 -13.739  0.00  0.00    +0.042 S 
ATOM     24  O   UNL     1      30.775 -26.075 -14.369  0.00  0.00    -0.065 OA
ATOM     25  O   UNL     1      30.693 -24.636 -12.343  0.00  0.00    -0.065 OA
ATOM     26  O   UNL     1      30.573 -23.595 -14.644  0.00  0.00    -0.065 OA
ENDBRANCH  14  23
TORSDOF 1
ENDMDL
MODEL 5
REMARK VINA RESULT:     -10.4      3.540      7.046
REMARK  Name = 5288641
REMARK  1 active torsions:
REMARK  status: ('A' for Active; 'I' for Inactive)
REMARK    1  A    between atoms: C_14  and  S_23
REMARK                            x       y       z     vdW  Elec       q    Type
REMARK                         _______ _______ _______ _____ _____    ______ ____
ROOT
ATOM      1  O   UNL     1      34.132 -22.109 -18.129  0.00  0.00    -0.270 OA
ATOM      2  O   UNL     1      33.397 -24.854 -13.694  0.00  0.00    -0.285 OA
ATOM      3  N   UNL     1      31.973 -23.345 -16.507  0.00  0.00    -0.310 N 
ATOM      4  N   UNL     1      36.227 -22.472 -17.097  0.00  0.00    -0.280 N 
ATOM      5  C   UNL     1      34.388 -23.330 -16.039  0.00  0.00    +0.071 C 
ATOM      6  C   UNL     1      35.566 -23.661 -15.243  0.00  0.00    +0.020 C 
ATOM      7  C   UNL     1      33.111 -23.631 -15.797  0.00  0.00    +0.092 C 
ATOM      8  C   UNL     1      36.654 -23.116 -15.932  0.00  0.00    +0.051 C 
ATOM      9  C   UNL     1      34.837 -22.554 -17.242  0.00  0.00    +0.251 C 
ATOM     10  C   UNL     1      31.230 -24.529 -14.684  0.00  0.00    +0.054 C 
ATOM     11  C   UNL     1      30.859 -23.868 -15.863  0.00  0.00    +0.051 C 
ATOM     12  C   UNL     1      32.696 -24.411 -14.578  0.00  0.00    +0.210 C 
ATOM     13  C   UNL     1      35.753 -24.348 -14.059  0.00  0.00    +0.020 C 
ATOM     14  C   UNL     1      37.060 -24.477 -13.577  0.00  0.00    +0.112 C 
ATOM     15  C   UNL     1      37.951 -23.232 -15.474  0.00  0.00    +0.016 C 
ATOM     16  C   UNL     1      38.148 -23.925 -14.277  0.00  0.00    +0.020 C 
ATOM     17  C   UNL     1      30.325 -25.142 -13.843  0.00  0.00    +0.004 C 
ATOM     18  C   UNL     1      29.531 -23.809 -16.232  0.00  0.00    +0.015 C 
ATOM     19  C   UNL     1      28.983 -25.082 -14.217  0.00  0.00    +0.000 C 
ATOM     20  C   UNL     1      28.589 -24.423 -15.399  0.00  0.00    +0.001 C 
ATOM     21  H   UNL     1      31.948 -22.841 -17.352  0.00  0.00    +0.152 HD
ATOM     22  H   UNL     1      36.826 -22.017 -17.734  0.00  0.00    +0.155 HD
ENDROOT
BRANCH  14  23
ATOM     23  S   UNL     1      37.346 -25.336 -12.081  0.00  0.00    +0.042 S 
ATOM     24  O   UNL     1      38.024 -24.238 -11.079  0.00  0.00    -0.065 OA
ATOM     25  O   UNL     1      36.054 -25.690 -11.514  0.00  0.00    -0.065 OA
ATOM     26  O   UNL     1      38.337 -26.362 -12.367  0.00  0.00    -0.065 OA
ENDBRANCH  14  23
TORSDOF 1
ENDMDL
MODEL 6
REMARK VINA RESULT:     -10.1      2.966      6.420
REMARK  Name = 5288641
REMARK  1 active torsions:
REMARK  status: ('A' for Active; 'I' for Inactive)
REMARK    1  A    between atoms: C_14  and  S_23
REMARK                            x       y       z     vdW  Elec       q    Type
REMARK                         _______ _______ _______ _____ _____    ______ ____
ROOT
ATOM      1  O   UNL     1      35.197 -24.477 -12.456  0.00  0.00    -0.270 OA
ATOM      2  O   UNL     1      32.607 -23.324 -16.896  0.00  0.00    -0.285 OA
ATOM      3  N   UNL     1      32.498 -24.686 -13.678  0.00  0.00    -0.310 N 
ATOM      4  N   UNL     1      36.693 -23.451 -13.970  0.00  0.00    -0.280 N 
ATOM      5  C   UNL     1      34.534 -23.731 -14.677  0.00  0.00    +0.071 C 
ATOM      6  C   UNL     1      35.284 -23.088 -15.751  0.00  0.00    +0.020 C 
ATOM      7  C   UNL     1      33.247 -24.082 -14.656  0.00  0.00    +0.092 C 
ATOM      8  C   UNL     1      36.588 -22.941 -15.268  0.00  0.00    +0.051 C 
ATOM      9  C   UNL     1      35.469 -23.961 -13.525  0.00  0.00    +0.251 C 
ATOM     10  C   UNL     1      31.025 -24.358 -15.411  0.00  0.00    +0.054 C 
ATOM     11  C   UNL     1      31.188 -24.854 -14.110  0.00  0.00    +0.051 C 
ATOM     12  C   UNL     1      32.338 -23.836 -15.831  0.00  0.00    +0.210 C 
ATOM     13  C   UNL     1      34.947 -22.651 -17.017  0.00  0.00    +0.020 C 
ATOM     14  C   UNL     1      35.950 -22.062 -17.795  0.00  0.00    +0.112 C 
ATOM     15  C   UNL     1      37.592 -22.363 -16.019  0.00  0.00    +0.016 C 
ATOM     16  C   UNL     1      37.259 -21.919 -17.300  0.00  0.00    +0.020 C 
ATOM     17  C   UNL     1      29.825 -24.395 -16.089  0.00  0.00    +0.004 C 
ATOM     18  C   UNL     1      30.118 -25.415 -13.446  0.00  0.00    +0.015 C 
ATOM     19  C   UNL     1      28.742 -24.962 -15.417  0.00  0.00    +0.000 C 
ATOM     20  C   UNL     1      28.886 -25.467 -14.109  0.00  0.00    +0.001 C 
ATOM     21  H   UNL     1      32.839 -24.962 -12.797  0.00  0.00    +0.152 HD
ATOM     22  H   UNL     1      37.522 -23.452 -13.438  0.00  0.00    +0.155 HD
ENDROOT
BRANCH  14  23
ATOM     23  S   UNL     1      35.572 -21.495 -19.405  0.00  0.00    +0.042 S 
ATOM     24  O   UNL     1      33.975 -21.152 -19.374  0.00  0.00    -0.065 OA
ATOM     25  O   UNL     1      36.274 -20.238 -19.613  0.00  0.00    -0.065 OA
ATOM     26  O   UNL     1      35.777 -22.618 -20.306  0.00  0.00    -0.065 OA
ENDBRANCH  14  23
TORSDOF 1
ENDMDL
