MODEL 1
REMARK VINA RESULT:     -12.2      0.000      0.000
REMARK  Name = 6450813
REMARK  4 active torsions:
REMARK  status: ('A' for Active; 'I' for Inactive)
REMARK    1  A    between atoms: C_4  and  C_10
REMARK    2  A    between atoms: C_6  and  C_22
REMARK    3  A    between atoms: C_12  and  N_17
REMARK    4  A    between atoms: C_22  and  C_24
REMARK                            x       y       z     vdW  Elec       q    Type
REMARK                         _______ _______ _______ _____ _____    ______ ____
ROOT
ATOM      1  N   UNL     1      34.766 -16.303 -22.222  0.00  0.00    -0.191 N 
ATOM      2  N   UNL     1      34.918 -15.757 -20.983  0.00  0.00    -0.179 NA
ATOM      3  N   UNL     1      34.071 -15.658 -24.440  0.00  0.00    -0.231 NA
ATOM      4  C   UNL     1      35.002 -17.631 -22.617  0.00  0.00    +0.143 C 
ATOM      5  C   UNL     1      34.307 -15.348 -23.134  0.00  0.00    +0.141 C 
ATOM      6  C   UNL     1      34.180 -14.168 -22.436  0.00  0.00    +0.161 C 
ATOM      7  C   UNL     1      34.781 -17.980 -23.895  0.00  0.00    +0.020 C 
ATOM      8  C   UNL     1      34.566 -14.481 -21.129  0.00  0.00    +0.106 C 
ATOM      9  C   UNL     1      34.295 -16.890 -24.778  0.00  0.00    +0.097 C 
ENDROOT
BRANCH   4  10
ATOM     10  C   UNL     1      35.498 -18.645 -21.669  0.00  0.00    +0.003 C 
ATOM     11  C   UNL     1      34.604 -19.523 -21.054  0.00  0.00    +0.013 C 
ATOM     12  C   UNL     1      35.073 -20.483 -20.158  0.00  0.00    +0.054 C 
ATOM     13  C   UNL     1      36.861 -18.729 -21.387  0.00  0.00    -0.002 C 
ATOM     14  C   UNL     1      36.437 -20.567 -19.876  0.00  0.00    +0.015 C 
ATOM     15  C   UNL     1      37.331 -19.689 -20.491  0.00  0.00    +0.001 C 
BRANCH  12  17
ATOM     16  O   UNL     1      35.763 -22.585 -18.291  0.00  0.00    -0.275 OA
ATOM     17  N   UNL     1      34.180 -21.361 -19.542  0.00  0.00    -0.257 N 
ATOM     18  C   UNL     1      32.719 -21.196 -19.812  0.00  0.00    +0.120 C 
ATOM     19  C   UNL     1      34.588 -22.360 -18.592  0.00  0.00    +0.230 C 
ATOM     20  C   UNL     1      33.514 -23.160 -17.891  0.00  0.00    +0.095 C 
ENDBRANCH  12  17
ENDBRANCH   4  10
BRANCH   6  22
ATOM     21  O   UNL     1      34.244 -12.423 -24.001  0.00  0.00    -0.290 OA
ATOM     22  C   UNL     1      33.740 -12.916 -22.973  0.00  0.00    +0.191 C 
BRANCH  22  24
ATOM     23  S   UNL     1      32.304 -10.626 -22.769  0.00  0.00    -0.084 S 
ATOM     24  C   UNL     1      32.647 -12.200 -22.271  0.00  0.00    +0.065 C 
ATOM     25  C   UNL     1      31.885 -12.669 -21.269  0.00  0.00    +0.010 C 
ATOM     26  C   UNL     1      30.944 -11.681 -20.862  0.00  0.00    +0.008 C 
ATOM     27  C   UNL     1      31.061 -10.521 -21.595  0.00  0.00    +0.036 C 
ENDBRANCH  22  24
ENDBRANCH   6  22
TORSDOF 4
ENDMDL
MODEL 2
REMARK VINA RESULT:     -11.2      3.248      8.836
REMARK  Name = 6450813
REMARK  4 active torsions:
REMARK  status: ('A' for Active; 'I' for Inactive)
REMARK    1  A    between atoms: C_4  and  C_10
REMARK    2  A    between atoms: C_6  and  C_22
REMARK    3  A    between atoms: C_12  and  N_17
REMARK    4  A    between atoms: C_22  and  C_24
REMARK                            x       y       z     vdW  Elec       q    Type
REMARK                         _______ _______ _______ _____ _____    ______ ____
ROOT
ATOM      1  N   UNL     1      34.127 -15.191 -22.298  0.00  0.00    -0.191 N 
ATOM      2  N   UNL     1      34.310 -15.105 -20.950  0.00  0.00    -0.179 NA
ATOM      3  N   UNL     1      34.584 -16.705 -24.119  0.00  0.00    -0.231 NA
ATOM      4  C   UNL     1      33.527 -14.250 -23.151  0.00  0.00    +0.143 C 
ATOM      5  C   UNL     1      34.641 -16.393 -22.794  0.00  0.00    +0.141 C 
ATOM      6  C   UNL     1      35.152 -17.077 -21.714  0.00  0.00    +0.161 C 
ATOM      7  C   UNL     1      33.449 -14.517 -24.466  0.00  0.00    +0.020 C 
ATOM      8  C   UNL     1      34.921 -16.240 -20.617  0.00  0.00    +0.106 C 
ATOM      9  C   UNL     1      34.026 -15.818 -24.885  0.00  0.00    +0.097 C 
ENDROOT
BRANCH   4  10
ATOM     10  C   UNL     1      32.968 -12.985 -22.640  0.00  0.00    +0.003 C 
ATOM     11  C   UNL     1      33.268 -11.780 -23.279  0.00  0.00    +0.013 C 
ATOM     12  C   UNL     1      32.740 -10.584 -22.796  0.00  0.00    +0.054 C 
ATOM     13  C   UNL     1      32.140 -12.991 -21.519  0.00  0.00    -0.002 C 
ATOM     14  C   UNL     1      31.911 -10.590 -21.674  0.00  0.00    +0.015 C 
ATOM     15  C   UNL     1      31.611 -11.794 -21.035  0.00  0.00    +0.001 C 
BRANCH  12  17
ATOM     16  O   UNL     1      35.390  -9.528 -23.286  0.00  0.00    -0.275 OA
ATOM     17  N   UNL     1      33.039  -9.379 -23.433  0.00  0.00    -0.257 N 
ATOM     18  C   UNL     1      31.911  -8.556 -23.968  0.00  0.00    +0.120 C 
ATOM     19  C   UNL     1      34.384  -8.932 -23.678  0.00  0.00    +0.230 C 
ATOM     20  C   UNL     1      34.581  -7.677 -24.496  0.00  0.00    +0.095 C 
ENDBRANCH  12  17
ENDBRANCH   4  10
BRANCH   6  22
ATOM     21  O   UNL     1      36.821 -18.571 -22.404  0.00  0.00    -0.290 OA
ATOM     22  C   UNL     1      35.779 -18.363 -21.752  0.00  0.00    +0.191 C 
BRANCH  22  24
ATOM     23  S   UNL     1      36.177 -20.461 -20.084  0.00  0.00    -0.084 S 
ATOM     24  C   UNL     1      35.156 -19.468 -20.985  0.00  0.00    +0.065 C 
ATOM     25  C   UNL     1      33.849 -19.774 -20.922  0.00  0.00    +0.010 C 
ATOM     26  C   UNL     1      33.647 -20.903 -20.079  0.00  0.00    +0.008 C 
ATOM     27  C   UNL     1      34.829 -21.378 -19.557  0.00  0.00    +0.036 C 
ENDBRANCH  22  24
ENDBRANCH   6  22
TORSDOF 4
ENDMDL
MODEL 3
REMARK VINA RESULT:     -11.2      4.660     10.145
REMARK  Name = 6450813
REMARK  4 active torsions:
REMARK  status: ('A' for Active; 'I' for Inactive)
REMARK    1  A    between atoms: C_4  and  C_10
REMARK    2  A    between atoms: C_6  and  C_22
REMARK    3  A    between atoms: C_12  and  N_17
REMARK    4  A    between atoms: C_22  and  C_24
REMARK                            x       y       z     vdW  Elec       q    Type
REMARK                         _______ _______ _______ _____ _____    ______ ____
ROOT
ATOM      1  N   UNL     1      35.647 -21.870 -17.975  0.00  0.00    -0.191 N 
ATOM      2  N   UNL     1      36.854 -21.468 -17.486  0.00  0.00    -0.179 NA
ATOM      3  N   UNL     1      33.813 -23.317 -17.376  0.00  0.00    -0.231 NA
ATOM      4  C   UNL     1      35.035 -21.495 -19.183  0.00  0.00    +0.143 C 
ATOM      5  C   UNL     1      35.029 -22.768 -17.100  0.00  0.00    +0.141 C 
ATOM      6  C   UNL     1      35.880 -22.920 -16.028  0.00  0.00    +0.161 C 
ATOM      7  C   UNL     1      33.835 -22.013 -19.495  0.00  0.00    +0.020 C 
ATOM      8  C   UNL     1      36.977 -22.102 -16.322  0.00  0.00    +0.106 C 
ATOM      9  C   UNL     1      33.271 -22.956 -18.498  0.00  0.00    +0.097 C 
ENDROOT
BRANCH   4  10
ATOM     10  C   UNL     1      35.669 -20.539 -20.110  0.00  0.00    +0.003 C 
ATOM     11  C   UNL     1      34.926 -19.976 -21.149  0.00  0.00    +0.013 C 
ATOM     12  C   UNL     1      35.525 -19.072 -22.025  0.00  0.00    +0.054 C 
ATOM     13  C   UNL     1      37.011 -20.196 -19.948  0.00  0.00    -0.002 C 
ATOM     14  C   UNL     1      36.868 -18.729 -21.863  0.00  0.00    +0.015 C 
ATOM     15  C   UNL     1      37.611 -19.291 -20.824  0.00  0.00    +0.001 C 
BRANCH  12  17
ATOM     16  O   UNL     1      35.276 -16.247 -22.607  0.00  0.00    -0.275 OA
ATOM     17  N   UNL     1      34.784 -18.510 -23.065  0.00  0.00    -0.257 N 
ATOM     18  C   UNL     1      34.081 -19.425 -24.015  0.00  0.00    +0.120 C 
ATOM     19  C   UNL     1      34.734 -17.096 -23.320  0.00  0.00    +0.230 C 
ATOM     20  C   UNL     1      34.007 -16.619 -24.556  0.00  0.00    +0.095 C 
ENDBRANCH  12  17
ENDBRANCH   4  10
BRANCH   6  22
ATOM     21  O   UNL     1      34.797 -23.466 -14.022  0.00  0.00    -0.290 OA
ATOM     22  C   UNL     1      35.652 -23.749 -14.884  0.00  0.00    +0.191 C 
BRANCH  22  24
ATOM     23  S   UNL     1      38.056 -24.801 -14.202  0.00  0.00    -0.084 S 
ATOM     24  C   UNL     1      36.467 -24.979 -14.739  0.00  0.00    +0.065 C 
ATOM     25  C   UNL     1      36.079 -26.241 -14.989  0.00  0.00    +0.010 C 
ATOM     26  C   UNL     1      37.148 -27.145 -14.729  0.00  0.00    +0.008 C 
ATOM     27  C   UNL     1      38.282 -26.496 -14.295  0.00  0.00    +0.036 C 
ENDBRANCH  22  24
ENDBRANCH   6  22
TORSDOF 4
ENDMDL
MODEL 4
REMARK VINA RESULT:     -10.8      1.268      1.561
REMARK  Name = 6450813
REMARK  4 active torsions:
REMARK  status: ('A' for Active; 'I' for Inactive)
REMARK    1  A    between atoms: C_4  and  C_10
REMARK    2  A    between atoms: C_6  and  C_22
REMARK    3  A    between atoms: C_12  and  N_17
REMARK    4  A    between atoms: C_22  and  C_24
REMARK                            x       y       z     vdW  Elec       q    Type
REMARK                         _______ _______ _______ _____ _____    ______ ____
ROOT
ATOM      1  N   UNL     1      34.645 -16.539 -22.806  0.00  0.00    -0.191 N 
ATOM      2  N   UNL     1      35.042 -15.755 -21.765  0.00  0.00    -0.179 NA
ATOM      3  N   UNL     1      33.484 -16.348 -24.911  0.00  0.00    -0.231 NA
ATOM      4  C   UNL     1      34.826 -17.924 -22.963  0.00  0.00    +0.143 C 
ATOM      5  C   UNL     1      33.982 -15.782 -23.776  0.00  0.00    +0.141 C 
ATOM      6  C   UNL     1      33.976 -14.482 -23.323  0.00  0.00    +0.161 C 
ATOM      7  C   UNL     1      34.349 -18.523 -24.068  0.00  0.00    +0.020 C 
ATOM      8  C   UNL     1      34.637 -14.529 -22.090  0.00  0.00    +0.106 C 
ATOM      9  C   UNL     1      33.662 -17.627 -25.031  0.00  0.00    +0.097 C 
ENDROOT
BRANCH   4  10
ATOM     10  C   UNL     1      35.535 -18.733 -21.956  0.00  0.00    +0.003 C 
ATOM     11  C   UNL     1      34.825 -19.619 -21.145  0.00  0.00    +0.013 C 
ATOM     12  C   UNL     1      35.495 -20.385 -20.192  0.00  0.00    +0.054 C 
ATOM     13  C   UNL     1      36.917 -18.614 -21.813  0.00  0.00    -0.002 C 
ATOM     14  C   UNL     1      36.878 -20.265 -20.049  0.00  0.00    +0.015 C 
ATOM     15  C   UNL     1      37.589 -19.380 -20.859  0.00  0.00    +0.001 C 
BRANCH  12  17
ATOM     16  O   UNL     1      32.615 -20.642 -20.060  0.00  0.00    -0.275 OA
ATOM     17  N   UNL     1      34.785 -21.271 -19.380  0.00  0.00    -0.257 N 
ATOM     18  C   UNL     1      35.555 -22.223 -18.522  0.00  0.00    +0.120 C 
ATOM     19  C   UNL     1      33.351 -21.372 -19.393  0.00  0.00    +0.230 C 
ATOM     20  C   UNL     1      32.705 -22.462 -18.568  0.00  0.00    +0.095 C 
ENDBRANCH  12  17
ENDBRANCH   4  10
BRANCH   6  22
ATOM     21  O   UNL     1      33.398 -13.264 -25.241  0.00  0.00    -0.290 OA
ATOM     22  C   UNL     1      33.402 -13.357 -23.997  0.00  0.00    +0.191 C 
BRANCH  22  24
ATOM     23  S   UNL     1      31.850 -12.752 -21.859  0.00  0.00    -0.084 S 
ATOM     24  C   UNL     1      32.795 -12.283 -23.175  0.00  0.00    +0.065 C 
ATOM     25  C   UNL     1      32.914 -10.958 -23.359  0.00  0.00    +0.010 C 
ATOM     26  C   UNL     1      32.184 -10.254 -22.359  0.00  0.00    +0.008 C 
ATOM     27  C   UNL     1      31.557 -11.107 -21.479  0.00  0.00    +0.036 C 
ENDBRANCH  22  24
ENDBRANCH   6  22
TORSDOF 4
ENDMDL
MODEL 5
REMARK VINA RESULT:     -10.8      3.358      9.094
REMARK  Name = 6450813
REMARK  4 active torsions:
REMARK  status: ('A' for Active; 'I' for Inactive)
REMARK    1  A    between atoms: C_4  and  C_10
REMARK    2  A    between atoms: C_6  and  C_22
REMARK    3  A    between atoms: C_12  and  N_17
REMARK    4  A    between atoms: C_22  and  C_24
REMARK                            x       y       z     vdW  Elec       q    Type
REMARK                         _______ _______ _______ _____ _____    ______ ____
ROOT
ATOM      1  N   UNL     1      33.861 -14.588 -23.074  0.00  0.00    -0.191 N 
ATOM      2  N   UNL     1      34.169 -14.701 -21.752  0.00  0.00    -0.179 NA
ATOM      3  N   UNL     1      33.983 -15.883 -25.105  0.00  0.00    -0.231 NA
ATOM      4  C   UNL     1      33.299 -13.486 -23.740  0.00  0.00    +0.143 C 
ATOM      5  C   UNL     1      34.191 -15.758 -23.765  0.00  0.00    +0.141 C 
ATOM      6  C   UNL     1      34.713 -16.629 -22.834  0.00  0.00    +0.161 C 
ATOM      7  C   UNL     1      33.077 -13.566 -25.062  0.00  0.00    +0.020 C 
ATOM      8  C   UNL     1      34.675 -15.927 -21.624  0.00  0.00    +0.106 C 
ATOM      9  C   UNL     1      33.465 -14.851 -25.696  0.00  0.00    +0.097 C 
ENDROOT
BRANCH   4  10
ATOM     10  C   UNL     1      32.934 -12.250 -23.023  0.00  0.00    +0.003 C 
ATOM     11  C   UNL     1      33.350 -11.011 -23.510  0.00  0.00    +0.013 C 
ATOM     12  C   UNL     1      33.005  -9.842 -22.832  0.00  0.00    +0.054 C 
ATOM     13  C   UNL     1      32.171 -12.320 -21.857  0.00  0.00    -0.002 C 
ATOM     14  C   UNL     1      32.242  -9.912 -21.666  0.00  0.00    +0.015 C 
ATOM     15  C   UNL     1      31.825 -11.151 -21.178  0.00  0.00    +0.001 C 
BRANCH  12  17
ATOM     16  O   UNL     1      35.728  -9.082 -23.453  0.00  0.00    -0.275 OA
ATOM     17  N   UNL     1      33.422  -8.602 -23.318  0.00  0.00    -0.257 N 
ATOM     18  C   UNL     1      32.385  -7.563 -23.602  0.00  0.00    +0.120 C 
ATOM     19  C   UNL     1      34.790  -8.304 -23.642  0.00  0.00    +0.230 C 
ATOM     20  C   UNL     1      35.097  -6.972 -24.287  0.00  0.00    +0.095 C 
ENDBRANCH  12  17
ENDBRANCH   4  10
BRANCH   6  22
ATOM     21  O   UNL     1      35.140 -18.462 -24.233  0.00  0.00    -0.290 OA
ATOM     22  C   UNL     1      35.185 -17.955 -23.094  0.00  0.00    +0.191 C 
BRANCH  22  24
ATOM     23  S   UNL     1      34.733 -19.858 -21.218  0.00  0.00    -0.084 S 
ATOM     24  C   UNL     1      35.744 -18.733 -21.962  0.00  0.00    +0.065 C 
ATOM     25  C   UNL     1      36.985 -18.643 -21.454  0.00  0.00    +0.010 C 
ATOM     26  C   UNL     1      37.139 -19.556 -20.371  0.00  0.00    +0.008 C 
ATOM     27  C   UNL     1      35.992 -20.279 -20.135  0.00  0.00    +0.036 C 
ENDBRANCH  22  24
ENDBRANCH   6  22
TORSDOF 4
ENDMDL
MODEL 6
REMARK VINA RESULT:     -10.8      3.466      8.903
REMARK  Name = 6450813
REMARK  4 active torsions:
REMARK  status: ('A' for Active; 'I' for Inactive)
REMARK    1  A    between atoms: C_4  and  C_10
REMARK    2  A    between atoms: C_6  and  C_22
REMARK    3  A    between atoms: C_12  and  N_17
REMARK    4  A    between atoms: C_22  and  C_24
REMARK                            x       y       z     vdW  Elec       q    Type
REMARK                         _______ _______ _______ _____ _____    ______ ____
ROOT
ATOM      1  N   UNL     1      34.381 -21.185 -19.579  0.00  0.00    -0.191 N 
ATOM      2  N   UNL     1      33.039 -21.117 -19.807  0.00  0.00    -0.179 NA
ATOM      3  N   UNL     1      35.942 -22.295 -18.113  0.00  0.00    -0.231 NA
ATOM      4  C   UNL     1      35.407 -20.496 -20.248  0.00  0.00    +0.143 C 
ATOM      5  C   UNL     1      34.665 -22.066 -18.532  0.00  0.00    +0.141 C 
ATOM      6  C   UNL     1      33.457 -22.567 -18.101  0.00  0.00    +0.161 C 
ATOM      7  C   UNL     1      36.681 -20.692 -19.867  0.00  0.00    +0.020 C 
ATOM      8  C   UNL     1      32.502 -21.950 -18.917  0.00  0.00    +0.106 C 
ATOM      9  C   UNL     1      36.869 -21.645 -18.745  0.00  0.00    +0.097 C 
ENDROOT
BRANCH   4  10
ATOM     10  C   UNL     1      35.124 -19.574 -21.363  0.00  0.00    +0.003 C 
ATOM     11  C   UNL     1      35.035 -18.201 -21.130  0.00  0.00    +0.013 C 
ATOM     12  C   UNL     1      34.768 -17.329 -22.185  0.00  0.00    +0.054 C 
ATOM     13  C   UNL     1      34.945 -20.074 -22.653  0.00  0.00    -0.002 C 
ATOM     14  C   UNL     1      34.589 -17.830 -23.474  0.00  0.00    +0.015 C 
ATOM     15  C   UNL     1      34.677 -19.202 -23.709  0.00  0.00    +0.001 C 
BRANCH  12  17
ATOM     16  O   UNL     1      34.506 -15.271 -24.204  0.00  0.00    -0.275 OA
ATOM     17  N   UNL     1      34.678 -15.956 -21.952  0.00  0.00    -0.257 N 
ATOM     18  C   UNL     1      34.662 -15.473 -20.537  0.00  0.00    +0.120 C 
ATOM     19  C   UNL     1      34.511 -14.989 -23.003  0.00  0.00    +0.230 C 
ATOM     20  C   UNL     1      34.290 -13.545 -22.617  0.00  0.00    +0.095 C 
ENDBRANCH  12  17
ENDBRANCH   4  10
BRANCH   6  22
ATOM     21  O   UNL     1      34.049 -24.462 -16.855  0.00  0.00    -0.290 OA
ATOM     22  C   UNL     1      33.266 -23.510 -17.042  0.00  0.00    +0.191 C 
BRANCH  22  24
ATOM     23  S   UNL     1      32.373 -23.388 -14.486  0.00  0.00    -0.084 S 
ATOM     24  C   UNL     1      32.097 -23.330 -16.148  0.00  0.00    +0.065 C 
ATOM     25  C   UNL     1      30.821 -23.123 -16.516  0.00  0.00    +0.010 C 
ATOM     26  C   UNL     1      29.991 -22.999 -15.366  0.00  0.00    +0.008 C 
ATOM     27  C   UNL     1      30.706 -23.123 -14.196  0.00  0.00    +0.036 C 
ENDBRANCH  22  24
ENDBRANCH   6  22
TORSDOF 4
ENDMDL
MODEL 7
REMARK VINA RESULT:     -10.8      5.588      9.136
REMARK  Name = 6450813
REMARK  4 active torsions:
REMARK  status: ('A' for Active; 'I' for Inactive)
REMARK    1  A    between atoms: C_4  and  C_10
REMARK    2  A    between atoms: C_6  and  C_22
REMARK    3  A    between atoms: C_12  and  N_17
REMARK    4  A    between atoms: C_22  and  C_24
REMARK                            x       y       z     vdW  Elec       q    Type
REMARK                         _______ _______ _______ _____ _____    ______ ____
ROOT
ATOM      1  N   UNL     1      33.919 -23.134 -16.732  0.00  0.00    -0.191 N 
ATOM      2  N   UNL     1      32.946 -23.085 -17.685  0.00  0.00    -0.179 NA
ATOM      3  N   UNL     1      36.256 -22.599 -16.465  0.00  0.00    -0.231 NA
ATOM      4  C   UNL     1      33.814 -23.603 -15.412  0.00  0.00    +0.143 C 
ATOM      5  C   UNL     1      35.130 -22.644 -17.231  0.00  0.00    +0.141 C 
ATOM      6  C   UNL     1      34.894 -22.271 -18.536  0.00  0.00    +0.161 C 
ATOM      7  C   UNL     1      34.901 -23.578 -14.622  0.00  0.00    +0.020 C 
ATOM      8  C   UNL     1      33.544 -22.565 -18.755  0.00  0.00    +0.106 C 
ATOM      9  C   UNL     1      36.132 -23.040 -15.252  0.00  0.00    +0.097 C 
ENDROOT
BRANCH   4  10
ATOM     10  C   UNL     1      32.541 -24.111 -14.868  0.00  0.00    +0.003 C 
ATOM     11  C   UNL     1      31.336 -23.789 -15.494  0.00  0.00    +0.013 C 
ATOM     12  C   UNL     1      30.132 -24.269 -14.980  0.00  0.00    +0.054 C 
ATOM     13  C   UNL     1      32.540 -24.913 -13.728  0.00  0.00    -0.002 C 
ATOM     14  C   UNL     1      30.132 -25.071 -13.839  0.00  0.00    +0.015 C 
ATOM     15  C   UNL     1      31.336 -25.393 -13.212  0.00  0.00    +0.001 C 
BRANCH  12  17
ATOM     16  O   UNL     1      28.577 -21.865 -14.548  0.00  0.00    -0.275 OA
ATOM     17  N   UNL     1      28.926 -23.947 -15.605  0.00  0.00    -0.257 N 
ATOM     18  C   UNL     1      28.385 -24.885 -16.635  0.00  0.00    +0.120 C 
ATOM     19  C   UNL     1      28.224 -22.714 -15.371  0.00  0.00    +0.230 C 
ATOM     20  C   UNL     1      27.000 -22.420 -16.207  0.00  0.00    +0.095 C 
ENDBRANCH  12  17
ENDBRANCH   4  10
BRANCH   6  22
ATOM     21  O   UNL     1      37.007 -22.174 -19.547  0.00  0.00    -0.290 OA
ATOM     22  C   UNL     1      35.855 -21.711 -19.438  0.00  0.00    +0.191 C 
BRANCH  22  24
ATOM     23  S   UNL     1      36.629 -19.407 -20.638  0.00  0.00    -0.084 S 
ATOM     24  C   UNL     1      35.446 -20.548 -20.261  0.00  0.00    +0.065 C 
ATOM     25  C   UNL     1      34.220 -20.293 -20.750  0.00  0.00    +0.010 C 
ATOM     26  C   UNL     1      34.229 -19.078 -21.492  0.00  0.00    +0.008 C 
ATOM     27  C   UNL     1      35.475 -18.492 -21.512  0.00  0.00    +0.036 C 
ENDBRANCH  22  24
ENDBRANCH   6  22
TORSDOF 4
ENDMDL
MODEL 8
REMARK VINA RESULT:     -10.6      5.736      9.320
REMARK  Name = 6450813
REMARK  4 active torsions:
REMARK  status: ('A' for Active; 'I' for Inactive)
REMARK    1  A    between atoms: C_4  and  C_10
REMARK    2  A    between atoms: C_6  and  C_22
REMARK    3  A    between atoms: C_12  and  N_17
REMARK    4  A    between atoms: C_22  and  C_24
REMARK                            x       y       z     vdW  Elec       q    Type
REMARK                         _______ _______ _______ _____ _____    ______ ____
ROOT
ATOM      1  N   UNL     1      34.258 -23.249 -16.383  0.00  0.00    -0.191 N 
ATOM      2  N   UNL     1      35.564 -23.017 -16.695  0.00  0.00    -0.179 NA
ATOM      3  N   UNL     1      32.057 -22.865 -17.291  0.00  0.00    -0.231 NA
ATOM      4  C   UNL     1      33.741 -23.879 -15.238  0.00  0.00    +0.143 C 
ATOM      5  C   UNL     1      33.412 -22.757 -17.381  0.00  0.00    +0.141 C 
ATOM      6  C   UNL     1      34.224 -22.208 -18.348  0.00  0.00    +0.161 C 
ATOM      7  C   UNL     1      32.410 -24.007 -15.108  0.00  0.00    +0.020 C 
ATOM      8  C   UNL     1      35.526 -22.396 -17.873  0.00  0.00    +0.106 C 
ATOM      9  C   UNL     1      31.606 -23.448 -16.224  0.00  0.00    +0.097 C 
ENDROOT
BRANCH   4  10
ATOM     10  C   UNL     1      34.621 -24.415 -14.184  0.00  0.00    +0.003 C 
ATOM     11  C   UNL     1      35.828 -25.027 -14.525  0.00  0.00    +0.013 C 
ATOM     12  C   UNL     1      36.661 -25.534 -13.528  0.00  0.00    +0.054 C 
ATOM     13  C   UNL     1      34.248 -24.311 -12.844  0.00  0.00    -0.002 C 
ATOM     14  C   UNL     1      36.287 -25.429 -12.188  0.00  0.00    +0.015 C 
ATOM     15  C   UNL     1      35.080 -24.818 -11.846  0.00  0.00    +0.001 C 
BRANCH  12  17
ATOM     16  O   UNL     1      39.310 -24.546 -12.905  0.00  0.00    -0.275 OA
ATOM     17  N   UNL     1      37.867 -26.147 -13.868  0.00  0.00    -0.257 N 
ATOM     18  C   UNL     1      37.823 -27.462 -14.578  0.00  0.00    +0.120 C 
ATOM     19  C   UNL     1      39.151 -25.619 -13.493  0.00  0.00    +0.230 C 
ATOM     20  C   UNL     1      40.380 -26.443 -13.802  0.00  0.00    +0.095 C 
ENDBRANCH  12  17
ENDBRANCH   4  10
BRANCH   6  22
ATOM     21  O   UNL     1      32.655 -21.793 -20.040  0.00  0.00    -0.290 OA
ATOM     22  C   UNL     1      33.787 -21.586 -19.561  0.00  0.00    +0.191 C 
BRANCH  22  24
ATOM     23  S   UNL     1      34.088 -19.669 -21.454  0.00  0.00    -0.084 S 
ATOM     24  C   UNL     1      34.723 -20.667 -20.252  0.00  0.00    +0.065 C 
ATOM     25  C   UNL     1      36.041 -20.535 -20.028  0.00  0.00    +0.010 C 
ATOM     26  C   UNL     1      36.592 -19.549 -20.894  0.00  0.00    +0.008 C 
ATOM     27  C   UNL     1      35.640 -18.997 -21.723  0.00  0.00    +0.036 C 
ENDBRANCH  22  24
ENDBRANCH   6  22
TORSDOF 4
ENDMDL
MODEL 9
REMARK VINA RESULT:     -10.5      3.269      5.610
REMARK  Name = 6450813
REMARK  4 active torsions:
REMARK  status: ('A' for Active; 'I' for Inactive)
REMARK    1  A    between atoms: C_4  and  C_10
REMARK    2  A    between atoms: C_6  and  C_22
REMARK    3  A    between atoms: C_12  and  N_17
REMARK    4  A    between atoms: C_22  and  C_24
REMARK                            x       y       z     vdW  Elec       q    Type
REMARK                         _______ _______ _______ _____ _____    ______ ____
ROOT
ATOM      1  N   UNL     1      35.389 -20.691 -19.582  0.00  0.00    -0.191 N 
ATOM      2  N   UNL     1      36.686 -20.276 -19.543  0.00  0.00    -0.179 NA
ATOM      3  N   UNL     1      33.393 -20.360 -20.896  0.00  0.00    -0.231 NA
ATOM      4  C   UNL     1      34.737 -21.574 -18.705  0.00  0.00    +0.143 C 
ATOM      5  C   UNL     1      34.710 -20.103 -20.653  0.00  0.00    +0.141 C 
ATOM      6  C   UNL     1      35.621 -19.304 -21.305  0.00  0.00    +0.161 C 
ATOM      7  C   UNL     1      33.438 -21.854 -18.907  0.00  0.00    +0.020 C 
ATOM      8  C   UNL     1      36.809 -19.449 -20.581  0.00  0.00    +0.106 C 
ATOM      9  C   UNL     1      32.815 -21.177 -20.071  0.00  0.00    +0.097 C 
ENDROOT
BRANCH   4  10
ATOM     10  C   UNL     1      35.444 -22.211 -17.579  0.00  0.00    +0.003 C 
ATOM     11  C   UNL     1      34.747 -23.035 -16.692  0.00  0.00    +0.013 C 
ATOM     12  C   UNL     1      35.415 -23.638 -15.628  0.00  0.00    +0.054 C 
ATOM     13  C   UNL     1      36.809 -21.993 -17.398  0.00  0.00    -0.002 C 
ATOM     14  C   UNL     1      36.781 -23.418 -15.448  0.00  0.00    +0.015 C 
ATOM     15  C   UNL     1      37.479 -22.595 -16.333  0.00  0.00    +0.001 C 
BRANCH  12  17
ATOM     16  O   UNL     1      32.781 -23.128 -14.540  0.00  0.00    -0.275 OA
ATOM     17  N   UNL     1      34.719 -24.460 -14.741  0.00  0.00    -0.257 N 
ATOM     18  C   UNL     1      35.343 -25.756 -14.333  0.00  0.00    +0.120 C 
ATOM     19  C   UNL     1      33.394 -24.164 -14.268  0.00  0.00    +0.230 C 
ATOM     20  C   UNL     1      32.692 -25.197 -13.418  0.00  0.00    +0.095 C 
ENDBRANCH  12  17
ENDBRANCH   4  10
BRANCH   6  22
ATOM     21  O   UNL     1      35.412 -18.986 -23.618  0.00  0.00    -0.290 OA
ATOM     22  C   UNL     1      35.365 -18.509 -22.468  0.00  0.00    +0.191 C 
BRANCH  22  24
ATOM     23  S   UNL     1      34.802 -16.140 -23.659  0.00  0.00    -0.084 S 
ATOM     24  C   UNL     1      35.031 -17.077 -22.276  0.00  0.00    +0.065 C 
ATOM     25  C   UNL     1      34.886 -16.429 -21.107  0.00  0.00    +0.010 C 
ATOM     26  C   UNL     1      34.564 -15.062 -21.339  0.00  0.00    +0.008 C 
ATOM     27  C   UNL     1      34.487 -14.768 -22.682  0.00  0.00    +0.036 C 
ENDBRANCH  22  24
ENDBRANCH   6  22
TORSDOF 4
ENDMDL
