MODEL 1
REMARK VINA RESULT:     -11.6      0.000      0.000
REMARK  Name = 213049
REMARK  9 active torsions:
REMARK  status: ('A' for Active; 'I' for Inactive)
REMARK    1  A    between atoms: C_3  and  C_13
REMARK    2  A    between atoms: C_4  and  N_25
REMARK    3  A    between atoms: C_16  and  C_17
REMARK    4  A    between atoms: C_17  and  O_18
REMARK    5  A    between atoms: C_17  and  C_20
REMARK    6  A    between atoms: C_20  and  O_21
REMARK    7  A    between atoms: C_26  and  C_29
REMARK    8  A    between atoms: C_29  and  O_30
REMARK    9  A    between atoms: O_30  and  C_33
REMARK                            x       y       z     vdW  Elec       q    Type
REMARK                         _______ _______ _______ _____ _____    ______ ____
ROOT
ATOM      1  F   UNL     1      32.273 -20.155 -20.757  0.00  0.00    -0.204 F 
ATOM      2  F   UNL     1      37.015 -20.013 -20.440  0.00  0.00    -0.204 F 
ATOM      3  C   UNL     1      34.646 -20.055 -20.628  0.00  0.00    +0.051 C 
ATOM      4  C   UNL     1      34.565 -21.949 -18.581  0.00  0.00    +0.062 C 
ATOM      5  C   UNL     1      33.421 -20.565 -20.197  0.00  0.00    +0.143 C 
ATOM      6  C   UNL     1      35.830 -20.492 -20.036  0.00  0.00    +0.143 C 
ATOM      7  C   UNL     1      33.380 -21.512 -19.174  0.00  0.00    +0.045 C 
ATOM      8  C   UNL     1      35.790 -21.439 -19.012  0.00  0.00    +0.045 C 
ENDROOT
BRANCH   3  13
ATOM      9  O   UNL     1      33.386 -16.484 -25.700  0.00  0.00    -0.272 OA
ATOM     10  N   UNL     1      34.572 -17.123 -23.803  0.00  0.00    -0.273 N 
ATOM     11  C   UNL     1      34.044 -19.399 -23.034  0.00  0.00    +0.048 C 
ATOM     12  C   UNL     1      34.585 -18.538 -24.172  0.00  0.00    +0.098 C 
ATOM     13  C   UNL     1      34.688 -19.049 -21.715  0.00  0.00    -0.019 C 
ATOM     14  C   UNL     1      35.314 -16.766 -22.587  0.00  0.00    +0.120 C 
ATOM     15  C   UNL     1      35.266 -17.845 -21.542  0.00  0.00    -0.009 C 
ATOM     16  C   UNL     1      34.009 -16.190 -24.677  0.00  0.00    +0.255 C 
BRANCH  16  17
ATOM     17  C   UNL     1      34.187 -14.737 -24.311  0.00  0.00    +0.217 C 
BRANCH  17  18
ATOM     18  O   UNL     1      33.702 -14.006 -25.418  0.00  0.00    -0.374 OA
ATOM     19  H   UNL     1      34.449 -13.677 -25.942  0.00  0.00    +0.211 HD
ENDBRANCH  17  18
BRANCH  17  20
ATOM     20  C   UNL     1      33.372 -14.393 -23.084  0.00  0.00    +0.176 C 
BRANCH  20  21
ATOM     21  O   UNL     1      34.066 -13.431 -22.302  0.00  0.00    -0.379 OA
ATOM     22  H   UNL     1      34.007 -13.673 -21.365  0.00  0.00    +0.211 HD
ENDBRANCH  20  21
ENDBRANCH  17  20
ENDBRANCH  16  17
ENDBRANCH   3  13
BRANCH   4  25
ATOM     23  O   UNL     1      35.048 -24.151 -15.721  0.00  0.00    -0.432 OA
ATOM     24  O   UNL     1      36.509 -22.520 -16.313  0.00  0.00    -0.226 OA
ATOM     25  N   UNL     1      34.524 -22.917 -17.538  0.00  0.00    -0.221 N 
ATOM     26  C   UNL     1      33.704 -24.510 -16.072  0.00  0.00    +0.234 C 
ATOM     27  C   UNL     1      33.514 -23.937 -17.460  0.00  0.00    +0.149 C 
ATOM     28  C   UNL     1      35.458 -23.108 -16.523  0.00  0.00    +0.409 C 
BRANCH  26  29
ATOM     29  C   UNL     1      32.752 -23.916 -15.043  0.00  0.00    +0.252 C 
BRANCH  29  30
ATOM     30  O   UNL     1      31.864 -23.030 -15.704  0.00  0.00    -0.454 OA
BRANCH  30  33
ATOM     31  O   UNL     1      28.500 -23.394 -16.445  0.00  0.00    -0.347 OA
ATOM     32  N   UNL     1      29.731 -22.768 -16.598  0.00  0.00    -0.039 NA
ATOM     33  C   UNL     1      30.556 -23.422 -15.775  0.00  0.00    +0.264 C 
ATOM     34  C   UNL     1      29.908 -24.461 -15.085  0.00  0.00    +0.104 C 
ATOM     35  C   UNL     1      28.618 -24.401 -15.541  0.00  0.00    +0.217 C 
ENDBRANCH  30  33
ENDBRANCH  29  30
ENDBRANCH  26  29
ENDBRANCH   4  25
TORSDOF 9
ENDMDL
MODEL 2
REMARK VINA RESULT:     -11.6      1.030      1.790
REMARK  Name = 213049
REMARK  9 active torsions:
REMARK  status: ('A' for Active; 'I' for Inactive)
REMARK    1  A    between atoms: C_3  and  C_13
REMARK    2  A    between atoms: C_4  and  N_25
REMARK    3  A    between atoms: C_16  and  C_17
REMARK    4  A    between atoms: C_17  and  O_18
REMARK    5  A    between atoms: C_17  and  C_20
REMARK    6  A    between atoms: C_20  and  O_21
REMARK    7  A    between atoms: C_26  and  C_29
REMARK    8  A    between atoms: C_29  and  O_30
REMARK    9  A    between atoms: O_30  and  C_33
REMARK                            x       y       z     vdW  Elec       q    Type
REMARK                         _______ _______ _______ _____ _____    ______ ____
ROOT
ATOM      1  F   UNL     1      37.027 -20.281 -20.290  0.00  0.00    -0.204 F 
ATOM      2  F   UNL     1      32.277 -20.409 -20.498  0.00  0.00    -0.204 F 
ATOM      3  C   UNL     1      34.652 -20.319 -20.427  0.00  0.00    +0.051 C 
ATOM      4  C   UNL     1      34.609 -22.134 -18.309  0.00  0.00    +0.062 C 
ATOM      5  C   UNL     1      35.847 -20.740 -19.844  0.00  0.00    +0.143 C 
ATOM      6  C   UNL     1      33.435 -20.806 -19.950  0.00  0.00    +0.143 C 
ATOM      7  C   UNL     1      35.826 -21.648 -18.785  0.00  0.00    +0.045 C 
ATOM      8  C   UNL     1      33.413 -21.713 -18.892  0.00  0.00    +0.045 C 
ENDROOT
BRANCH   3  13
ATOM      9  O   UNL     1      33.227 -16.827 -25.510  0.00  0.00    -0.272 OA
ATOM     10  N   UNL     1      34.523 -17.495 -23.696  0.00  0.00    -0.273 N 
ATOM     11  C   UNL     1      33.894 -19.696 -22.797  0.00  0.00    +0.048 C 
ATOM     12  C   UNL     1      34.398 -18.918 -24.009  0.00  0.00    +0.098 C 
ATOM     13  C   UNL     1      34.675 -19.355 -21.552  0.00  0.00    -0.019 C 
ATOM     14  C   UNL     1      35.392 -17.157 -22.561  0.00  0.00    +0.120 C 
ATOM     15  C   UNL     1      35.354 -18.194 -21.475  0.00  0.00    -0.009 C 
ATOM     16  C   UNL     1      33.957 -16.549 -24.555  0.00  0.00    +0.255 C 
BRANCH  16  17
ATOM     17  C   UNL     1      34.275 -15.103 -24.262  0.00  0.00    +0.217 C 
BRANCH  17  18
ATOM     18  O   UNL     1      33.780 -14.376 -25.368  0.00  0.00    -0.374 OA
ATOM     19  H   UNL     1      33.516 -13.488 -25.080  0.00  0.00    +0.211 HD
ENDBRANCH  17  18
BRANCH  17  20
ATOM     20  C   UNL     1      33.570 -14.648 -23.004  0.00  0.00    +0.176 C 
BRANCH  20  21
ATOM     21  O   UNL     1      34.403 -13.746 -22.289  0.00  0.00    -0.379 OA
ATOM     22  H   UNL     1      34.852 -13.156 -22.914  0.00  0.00    +0.211 HD
ENDBRANCH  20  21
ENDBRANCH  17  20
ENDBRANCH  16  17
ENDBRANCH   3  13
BRANCH   4  25
ATOM     23  O   UNL     1      35.197 -24.317 -15.454  0.00  0.00    -0.432 OA
ATOM     24  O   UNL     1      36.776 -22.947 -16.334  0.00  0.00    -0.226 OA
ATOM     25  N   UNL     1      34.587 -23.060 -17.227  0.00  0.00    -0.221 N 
ATOM     26  C   UNL     1      33.776 -24.473 -15.582  0.00  0.00    +0.234 C 
ATOM     27  C   UNL     1      33.460 -23.910 -16.951  0.00  0.00    +0.149 C 
ATOM     28  C   UNL     1      35.629 -23.370 -16.356  0.00  0.00    +0.409 C 
BRANCH  26  29
ATOM     29  C   UNL     1      33.096 -23.716 -14.451  0.00  0.00    +0.252 C 
BRANCH  29  30
ATOM     30  O   UNL     1      32.179 -24.586 -13.809  0.00  0.00    -0.454 OA
BRANCH  30  33
ATOM     31  O   UNL     1      28.925 -25.350 -14.719  0.00  0.00    -0.347 OA
ATOM     32  N   UNL     1      30.151 -25.676 -14.151  0.00  0.00    -0.039 NA
ATOM     33  C   UNL     1      30.896 -24.576 -14.284  0.00  0.00    +0.264 C 
ATOM     34  C   UNL     1      30.201 -23.533 -14.920  0.00  0.00    +0.104 C 
ATOM     35  C   UNL     1      28.967 -24.071 -15.174  0.00  0.00    +0.217 C 
ENDBRANCH  30  33
ENDBRANCH  29  30
ENDBRANCH  26  29
ENDBRANCH   4  25
TORSDOF 9
ENDMDL
MODEL 3
REMARK VINA RESULT:     -11.4      2.169      9.786
REMARK  Name = 213049
REMARK  9 active torsions:
REMARK  status: ('A' for Active; 'I' for Inactive)
REMARK    1  A    between atoms: C_3  and  C_13
REMARK    2  A    between atoms: C_4  and  N_25
REMARK    3  A    between atoms: C_16  and  C_17
REMARK    4  A    between atoms: C_17  and  O_18
REMARK    5  A    between atoms: C_17  and  C_20
REMARK    6  A    between atoms: C_20  and  O_21
REMARK    7  A    between atoms: C_26  and  C_29
REMARK    8  A    between atoms: C_29  and  O_30
REMARK    9  A    between atoms: O_30  and  C_33
REMARK                            x       y       z     vdW  Elec       q    Type
REMARK                         _______ _______ _______ _____ _____    ______ ____
ROOT
ATOM      1  F   UNL     1      32.199 -20.879 -19.245  0.00  0.00    -0.204 F 
ATOM      2  F   UNL     1      36.877 -21.663 -19.579  0.00  0.00    -0.204 F 
ATOM      3  C   UNL     1      34.537 -21.297 -19.379  0.00  0.00    +0.051 C 
ATOM      4  C   UNL     1      34.658 -19.617 -21.603  0.00  0.00    +0.062 C 
ATOM      5  C   UNL     1      33.379 -20.678 -19.851  0.00  0.00    +0.143 C 
ATOM      6  C   UNL     1      35.756 -21.076 -20.020  0.00  0.00    +0.143 C 
ATOM      7  C   UNL     1      33.439 -19.838 -20.962  0.00  0.00    +0.045 C 
ATOM      8  C   UNL     1      35.817 -20.237 -21.132  0.00  0.00    +0.045 C 
ENDROOT
BRANCH   3  13
ATOM      9  O   UNL     1      35.059 -23.836 -13.605  0.00  0.00    -0.272 OA
ATOM     10  N   UNL     1      34.348 -23.739 -15.819  0.00  0.00    -0.273 N 
ATOM     11  C   UNL     1      35.577 -22.096 -17.175  0.00  0.00    +0.048 C 
ATOM     12  C   UNL     1      35.666 -23.361 -16.325  0.00  0.00    +0.098 C 
ATOM     13  C   UNL     1      34.471 -22.189 -18.198  0.00  0.00    -0.019 C 
ATOM     14  C   UNL     1      33.305 -23.959 -16.830  0.00  0.00    +0.120 C 
ATOM     15  C   UNL     1      33.453 -23.052 -18.018  0.00  0.00    -0.009 C 
ATOM     16  C   UNL     1      34.188 -24.018 -14.458  0.00  0.00    +0.255 C 
BRANCH  16  17
ATOM     17  C   UNL     1      32.846 -24.568 -14.041  0.00  0.00    +0.217 C 
BRANCH  17  18
ATOM     18  O   UNL     1      33.112 -25.425 -12.949  0.00  0.00    -0.374 OA
ATOM     19  H   UNL     1      34.070 -25.536 -12.851  0.00  0.00    +0.211 HD
ENDBRANCH  17  18
BRANCH  17  20
ATOM     20  C   UNL     1      31.928 -23.452 -13.593  0.00  0.00    +0.176 C 
BRANCH  20  21
ATOM     21  O   UNL     1      32.264 -23.058 -12.270  0.00  0.00    -0.379 OA
ATOM     22  H   UNL     1      33.167 -23.347 -12.067  0.00  0.00    +0.211 HD
ENDBRANCH  20  21
ENDBRANCH  17  20
ENDBRANCH  16  17
ENDBRANCH   3  13
BRANCH   4  25
ATOM     23  O   UNL     1      34.456 -17.903 -24.810  0.00  0.00    -0.432 OA
ATOM     24  O   UNL     1      33.523 -19.931 -24.408  0.00  0.00    -0.226 OA
ATOM     25  N   UNL     1      34.721 -18.759 -22.738  0.00  0.00    -0.221 N 
ATOM     26  C   UNL     1      35.027 -16.853 -24.016  0.00  0.00    +0.234 C 
ATOM     27  C   UNL     1      35.499 -17.550 -22.758  0.00  0.00    +0.149 C 
ATOM     28  C   UNL     1      34.161 -18.974 -23.995  0.00  0.00    +0.409 C 
BRANCH  26  29
ATOM     29  C   UNL     1      33.959 -15.801 -23.753  0.00  0.00    +0.252 C 
BRANCH  29  30
ATOM     30  O   UNL     1      34.456 -14.878 -22.799  0.00  0.00    -0.454 OA
BRANCH  30  33
ATOM     31  O   UNL     1      31.859 -12.907 -21.629  0.00  0.00    -0.347 OA
ATOM     32  N   UNL     1      32.658 -13.407 -22.650  0.00  0.00    -0.039 NA
ATOM     33  C   UNL     1      33.523 -14.223 -22.043  0.00  0.00    +0.264 C 
ATOM     34  C   UNL     1      33.320 -14.279 -20.653  0.00  0.00    +0.104 C 
ATOM     35  C   UNL     1      32.262 -13.433 -20.444  0.00  0.00    +0.217 C 
ENDBRANCH  30  33
ENDBRANCH  29  30
ENDBRANCH  26  29
ENDBRANCH   4  25
TORSDOF 9
ENDMDL
MODEL 4
REMARK VINA RESULT:     -11.2      2.548      4.451
REMARK  Name = 213049
REMARK  9 active torsions:
REMARK  status: ('A' for Active; 'I' for Inactive)
REMARK    1  A    between atoms: C_3  and  C_13
REMARK    2  A    between atoms: C_4  and  N_25
REMARK    3  A    between atoms: C_16  and  C_17
REMARK    4  A    between atoms: C_17  and  O_18
REMARK    5  A    between atoms: C_17  and  C_20
REMARK    6  A    between atoms: C_20  and  O_21
REMARK    7  A    between atoms: C_26  and  C_29
REMARK    8  A    between atoms: C_29  and  O_30
REMARK    9  A    between atoms: O_30  and  C_33
REMARK                            x       y       z     vdW  Elec       q    Type
REMARK                         _______ _______ _______ _____ _____    ______ ____
ROOT
ATOM      1  F   UNL     1      32.412 -20.798 -20.074  0.00  0.00    -0.204 F 
ATOM      2  F   UNL     1      37.160 -20.721 -19.809  0.00  0.00    -0.204 F 
ATOM      3  C   UNL     1      34.788 -20.735 -19.975  0.00  0.00    +0.051 C 
ATOM      4  C   UNL     1      34.687 -22.352 -17.704  0.00  0.00    +0.062 C 
ATOM      5  C   UNL     1      33.557 -21.159 -19.474  0.00  0.00    +0.143 C 
ATOM      6  C   UNL     1      35.969 -21.119 -19.340  0.00  0.00    +0.143 C 
ATOM      7  C   UNL     1      33.507 -21.968 -18.339  0.00  0.00    +0.045 C 
ATOM      8  C   UNL     1      35.919 -21.927 -18.204  0.00  0.00    +0.045 C 
ENDROOT
BRANCH   3  13
ATOM      9  O   UNL     1      33.413 -17.520 -25.251  0.00  0.00    -0.272 OA
ATOM     10  N   UNL     1      34.751 -18.191 -23.469  0.00  0.00    -0.273 N 
ATOM     11  C   UNL     1      33.938 -20.219 -22.340  0.00  0.00    +0.048 C 
ATOM     12  C   UNL     1      34.439 -19.609 -23.645  0.00  0.00    +0.098 C 
ATOM     13  C   UNL     1      34.842 -19.875 -21.181  0.00  0.00    -0.019 C 
ATOM     14  C   UNL     1      35.734 -17.871 -22.426  0.00  0.00    +0.120 C 
ATOM     15  C   UNL     1      35.654 -18.804 -21.251  0.00  0.00    -0.009 C 
ATOM     16  C   UNL     1      34.238 -17.257 -24.373  0.00  0.00    +0.255 C 
BRANCH  16  17
ATOM     17  C   UNL     1      34.742 -15.841 -24.230  0.00  0.00    +0.217 C 
BRANCH  17  18
ATOM     18  O   UNL     1      34.390 -15.192 -25.435  0.00  0.00    -0.374 OA
ATOM     19  H   UNL     1      33.936 -15.818 -26.020  0.00  0.00    +0.211 HD
ENDBRANCH  17  18
BRANCH  17  20
ATOM     20  C   UNL     1      34.064 -15.149 -23.069  0.00  0.00    +0.176 C 
BRANCH  20  21
ATOM     21  O   UNL     1      33.034 -14.298 -23.554  0.00  0.00    -0.379 OA
ATOM     22  H   UNL     1      32.524 -14.764 -24.234  0.00  0.00    +0.211 HD
ENDBRANCH  20  21
ENDBRANCH  17  20
ENDBRANCH  16  17
ENDBRANCH   3  13
BRANCH   4  25
ATOM     23  O   UNL     1      33.913 -24.571 -14.922  0.00  0.00    -0.432 OA
ATOM     24  O   UNL     1      32.412 -23.987 -16.519  0.00  0.00    -0.226 OA
ATOM     25  N   UNL     1      34.636 -23.179 -16.546  0.00  0.00    -0.221 N 
ATOM     26  C   UNL     1      35.334 -24.464 -14.752  0.00  0.00    +0.234 C 
ATOM     27  C   UNL     1      35.727 -23.285 -15.615  0.00  0.00    +0.149 C 
ATOM     28  C   UNL     1      33.547 -23.908 -16.073  0.00  0.00    +0.409 C 
BRANCH  26  29
ATOM     29  C   UNL     1      35.980 -25.771 -15.191  0.00  0.00    +0.252 C 
BRANCH  29  30
ATOM     30  O   UNL     1      36.586 -26.379 -14.063  0.00  0.00    -0.454 OA
BRANCH  30  33
ATOM     31  O   UNL     1      39.994 -26.984 -14.196  0.00  0.00    -0.347 OA
ATOM     32  N   UNL     1      38.670 -27.364 -14.383  0.00  0.00    -0.039 NA
ATOM     33  C   UNL     1      37.950 -26.309 -13.993  0.00  0.00    +0.264 C 
ATOM     34  C   UNL     1      38.756 -25.244 -13.555  0.00  0.00    +0.104 C 
ATOM     35  C   UNL     1      40.033 -25.719 -13.702  0.00  0.00    +0.217 C 
ENDBRANCH  30  33
ENDBRANCH  29  30
ENDBRANCH  26  29
ENDBRANCH   4  25
TORSDOF 9
ENDMDL
MODEL 5
REMARK VINA RESULT:     -11.1      2.307      3.628
REMARK  Name = 213049
REMARK  9 active torsions:
REMARK  status: ('A' for Active; 'I' for Inactive)
REMARK    1  A    between atoms: C_3  and  C_13
REMARK    2  A    between atoms: C_4  and  N_25
REMARK    3  A    between atoms: C_16  and  C_17
REMARK    4  A    between atoms: C_17  and  O_18
REMARK    5  A    between atoms: C_17  and  C_20
REMARK    6  A    between atoms: C_20  and  O_21
REMARK    7  A    between atoms: C_26  and  C_29
REMARK    8  A    between atoms: C_29  and  O_30
REMARK    9  A    between atoms: O_30  and  C_33
REMARK                            x       y       z     vdW  Elec       q    Type
REMARK                         _______ _______ _______ _____ _____    ______ ____
ROOT
ATOM      1  F   UNL     1      37.395 -20.071 -20.225  0.00  0.00    -0.204 F 
ATOM      2  F   UNL     1      32.694 -20.775 -20.373  0.00  0.00    -0.204 F 
ATOM      3  C   UNL     1      35.041 -20.398 -20.333  0.00  0.00    +0.051 C 
ATOM      4  C   UNL     1      35.227 -22.103 -18.132  0.00  0.00    +0.062 C 
ATOM      5  C   UNL     1      36.281 -20.646 -19.745  0.00  0.00    +0.143 C 
ATOM      6  C   UNL     1      33.893 -21.004 -19.821  0.00  0.00    +0.143 C 
ATOM      7  C   UNL     1      36.375 -21.498 -18.644  0.00  0.00    +0.045 C 
ATOM      8  C   UNL     1      33.986 -21.856 -18.721  0.00  0.00    +0.045 C 
ENDROOT
BRANCH   3  13
ATOM      9  O   UNL     1      33.064 -17.139 -25.385  0.00  0.00    -0.272 OA
ATOM     10  N   UNL     1      34.560 -17.742 -23.707  0.00  0.00    -0.273 N 
ATOM     11  C   UNL     1      34.011 -19.881 -22.625  0.00  0.00    +0.048 C 
ATOM     12  C   UNL     1      34.376 -19.175 -23.928  0.00  0.00    +0.098 C 
ATOM     13  C   UNL     1      34.942 -19.493 -21.502  0.00  0.00    -0.019 C 
ATOM     14  C   UNL     1      35.565 -17.366 -22.705  0.00  0.00    +0.120 C 
ATOM     15  C   UNL     1      35.643 -18.345 -21.569  0.00  0.00    -0.009 C 
ATOM     16  C   UNL     1      33.908 -16.829 -24.542  0.00  0.00    +0.255 C 
BRANCH  16  17
ATOM     17  C   UNL     1      34.281 -15.377 -24.366  0.00  0.00    +0.217 C 
BRANCH  17  18
ATOM     18  O   UNL     1      33.835 -14.728 -25.538  0.00  0.00    -0.374 OA
ATOM     19  H   UNL     1      34.434 -14.935 -26.272  0.00  0.00    +0.211 HD
ENDBRANCH  17  18
BRANCH  17  20
ATOM     20  C   UNL     1      33.575 -14.788 -23.164  0.00  0.00    +0.176 C 
BRANCH  20  21
ATOM     21  O   UNL     1      32.730 -13.724 -23.580  0.00  0.00    -0.379 OA
ATOM     22  H   UNL     1      31.803 -13.976 -23.444  0.00  0.00    +0.211 HD
ENDBRANCH  20  21
ENDBRANCH  17  20
ENDBRANCH  16  17
ENDBRANCH   3  13
BRANCH   4  25
ATOM     23  O   UNL     1      36.108 -24.106 -15.221  0.00  0.00    -0.432 OA
ATOM     24  O   UNL     1      37.555 -22.707 -16.268  0.00  0.00    -0.226 OA
ATOM     25  N   UNL     1      35.322 -22.972 -17.008  0.00  0.00    -0.221 N 
ATOM     26  C   UNL     1      34.692 -24.336 -15.247  0.00  0.00    +0.234 C 
ATOM     27  C   UNL     1      34.261 -23.860 -16.617  0.00  0.00    +0.149 C 
ATOM     28  C   UNL     1      36.432 -23.186 -16.194  0.00  0.00    +0.409 C 
BRANCH  26  29
ATOM     29  C   UNL     1      34.047 -23.556 -14.111  0.00  0.00    +0.252 C 
BRANCH  29  30
ATOM     30  O   UNL     1      33.927 -24.409 -12.985  0.00  0.00    -0.454 OA
BRANCH  30  33
ATOM     31  O   UNL     1      36.081 -24.917 -10.320  0.00  0.00    -0.347 OA
ATOM     32  N   UNL     1      34.948 -25.230 -11.061  0.00  0.00    -0.039 NA
ATOM     33  C   UNL     1      34.940 -24.352 -12.068  0.00  0.00    +0.264 C 
ATOM     34  C   UNL     1      36.033 -23.470 -12.016  0.00  0.00    +0.104 C 
ATOM     35  C   UNL     1      36.720 -23.867 -10.899  0.00  0.00    +0.217 C 
ENDBRANCH  30  33
ENDBRANCH  29  30
ENDBRANCH  26  29
ENDBRANCH   4  25
TORSDOF 9
ENDMDL
MODEL 6
REMARK VINA RESULT:     -11.0      3.408     10.667
REMARK  Name = 213049
REMARK  9 active torsions:
REMARK  status: ('A' for Active; 'I' for Inactive)
REMARK    1  A    between atoms: C_3  and  C_13
REMARK    2  A    between atoms: C_4  and  N_25
REMARK    3  A    between atoms: C_16  and  C_17
REMARK    4  A    between atoms: C_17  and  O_18
REMARK    5  A    between atoms: C_17  and  C_20
REMARK    6  A    between atoms: C_20  and  O_21
REMARK    7  A    between atoms: C_26  and  C_29
REMARK    8  A    between atoms: C_29  and  O_30
REMARK    9  A    between atoms: O_30  and  C_33
REMARK                            x       y       z     vdW  Elec       q    Type
REMARK                         _______ _______ _______ _____ _____    ______ ____
ROOT
ATOM      1  F   UNL     1      32.815 -23.602 -16.956  0.00  0.00    -0.204 F 
ATOM      2  F   UNL     1      37.319 -22.120 -16.584  0.00  0.00    -0.204 F 
ATOM      3  C   UNL     1      35.072 -22.882 -16.735  0.00  0.00    +0.051 C 
ATOM      4  C   UNL     1      34.812 -21.493 -19.140  0.00  0.00    +0.062 C 
ATOM      5  C   UNL     1      33.863 -22.911 -17.431  0.00  0.00    +0.143 C 
ATOM      6  C   UNL     1      36.151 -22.159 -17.242  0.00  0.00    +0.143 C 
ATOM      7  C   UNL     1      33.733 -22.216 -18.633  0.00  0.00    +0.045 C 
ATOM      8  C   UNL     1      36.022 -21.464 -18.444  0.00  0.00    +0.045 C 
ENDROOT
BRANCH   3  13
ATOM      9  O   UNL     1      37.285 -25.935 -11.651  0.00  0.00    -0.272 OA
ATOM     10  N   UNL     1      35.651 -24.954 -12.986  0.00  0.00    -0.273 N 
ATOM     11  C   UNL     1      36.380 -24.561 -15.302  0.00  0.00    +0.048 C 
ATOM     12  C   UNL     1      36.129 -25.596 -14.209  0.00  0.00    +0.098 C 
ATOM     13  C   UNL     1      35.209 -23.621 -15.457  0.00  0.00    -0.019 C 
ATOM     14  C   UNL     1      34.432 -24.144 -13.115  0.00  0.00    +0.120 C 
ATOM     15  C   UNL     1      34.334 -23.456 -14.447  0.00  0.00    -0.009 C 
ATOM     16  C   UNL     1      36.262 -25.256 -11.766  0.00  0.00    +0.255 C 
BRANCH  16  17
ATOM     17  C   UNL     1      35.606 -24.691 -10.530  0.00  0.00    +0.217 C 
BRANCH  17  18
ATOM     18  O   UNL     1      35.342 -25.804  -9.700  0.00  0.00    -0.374 OA
ATOM     19  H   UNL     1      36.131 -26.012  -9.176  0.00  0.00    +0.211 HD
ENDBRANCH  17  18
BRANCH  17  20
ATOM     20  C   UNL     1      36.542 -23.742  -9.816  0.00  0.00    +0.176 C 
BRANCH  20  21
ATOM     21  O   UNL     1      37.480 -23.210 -10.741  0.00  0.00    -0.379 OA
ATOM     22  H   UNL     1      37.767 -23.909 -11.348  0.00  0.00    +0.211 HD
ENDBRANCH  20  21
ENDBRANCH  17  20
ENDBRANCH  16  17
ENDBRANCH   3  13
BRANCH   4  25
ATOM     23  O   UNL     1      33.810 -19.775 -22.190  0.00  0.00    -0.432 OA
ATOM     24  O   UNL     1      32.344 -20.732 -20.747  0.00  0.00    -0.226 OA
ATOM     25  N   UNL     1      34.680 -20.782 -20.367  0.00  0.00    -0.221 N 
ATOM     26  C   UNL     1      35.202 -19.428 -22.170  0.00  0.00    +0.234 C 
ATOM     27  C   UNL     1      35.809 -20.376 -21.159  0.00  0.00    +0.149 C 
ATOM     28  C   UNL     1      33.501 -20.464 -21.038  0.00  0.00    +0.409 C 
BRANCH  26  29
ATOM     29  C   UNL     1      35.338 -17.964 -21.776  0.00  0.00    +0.252 C 
BRANCH  29  30
ATOM     30  O   UNL     1      35.844 -17.241 -22.885  0.00  0.00    -0.454 OA
BRANCH  30  33
ATOM     31  O   UNL     1      33.660 -16.206 -25.367  0.00  0.00    -0.347 OA
ATOM     32  N   UNL     1      34.601 -17.087 -24.847  0.00  0.00    -0.039 NA
ATOM     33  C   UNL     1      34.924 -16.583 -23.653  0.00  0.00    +0.264 C 
ATOM     34  C   UNL     1      34.224 -15.397 -23.367  0.00  0.00    +0.104 C 
ATOM     35  C   UNL     1      33.444 -15.203 -24.477  0.00  0.00    +0.217 C 
ENDBRANCH  30  33
ENDBRANCH  29  30
ENDBRANCH  26  29
ENDBRANCH   4  25
TORSDOF 9
ENDMDL
MODEL 7
REMARK VINA RESULT:     -10.7      2.590     10.027
REMARK  Name = 213049
REMARK  9 active torsions:
REMARK  status: ('A' for Active; 'I' for Inactive)
REMARK    1  A    between atoms: C_3  and  C_13
REMARK    2  A    between atoms: C_4  and  N_25
REMARK    3  A    between atoms: C_16  and  C_17
REMARK    4  A    between atoms: C_17  and  O_18
REMARK    5  A    between atoms: C_17  and  C_20
REMARK    6  A    between atoms: C_20  and  O_21
REMARK    7  A    between atoms: C_26  and  C_29
REMARK    8  A    between atoms: C_29  and  O_30
REMARK    9  A    between atoms: O_30  and  C_33
REMARK                            x       y       z     vdW  Elec       q    Type
REMARK                         _______ _______ _______ _____ _____    ______ ____
ROOT
ATOM      1  F   UNL     1      37.459 -21.090 -19.551  0.00  0.00    -0.204 F 
ATOM      2  F   UNL     1      32.714 -21.183 -19.240  0.00  0.00    -0.204 F 
ATOM      3  C   UNL     1      35.088 -21.160 -19.361  0.00  0.00    +0.051 C 
ATOM      4  C   UNL     1      34.909 -19.537 -21.623  0.00  0.00    +0.062 C 
ATOM      5  C   UNL     1      36.248 -20.730 -20.006  0.00  0.00    +0.143 C 
ATOM      6  C   UNL     1      33.838 -20.777 -19.847  0.00  0.00    +0.143 C 
ATOM      7  C   UNL     1      36.159 -19.920 -21.137  0.00  0.00    +0.045 C 
ATOM      8  C   UNL     1      33.748 -19.966 -20.978  0.00  0.00    +0.045 C 
ENDROOT
BRANCH   3  13
ATOM      9  O   UNL     1      34.646 -25.903 -15.194  0.00  0.00    -0.272 OA
ATOM     10  N   UNL     1      35.359 -23.830 -15.973  0.00  0.00    -0.273 N 
ATOM     11  C   UNL     1      34.073 -23.010 -17.902  0.00  0.00    +0.048 C 
ATOM     12  C   UNL     1      34.029 -23.441 -16.439  0.00  0.00    +0.098 C 
ATOM     13  C   UNL     1      35.184 -22.021 -18.159  0.00  0.00    -0.019 C 
ATOM     14  C   UNL     1      36.412 -22.814 -16.103  0.00  0.00    +0.120 C 
ATOM     15  C   UNL     1      36.233 -21.949 -17.318  0.00  0.00    -0.009 C 
ATOM     16  C   UNL     1      35.526 -25.047 -15.306  0.00  0.00    +0.255 C 
BRANCH  16  17
ATOM     17  C   UNL     1      36.887 -25.300 -14.704  0.00  0.00    +0.217 C 
BRANCH  17  18
ATOM     18  O   UNL     1      36.808 -24.818 -13.378  0.00  0.00    -0.374 OA
ATOM     19  H   UNL     1      37.672 -24.467 -13.109  0.00  0.00    +0.211 HD
ENDBRANCH  17  18
BRANCH  17  20
ATOM     20  C   UNL     1      37.194 -26.781 -14.684  0.00  0.00    +0.176 C 
BRANCH  20  21
ATOM     21  O   UNL     1      36.825 -27.362 -15.927  0.00  0.00    -0.379 OA
ATOM     22  H   UNL     1      35.860 -27.449 -15.969  0.00  0.00    +0.211 HD
ENDBRANCH  20  21
ENDBRANCH  17  20
ENDBRANCH  16  17
ENDBRANCH   3  13
BRANCH   4  25
ATOM     23  O   UNL     1      34.335 -17.943 -24.846  0.00  0.00    -0.432 OA
ATOM     24  O   UNL     1      33.612 -20.030 -24.330  0.00  0.00    -0.226 OA
ATOM     25  N   UNL     1      34.818 -18.711 -22.779  0.00  0.00    -0.221 N 
ATOM     26  C   UNL     1      34.867 -16.825 -24.121  0.00  0.00    +0.234 C 
ATOM     27  C   UNL     1      35.485 -17.441 -22.885  0.00  0.00    +0.149 C 
ATOM     28  C   UNL     1      34.192 -19.010 -23.987  0.00  0.00    +0.409 C 
BRANCH  26  29
ATOM     29  C   UNL     1      33.733 -15.860 -23.807  0.00  0.00    +0.252 C 
BRANCH  29  30
ATOM     30  O   UNL     1      34.261 -14.756 -23.091  0.00  0.00    -0.454 OA
BRANCH  30  33
ATOM     31  O   UNL     1      31.856 -12.855 -21.478  0.00  0.00    -0.347 OA
ATOM     32  N   UNL     1      32.540 -13.263 -22.617  0.00  0.00    -0.039 NA
ATOM     33  C   UNL     1      33.427 -14.163 -22.185  0.00  0.00    +0.264 C 
ATOM     34  C   UNL     1      33.350 -14.363 -20.795  0.00  0.00    +0.104 C 
ATOM     35  C   UNL     1      32.348 -13.518 -20.399  0.00  0.00    +0.217 C 
ENDBRANCH  30  33
ENDBRANCH  29  30
ENDBRANCH  26  29
ENDBRANCH   4  25
TORSDOF 9
ENDMDL
MODEL 8
REMARK VINA RESULT:     -10.7      3.720      5.771
REMARK  Name = 213049
REMARK  9 active torsions:
REMARK  status: ('A' for Active; 'I' for Inactive)
REMARK    1  A    between atoms: C_3  and  C_13
REMARK    2  A    between atoms: C_4  and  N_25
REMARK    3  A    between atoms: C_16  and  C_17
REMARK    4  A    between atoms: C_17  and  O_18
REMARK    5  A    between atoms: C_17  and  C_20
REMARK    6  A    between atoms: C_20  and  O_21
REMARK    7  A    between atoms: C_26  and  C_29
REMARK    8  A    between atoms: C_29  and  O_30
REMARK    9  A    between atoms: O_30  and  C_33
REMARK                            x       y       z     vdW  Elec       q    Type
REMARK                         _______ _______ _______ _____ _____    ______ ____
ROOT
ATOM      1  F   UNL     1      34.320 -14.509 -19.822  0.00  0.00    -0.204 F 
ATOM      2  F   UNL     1      34.184 -15.695 -24.426  0.00  0.00    -0.204 F 
ATOM      3  C   UNL     1      34.239 -15.064 -22.134  0.00  0.00    +0.051 C 
ATOM      4  C   UNL     1      35.180 -17.613 -21.504  0.00  0.00    +0.062 C 
ATOM      5  C   UNL     1      34.509 -15.400 -20.807  0.00  0.00    +0.143 C 
ATOM      6  C   UNL     1      34.441 -16.003 -23.146  0.00  0.00    +0.143 C 
ATOM      7  C   UNL     1      34.979 -16.675 -20.492  0.00  0.00    +0.045 C 
ATOM      8  C   UNL     1      34.911 -17.277 -22.831  0.00  0.00    +0.045 C 
ENDROOT
BRANCH   3  13
ATOM      9  O   UNL     1      31.629  -9.300 -21.962  0.00  0.00    -0.272 OA
ATOM     10  N   UNL     1      32.809 -11.062 -22.921  0.00  0.00    -0.273 N 
ATOM     11  C   UNL     1      32.528 -13.196 -21.731  0.00  0.00    +0.048 C 
ATOM     12  C   UNL     1      31.839 -12.069 -22.495  0.00  0.00    +0.098 C 
ATOM     13  C   UNL     1      33.740 -13.709 -22.469  0.00  0.00    -0.019 C 
ATOM     14  C   UNL     1      33.919 -11.545 -23.753  0.00  0.00    +0.120 C 
ATOM     15  C   UNL     1      34.349 -12.938 -23.390  0.00  0.00    -0.009 C 
ATOM     16  C   UNL     1      32.559  -9.712 -22.659  0.00  0.00    +0.255 C 
BRANCH  16  17
ATOM     17  C   UNL     1      33.515  -8.722 -23.279  0.00  0.00    +0.217 C 
BRANCH  17  18
ATOM     18  O   UNL     1      32.781  -8.077 -24.300  0.00  0.00    -0.374 OA
ATOM     19  H   UNL     1      32.940  -7.121 -24.260  0.00  0.00    +0.211 HD
ENDBRANCH  17  18
BRANCH  17  20
ATOM     20  C   UNL     1      33.960  -7.700 -22.256  0.00  0.00    +0.176 C 
BRANCH  20  21
ATOM     21  O   UNL     1      33.020  -6.636 -22.203  0.00  0.00    -0.379 OA
ATOM     22  H   UNL     1      33.482  -5.806 -22.008  0.00  0.00    +0.211 HD
ENDBRANCH  20  21
ENDBRANCH  17  20
ENDBRANCH  16  17
ENDBRANCH   3  13
BRANCH   4  25
ATOM     23  O   UNL     1      37.010 -20.644 -20.649  0.00  0.00    -0.432 OA
ATOM     24  O   UNL     1      37.989 -18.613 -20.901  0.00  0.00    -0.226 OA
ATOM     25  N   UNL     1      35.659 -18.915 -21.182  0.00  0.00    -0.221 N 
ATOM     26  C   UNL     1      35.667 -21.134 -20.524  0.00  0.00    +0.234 C 
ATOM     27  C   UNL     1      34.819 -20.083 -21.205  0.00  0.00    +0.149 C 
ATOM     28  C   UNL     1      36.972 -19.291 -20.908  0.00  0.00    +0.409 C 
BRANCH  26  29
ATOM     29  C   UNL     1      35.342 -21.302 -19.046  0.00  0.00    +0.252 C 
BRANCH  29  30
ATOM     30  O   UNL     1      34.940 -22.643 -18.820  0.00  0.00    -0.454 OA
BRANCH  30  33
ATOM     31  O   UNL     1      31.725 -22.659 -17.529  0.00  0.00    -0.347 OA
ATOM     32  N   UNL     1      32.658 -22.314 -18.500  0.00  0.00    -0.039 NA
ATOM     33  C   UNL     1      33.814 -22.820 -18.064  0.00  0.00    +0.264 C 
ATOM     34  C   UNL     1      33.675 -23.490 -16.835  0.00  0.00    +0.104 C 
ATOM     35  C   UNL     1      32.343 -23.359 -16.542  0.00  0.00    +0.217 C 
ENDBRANCH  30  33
ENDBRANCH  29  30
ENDBRANCH  26  29
ENDBRANCH   4  25
TORSDOF 9
ENDMDL
MODEL 9
REMARK VINA RESULT:     -10.3      3.964      6.413
REMARK  Name = 213049
REMARK  9 active torsions:
REMARK  status: ('A' for Active; 'I' for Inactive)
REMARK    1  A    between atoms: C_3  and  C_13
REMARK    2  A    between atoms: C_4  and  N_25
REMARK    3  A    between atoms: C_16  and  C_17
REMARK    4  A    between atoms: C_17  and  O_18
REMARK    5  A    between atoms: C_17  and  C_20
REMARK    6  A    between atoms: C_20  and  O_21
REMARK    7  A    between atoms: C_26  and  C_29
REMARK    8  A    between atoms: C_29  and  O_30
REMARK    9  A    between atoms: O_30  and  C_33
REMARK                            x       y       z     vdW  Elec       q    Type
REMARK                         _______ _______ _______ _____ _____    ______ ____
ROOT
ATOM      1  F   UNL     1      33.853 -15.405 -24.489  0.00  0.00    -0.204 F 
ATOM      2  F   UNL     1      34.398 -14.232 -19.912  0.00  0.00    -0.204 F 
ATOM      3  C   UNL     1      34.110 -14.780 -22.207  0.00  0.00    +0.051 C 
ATOM      4  C   UNL     1      35.054 -17.349 -21.663  0.00  0.00    +0.062 C 
ATOM      5  C   UNL     1      34.208 -15.720 -23.233  0.00  0.00    +0.143 C 
ATOM      6  C   UNL     1      34.484 -15.125 -20.909  0.00  0.00    +0.143 C 
ATOM      7  C   UNL     1      34.680 -17.004 -22.962  0.00  0.00    +0.045 C 
ATOM      8  C   UNL     1      34.956 -16.408 -20.636  0.00  0.00    +0.045 C 
ENDROOT
BRANCH   3  13
ATOM      9  O   UNL     1      31.417  -9.063 -21.871  0.00  0.00    -0.272 OA
ATOM     10  N   UNL     1      32.664 -10.760 -22.860  0.00  0.00    -0.273 N 
ATOM     11  C   UNL     1      32.357 -12.954 -21.792  0.00  0.00    +0.048 C 
ATOM     12  C   UNL     1      31.689 -11.798 -22.530  0.00  0.00    +0.098 C 
ATOM     13  C   UNL     1      33.609 -13.417 -22.497  0.00  0.00    -0.019 C 
ATOM     14  C   UNL     1      33.817 -11.189 -23.662  0.00  0.00    +0.120 C 
ATOM     15  C   UNL     1      34.249 -12.593 -23.349  0.00  0.00    -0.009 C 
ATOM     16  C   UNL     1      32.384  -9.428 -22.543  0.00  0.00    +0.255 C 
BRANCH  16  17
ATOM     17  C   UNL     1      33.353  -8.397 -23.067  0.00  0.00    +0.217 C 
BRANCH  17  18
ATOM     18  O   UNL     1      32.800  -7.943 -24.286  0.00  0.00    -0.374 OA
ATOM     19  H   UNL     1      31.924  -7.563 -24.122  0.00  0.00    +0.211 HD
ENDBRANCH  17  18
BRANCH  17  20
ATOM     20  C   UNL     1      33.469  -7.237 -22.104  0.00  0.00    +0.176 C 
BRANCH  20  21
ATOM     21  O   UNL     1      33.481  -7.723 -20.769  0.00  0.00    -0.379 OA
ATOM     22  H   UNL     1      32.580  -7.968 -20.506  0.00  0.00    +0.211 HD
ENDBRANCH  20  21
ENDBRANCH  17  20
ENDBRANCH  16  17
ENDBRANCH   3  13
BRANCH   4  25
ATOM     23  O   UNL     1      36.890 -20.395 -20.884  0.00  0.00    -0.432 OA
ATOM     24  O   UNL     1      37.852 -18.345 -21.003  0.00  0.00    -0.226 OA
ATOM     25  N   UNL     1      35.537 -18.659 -21.385  0.00  0.00    -0.221 N 
ATOM     26  C   UNL     1      35.550 -20.906 -20.832  0.00  0.00    +0.234 C 
ATOM     27  C   UNL     1      34.714 -19.833 -21.494  0.00  0.00    +0.149 C 
ATOM     28  C   UNL     1      36.844 -19.033 -21.080  0.00  0.00    +0.409 C 
BRANCH  26  29
ATOM     29  C   UNL     1      35.173 -21.148 -19.377  0.00  0.00    +0.252 C 
BRANCH  29  30
ATOM     30  O   UNL     1      36.361 -21.219 -18.606  0.00  0.00    -0.454 OA
BRANCH  30  33
ATOM     31  O   UNL     1      35.535 -23.511 -16.143  0.00  0.00    -0.347 OA
ATOM     32  N   UNL     1      35.285 -22.849 -17.340  0.00  0.00    -0.039 NA
ATOM     33  C   UNL     1      36.320 -22.019 -17.498  0.00  0.00    +0.264 C 
ATOM     34  C   UNL     1      37.245 -22.112 -16.443  0.00  0.00    +0.104 C 
ATOM     35  C   UNL     1      36.705 -23.063 -15.618  0.00  0.00    +0.217 C 
ENDBRANCH  30  33
ENDBRANCH  29  30
ENDBRANCH  26  29
ENDBRANCH   4  25
TORSDOF 9
ENDMDL
