MODEL 1
REMARK VINA RESULT:     -11.4      0.000      0.000
REMARK  Name = 1540
REMARK  4 active torsions:
REMARK  status: ('A' for Active; 'I' for Inactive)
REMARK    1  A    between atoms: N_5  and  C_14
REMARK    2  A    between atoms: C_6  and  O_20
REMARK    3  A    between atoms: O_20  and  C_21
REMARK    4  A    between atoms: C_21  and  C_22
REMARK                            x       y       z     vdW  Elec       q    Type
REMARK                         _______ _______ _______ _____ _____    ______ ____
ROOT
ATOM      1  N   UNL     1      33.591 -23.871 -15.329  0.00  0.00    -0.293 NA
ATOM      2  N   UNL     1      37.262 -23.986 -15.161  0.00  0.00    -0.266 NA
ATOM      3  N   UNL     1      34.465 -24.760 -13.232  0.00  0.00    -0.316 NA
ATOM      4  N   UNL     1      36.894 -24.831 -13.131  0.00  0.00    -0.296 N 
ATOM      5  N   UNL     1      32.164 -24.574 -13.610  0.00  0.00    -0.238 N 
ATOM      6  C   UNL     1      34.835 -23.681 -15.818  0.00  0.00    +0.288 C 
ATOM      7  C   UNL     1      35.905 -24.029 -15.018  0.00  0.00    +0.215 C 
ATOM      8  C   UNL     1      35.700 -24.557 -13.750  0.00  0.00    +0.196 C 
ATOM      9  C   UNL     1      33.483 -24.391 -14.083  0.00  0.00    +0.207 C 
ATOM     10  C   UNL     1      37.811 -24.476 -14.005  0.00  0.00    +0.164 C 
ATOM     11  H   UNL     1      37.756 -23.662 -15.948  0.00  0.00    +0.126 HD
ATOM     12  H   UNL     1      37.032 -25.210 -12.233  0.00  0.00    +0.150 HD
ATOM     13  H   UNL     1      32.117 -24.953 -12.703  0.00  0.00    +0.166 HD
ENDROOT
BRANCH   5  14
ATOM     14  C   UNL     1      30.905 -24.320 -14.182  0.00  0.00    +0.058 C 
ATOM     15  C   UNL     1      30.079 -25.381 -14.560  0.00  0.00    +0.015 C 
ATOM     16  C   UNL     1      30.474 -23.005 -14.377  0.00  0.00    +0.015 C 
ATOM     17  C   UNL     1      28.830 -25.129 -15.129  0.00  0.00    +0.001 C 
ATOM     18  C   UNL     1      29.225 -22.754 -14.945  0.00  0.00    +0.001 C 
ATOM     19  C   UNL     1      28.404 -23.815 -15.321  0.00  0.00    +0.000 C 
ENDBRANCH   5  14
BRANCH   6  20
ATOM     20  O   UNL     1      34.980 -23.156 -17.079  0.00  0.00    -0.453 OA
BRANCH  20  21
ATOM     21  C   UNL     1      33.807 -23.030 -17.861  0.00  0.00    +0.208 C 
BRANCH  21  22
ATOM     22  C   UNL     1      34.161 -22.288 -19.148  0.00  0.00    +0.044 C 
ATOM     23  C   UNL     1      33.124 -21.198 -19.449  0.00  0.00    +0.004 C 
ATOM     24  C   UNL     1      35.572 -21.691 -19.059  0.00  0.00    +0.004 C 
ATOM     25  C   UNL     1      33.485 -20.407 -20.704  0.00  0.00    +0.000 C 
ATOM     26  C   UNL     1      35.929 -20.898 -20.314  0.00  0.00    +0.000 C 
ATOM     27  C   UNL     1      34.891 -19.822 -20.614  0.00  0.00    +0.000 C 
ENDBRANCH  21  22
ENDBRANCH  20  21
ENDBRANCH   6  20
TORSDOF 4
ENDMDL
MODEL 2
REMARK VINA RESULT:     -11.0      1.963      6.558
REMARK  Name = 1540
REMARK  4 active torsions:
REMARK  status: ('A' for Active; 'I' for Inactive)
REMARK    1  A    between atoms: N_5  and  C_14
REMARK    2  A    between atoms: C_6  and  O_20
REMARK    3  A    between atoms: O_20  and  C_21
REMARK    4  A    between atoms: C_21  and  C_22
REMARK                            x       y       z     vdW  Elec       q    Type
REMARK                         _______ _______ _______ _____ _____    ______ ____
ROOT
ATOM      1  N   UNL     1      33.477 -23.170 -16.003  0.00  0.00    -0.293 NA
ATOM      2  N   UNL     1      31.999 -24.827 -13.071  0.00  0.00    -0.266 NA
ATOM      3  N   UNL     1      31.105 -23.689 -16.241  0.00  0.00    -0.316 NA
ATOM      4  N   UNL     1      30.138 -24.783 -14.297  0.00  0.00    -0.296 N 
ATOM      5  N   UNL     1      32.298 -22.634 -17.955  0.00  0.00    -0.238 N 
ATOM      6  C   UNL     1      33.512 -23.699 -14.760  0.00  0.00    +0.288 C 
ATOM      7  C   UNL     1      32.344 -24.226 -14.248  0.00  0.00    +0.215 C 
ATOM      8  C   UNL     1      31.172 -24.211 -14.993  0.00  0.00    +0.196 C 
ATOM      9  C   UNL     1      32.292 -23.197 -16.658  0.00  0.00    +0.207 C 
ATOM     10  C   UNL     1      30.668 -25.142 -13.148  0.00  0.00    +0.164 C 
ATOM     11  H   UNL     1      32.596 -25.000 -12.308  0.00  0.00    +0.126 HD
ATOM     12  H   UNL     1      29.206 -24.900 -14.593  0.00  0.00    +0.150 HD
ATOM     13  H   UNL     1      31.424 -22.667 -18.406  0.00  0.00    +0.166 HD
ENDROOT
BRANCH   5  14
ATOM     14  C   UNL     1      33.310 -22.036 -18.726  0.00  0.00    +0.058 C 
ATOM     15  C   UNL     1      32.996 -21.014 -19.625  0.00  0.00    +0.015 C 
ATOM     16  C   UNL     1      34.635 -22.461 -18.597  0.00  0.00    +0.015 C 
ATOM     17  C   UNL     1      34.001 -20.422 -20.391  0.00  0.00    +0.001 C 
ATOM     18  C   UNL     1      35.639 -21.868 -19.363  0.00  0.00    +0.001 C 
ATOM     19  C   UNL     1      35.322 -20.849 -20.259  0.00  0.00    +0.000 C 
ENDBRANCH   5  14
BRANCH   6  20
ATOM     20  O   UNL     1      34.698 -23.688 -14.069  0.00  0.00    -0.453 OA
BRANCH  20  21
ATOM     21  C   UNL     1      35.844 -23.231 -14.764  0.00  0.00    +0.208 C 
BRANCH  21  22
ATOM     22  C   UNL     1      37.072 -23.931 -14.186  0.00  0.00    +0.044 C 
ATOM     23  C   UNL     1      37.103 -23.799 -12.657  0.00  0.00    +0.004 C 
ATOM     24  C   UNL     1      37.104 -25.407 -14.608  0.00  0.00    +0.004 C 
ATOM     25  C   UNL     1      38.294 -24.536 -12.051  0.00  0.00    +0.000 C 
ATOM     26  C   UNL     1      38.294 -26.142 -13.997  0.00  0.00    +0.000 C 
ATOM     27  C   UNL     1      38.326 -26.000 -12.479  0.00  0.00    +0.000 C 
ENDBRANCH  21  22
ENDBRANCH  20  21
ENDBRANCH   6  20
TORSDOF 4
ENDMDL
MODEL 3
REMARK VINA RESULT:     -10.8      1.386      2.094
REMARK  Name = 1540
REMARK  4 active torsions:
REMARK  status: ('A' for Active; 'I' for Inactive)
REMARK    1  A    between atoms: N_5  and  C_14
REMARK    2  A    between atoms: C_6  and  O_20
REMARK    3  A    between atoms: O_20  and  C_21
REMARK    4  A    between atoms: C_21  and  C_22
REMARK                            x       y       z     vdW  Elec       q    Type
REMARK                         _______ _______ _______ _____ _____    ______ ____
ROOT
ATOM      1  N   UNL     1      34.469 -24.133 -14.154  0.00  0.00    -0.293 NA
ATOM      2  N   UNL     1      37.939 -23.969 -12.950  0.00  0.00    -0.266 NA
ATOM      3  N   UNL     1      34.686 -24.216 -11.726  0.00  0.00    -0.316 NA
ATOM      4  N   UNL     1      36.985 -24.107 -10.941  0.00  0.00    -0.296 N 
ATOM      5  N   UNL     1      32.592 -24.302 -12.763  0.00  0.00    -0.238 N 
ATOM      6  C   UNL     1      35.807 -24.045 -14.315  0.00  0.00    +0.288 C 
ATOM      7  C   UNL     1      36.596 -24.042 -13.182  0.00  0.00    +0.215 C 
ATOM      8  C   UNL     1      36.024 -24.126 -11.919  0.00  0.00    +0.196 C 
ATOM      9  C   UNL     1      33.997 -24.212 -12.887  0.00  0.00    +0.207 C 
ATOM     10  C   UNL     1      38.123 -24.012 -11.593  0.00  0.00    +0.164 C 
ATOM     11  H   UNL     1      38.646 -23.899 -13.633  0.00  0.00    +0.126 HD
ATOM     12  H   UNL     1      36.852 -24.155  -9.966  0.00  0.00    +0.150 HD
ATOM     13  H   UNL     1      32.278 -24.358 -11.832  0.00  0.00    +0.166 HD
ENDROOT
BRANCH   5  14
ATOM     14  C   UNL     1      31.554 -24.329 -13.712  0.00  0.00    +0.058 C 
ATOM     15  C   UNL     1      31.358 -23.243 -14.569  0.00  0.00    +0.015 C 
ATOM     16  C   UNL     1      30.713 -25.442 -13.802  0.00  0.00    +0.015 C 
ATOM     17  C   UNL     1      30.328 -23.270 -15.509  0.00  0.00    +0.001 C 
ATOM     18  C   UNL     1      29.684 -25.468 -14.743  0.00  0.00    +0.001 C 
ATOM     19  C   UNL     1      29.491 -24.382 -15.596  0.00  0.00    +0.000 C 
ENDBRANCH   5  14
BRANCH   6  20
ATOM     20  O   UNL     1      36.318 -23.964 -15.587  0.00  0.00    -0.453 OA
BRANCH  20  21
ATOM     21  C   UNL     1      36.490 -22.667 -16.129  0.00  0.00    +0.208 C 
BRANCH  21  22
ATOM     22  C   UNL     1      35.899 -22.650 -17.537  0.00  0.00    +0.044 C 
ATOM     23  C   UNL     1      34.366 -22.636 -17.482  0.00  0.00    +0.004 C 
ATOM     24  C   UNL     1      36.429 -21.449 -18.333  0.00  0.00    +0.004 C 
ATOM     25  C   UNL     1      33.752 -22.565 -18.878  0.00  0.00    +0.000 C 
ATOM     26  C   UNL     1      35.811 -21.380 -19.727  0.00  0.00    +0.000 C 
ATOM     27  C   UNL     1      34.287 -21.375 -19.668  0.00  0.00    +0.000 C 
ENDBRANCH  21  22
ENDBRANCH  20  21
ENDBRANCH   6  20
TORSDOF 4
ENDMDL
MODEL 4
REMARK VINA RESULT:     -10.6      1.461      5.880
REMARK  Name = 1540
REMARK  4 active torsions:
REMARK  status: ('A' for Active; 'I' for Inactive)
REMARK    1  A    between atoms: N_5  and  C_14
REMARK    2  A    between atoms: C_6  and  O_20
REMARK    3  A    between atoms: O_20  and  C_21
REMARK    4  A    between atoms: C_21  and  C_22
REMARK                            x       y       z     vdW  Elec       q    Type
REMARK                         _______ _______ _______ _____ _____    ______ ____
ROOT
ATOM      1  N   UNL     1      35.169 -23.677 -15.558  0.00  0.00    -0.293 NA
ATOM      2  N   UNL     1      35.994 -25.391 -12.411  0.00  0.00    -0.266 NA
ATOM      3  N   UNL     1      37.529 -23.561 -14.948  0.00  0.00    -0.316 NA
ATOM      4  N   UNL     1      38.063 -24.698 -12.866  0.00  0.00    -0.296 N 
ATOM      5  N   UNL     1      36.726 -22.557 -16.902  0.00  0.00    -0.238 N 
ATOM      6  C   UNL     1      34.874 -24.398 -14.454  0.00  0.00    +0.288 C 
ATOM      7  C   UNL     1      35.904 -24.706 -13.588  0.00  0.00    +0.215 C 
ATOM      8  C   UNL     1      37.201 -24.285 -13.850  0.00  0.00    +0.196 C 
ATOM      9  C   UNL     1      36.460 -23.309 -15.735  0.00  0.00    +0.207 C 
ATOM     10  C   UNL     1      37.306 -25.359 -12.017  0.00  0.00    +0.164 C 
ATOM     11  H   UNL     1      35.252 -25.829 -11.932  0.00  0.00    +0.126 HD
ATOM     12  H   UNL     1      39.032 -24.535 -12.808  0.00  0.00    +0.150 HD
ATOM     13  H   UNL     1      37.671 -22.303 -17.004  0.00  0.00    +0.166 HD
ENDROOT
BRANCH   5  14
ATOM     14  C   UNL     1      35.902 -22.099 -17.946  0.00  0.00    +0.058 C 
ATOM     15  C   UNL     1      36.429 -21.286 -18.951  0.00  0.00    +0.015 C 
ATOM     16  C   UNL     1      34.551 -22.457 -17.982  0.00  0.00    +0.015 C 
ATOM     17  C   UNL     1      35.611 -20.831 -19.986  0.00  0.00    +0.001 C 
ATOM     18  C   UNL     1      33.734 -22.003 -19.018  0.00  0.00    +0.001 C 
ATOM     19  C   UNL     1      34.263 -21.191 -20.019  0.00  0.00    +0.000 C 
ENDBRANCH   5  14
BRANCH   6  20
ATOM     20  O   UNL     1      33.575 -24.788 -14.244  0.00  0.00    -0.453 OA
BRANCH  20  21
ATOM     21  C   UNL     1      32.844 -24.084 -13.256  0.00  0.00    +0.208 C 
BRANCH  21  22
ATOM     22  C   UNL     1      31.373 -24.064 -13.665  0.00  0.00    +0.044 C 
ATOM     23  C   UNL     1      31.176 -23.239 -14.944  0.00  0.00    +0.004 C 
ATOM     24  C   UNL     1      30.842 -25.493 -13.848  0.00  0.00    +0.004 C 
ATOM     25  C   UNL     1      29.720 -23.249 -15.402  0.00  0.00    +0.000 C 
ATOM     26  C   UNL     1      29.387 -25.498 -14.309  0.00  0.00    +0.000 C 
ATOM     27  C   UNL     1      29.194 -24.671 -15.575  0.00  0.00    +0.000 C 
ENDBRANCH  21  22
ENDBRANCH  20  21
ENDBRANCH   6  20
TORSDOF 4
ENDMDL
MODEL 5
REMARK VINA RESULT:     -10.5      2.167      5.589
REMARK  Name = 1540
REMARK  4 active torsions:
REMARK  status: ('A' for Active; 'I' for Inactive)
REMARK    1  A    between atoms: N_5  and  C_14
REMARK    2  A    between atoms: C_6  and  O_20
REMARK    3  A    between atoms: O_20  and  C_21
REMARK    4  A    between atoms: C_21  and  C_22
REMARK                            x       y       z     vdW  Elec       q    Type
REMARK                         _______ _______ _______ _____ _____    ______ ____
ROOT
ATOM      1  N   UNL     1      33.687 -23.157 -16.599  0.00  0.00    -0.293 NA
ATOM      2  N   UNL     1      35.871 -21.725 -19.187  0.00  0.00    -0.266 NA
ATOM      3  N   UNL     1      32.488 -22.090 -18.437  0.00  0.00    -0.316 NA
ATOM      4  N   UNL     1      33.942 -21.147 -20.142  0.00  0.00    -0.296 N 
ATOM      5  N   UNL     1      31.346 -23.084 -16.653  0.00  0.00    -0.238 N 
ATOM      6  C   UNL     1      34.884 -22.865 -17.153  0.00  0.00    +0.288 C 
ATOM      7  C   UNL     1      34.893 -22.183 -18.352  0.00  0.00    +0.215 C 
ATOM      8  C   UNL     1      33.704 -21.812 -18.966  0.00  0.00    +0.196 C 
ATOM      9  C   UNL     1      32.578 -22.758 -17.266  0.00  0.00    +0.207 C 
ATOM     10  C   UNL     1      35.253 -21.112 -20.245  0.00  0.00    +0.164 C 
ATOM     11  H   UNL     1      36.843 -21.819 -19.055  0.00  0.00    +0.126 HD
ATOM     12  H   UNL     1      33.279 -20.777 -20.769  0.00  0.00    +0.150 HD
ATOM     13  H   UNL     1      30.559 -22.781 -17.160  0.00  0.00    +0.166 HD
ENDROOT
BRANCH   5  14
ATOM     14  C   UNL     1      31.027 -23.756 -15.460  0.00  0.00    +0.058 C 
ATOM     15  C   UNL     1      30.375 -24.990 -15.502  0.00  0.00    +0.015 C 
ATOM     16  C   UNL     1      31.361 -23.191 -14.225  0.00  0.00    +0.015 C 
ATOM     17  C   UNL     1      30.058 -25.656 -14.318  0.00  0.00    +0.001 C 
ATOM     18  C   UNL     1      31.044 -23.859 -13.042  0.00  0.00    +0.001 C 
ATOM     19  C   UNL     1      30.393 -25.090 -13.088  0.00  0.00    +0.000 C 
ENDBRANCH   5  14
BRANCH   6  20
ATOM     20  O   UNL     1      36.028 -23.256 -16.502  0.00  0.00    -0.453 OA
BRANCH  20  21
ATOM     21  C   UNL     1      36.010 -23.213 -15.087  0.00  0.00    +0.208 C 
BRANCH  21  22
ATOM     22  C   UNL     1      36.904 -24.332 -14.558  0.00  0.00    +0.044 C 
ATOM     23  C   UNL     1      37.345 -24.038 -13.117  0.00  0.00    +0.004 C 
ATOM     24  C   UNL     1      36.187 -25.686 -14.645  0.00  0.00    +0.004 C 
ATOM     25  C   UNL     1      38.197 -25.169 -12.547  0.00  0.00    +0.000 C 
ATOM     26  C   UNL     1      37.041 -26.814 -14.071  0.00  0.00    +0.000 C 
ATOM     27  C   UNL     1      37.484 -26.514 -12.643  0.00  0.00    +0.000 C 
ENDBRANCH  21  22
ENDBRANCH  20  21
ENDBRANCH   6  20
TORSDOF 4
ENDMDL
MODEL 6
REMARK VINA RESULT:     -10.4      2.113      6.462
REMARK  Name = 1540
REMARK  4 active torsions:
REMARK  status: ('A' for Active; 'I' for Inactive)
REMARK    1  A    between atoms: N_5  and  C_14
REMARK    2  A    between atoms: C_6  and  O_20
REMARK    3  A    between atoms: O_20  and  C_21
REMARK    4  A    between atoms: C_21  and  C_22
REMARK                            x       y       z     vdW  Elec       q    Type
REMARK                         _______ _______ _______ _____ _____    ______ ____
ROOT
ATOM      1  N   UNL     1      35.075 -23.302 -16.485  0.00  0.00    -0.293 NA
ATOM      2  N   UNL     1      34.256 -21.599 -19.640  0.00  0.00    -0.266 NA
ATOM      3  N   UNL     1      36.889 -21.940 -17.383  0.00  0.00    -0.316 NA
ATOM      4  N   UNL     1      36.336 -20.818 -19.469  0.00  0.00    -0.296 N 
ATOM      5  N   UNL     1      37.137 -23.134 -15.387  0.00  0.00    -0.238 N 
ATOM      6  C   UNL     1      34.263 -22.978 -17.515  0.00  0.00    +0.288 C 
ATOM      7  C   UNL     1      34.758 -22.133 -18.488  0.00  0.00    +0.215 C 
ATOM      8  C   UNL     1      36.051 -21.634 -18.403  0.00  0.00    +0.196 C 
ATOM      9  C   UNL     1      36.320 -22.770 -16.482  0.00  0.00    +0.207 C 
ATOM     10  C   UNL     1      35.237 -20.818 -20.191  0.00  0.00    +0.164 C 
ATOM     11  H   UNL     1      33.353 -21.746 -20.006  0.00  0.00    +0.126 HD
ATOM     12  H   UNL     1      37.177 -20.340 -19.652  0.00  0.00    +0.150 HD
ATOM     13  H   UNL     1      38.035 -22.733 -15.411  0.00  0.00    +0.166 HD
ENDROOT
BRANCH   5  14
ATOM     14  C   UNL     1      36.915 -23.958 -14.269  0.00  0.00    +0.058 C 
ATOM     15  C   UNL     1      37.514 -25.218 -14.197  0.00  0.00    +0.015 C 
ATOM     16  C   UNL     1      36.096 -23.520 -13.225  0.00  0.00    +0.015 C 
ATOM     17  C   UNL     1      37.293 -26.036 -13.088  0.00  0.00    +0.001 C 
ATOM     18  C   UNL     1      35.876 -24.338 -12.117  0.00  0.00    +0.001 C 
ATOM     19  C   UNL     1      36.475 -25.595 -12.048  0.00  0.00    +0.000 C 
ENDBRANCH   5  14
BRANCH   6  20
ATOM     20  O   UNL     1      32.994 -23.501 -17.550  0.00  0.00    -0.453 OA
BRANCH  20  21
ATOM     21  C   UNL     1      32.059 -22.978 -16.624  0.00  0.00    +0.208 C 
BRANCH  21  22
ATOM     22  C   UNL     1      31.663 -24.091 -15.656  0.00  0.00    +0.044 C 
ATOM     23  C   UNL     1      32.507 -24.022 -14.376  0.00  0.00    +0.004 C 
ATOM     24  C   UNL     1      30.165 -24.017 -15.328  0.00  0.00    +0.004 C 
ATOM     25  C   UNL     1      32.094 -25.092 -13.369  0.00  0.00    +0.000 C 
ATOM     26  C   UNL     1      29.757 -25.087 -14.319  0.00  0.00    +0.000 C 
ATOM     27  C   UNL     1      30.604 -25.020 -13.052  0.00  0.00    +0.000 C 
ENDBRANCH  21  22
ENDBRANCH  20  21
ENDBRANCH   6  20
TORSDOF 4
ENDMDL
MODEL 7
REMARK VINA RESULT:     -10.3      1.893      6.715
REMARK  Name = 1540
REMARK  4 active torsions:
REMARK  status: ('A' for Active; 'I' for Inactive)
REMARK    1  A    between atoms: N_5  and  C_14
REMARK    2  A    between atoms: C_6  and  O_20
REMARK    3  A    between atoms: O_20  and  C_21
REMARK    4  A    between atoms: C_21  and  C_22
REMARK                            x       y       z     vdW  Elec       q    Type
REMARK                         _______ _______ _______ _____ _____    ______ ____
ROOT
ATOM      1  N   UNL     1      35.059 -23.682 -15.857  0.00  0.00    -0.293 NA
ATOM      2  N   UNL     1      33.059 -22.372 -18.651  0.00  0.00    -0.266 NA
ATOM      3  N   UNL     1      36.337 -22.372 -17.470  0.00  0.00    -0.316 NA
ATOM      4  N   UNL     1      35.005 -21.511 -19.313  0.00  0.00    -0.296 N 
ATOM      5  N   UNL     1      37.359 -23.324 -15.593  0.00  0.00    -0.238 N 
ATOM      6  C   UNL     1      33.915 -23.503 -16.552  0.00  0.00    +0.288 C 
ATOM      7  C   UNL     1      33.973 -22.757 -17.712  0.00  0.00    +0.215 C 
ATOM      8  C   UNL     1      35.174 -22.210 -18.145  0.00  0.00    +0.196 C 
ATOM      9  C   UNL     1      36.184 -23.113 -16.351  0.00  0.00    +0.207 C 
ATOM     10  C   UNL     1      33.724 -21.628 -19.589  0.00  0.00    +0.164 C 
ATOM     11  H   UNL     1      32.098 -22.589 -18.653  0.00  0.00    +0.126 HD
ATOM     12  H   UNL     1      35.691 -21.029 -19.830  0.00  0.00    +0.150 HD
ATOM     13  H   UNL     1      38.160 -22.900 -15.976  0.00  0.00    +0.166 HD
ENDROOT
BRANCH   5  14
ATOM     14  C   UNL     1      37.606 -24.024 -14.399  0.00  0.00    +0.058 C 
ATOM     15  C   UNL     1      37.250 -23.463 -13.170  0.00  0.00    +0.015 C 
ATOM     16  C   UNL     1      38.208 -25.285 -14.435  0.00  0.00    +0.015 C 
ATOM     17  C   UNL     1      37.496 -24.157 -11.985  0.00  0.00    +0.001 C 
ATOM     18  C   UNL     1      38.453 -25.978 -13.249  0.00  0.00    +0.001 C 
ATOM     19  C   UNL     1      38.097 -25.414 -12.026  0.00  0.00    +0.000 C 
ENDBRANCH   5  14
BRANCH   6  20
ATOM     20  O   UNL     1      32.756 -24.066 -16.079  0.00  0.00    -0.453 OA
BRANCH  20  21
ATOM     21  C   UNL     1      32.270 -23.591 -14.837  0.00  0.00    +0.208 C 
BRANCH  21  22
ATOM     22  C   UNL     1      30.743 -23.619 -14.872  0.00  0.00    +0.044 C 
ATOM     23  C   UNL     1      30.217 -22.927 -16.136  0.00  0.00    +0.004 C 
ATOM     24  C   UNL     1      30.225 -25.061 -14.781  0.00  0.00    +0.004 C 
ATOM     25  C   UNL     1      28.694 -22.989 -16.221  0.00  0.00    +0.000 C 
ATOM     26  C   UNL     1      28.702 -25.119 -14.869  0.00  0.00    +0.000 C 
ATOM     27  C   UNL     1      28.183 -24.423 -16.122  0.00  0.00    +0.000 C 
ENDBRANCH  21  22
ENDBRANCH  20  21
ENDBRANCH   6  20
TORSDOF 4
ENDMDL
MODEL 8
REMARK VINA RESULT:     -10.3      8.002     11.591
REMARK  Name = 1540
REMARK  4 active torsions:
REMARK  status: ('A' for Active; 'I' for Inactive)
REMARK    1  A    between atoms: N_5  and  C_14
REMARK    2  A    between atoms: C_6  and  O_20
REMARK    3  A    between atoms: O_20  and  C_21
REMARK    4  A    between atoms: C_21  and  C_22
REMARK                            x       y       z     vdW  Elec       q    Type
REMARK                         _______ _______ _______ _____ _____    ______ ____
ROOT
ATOM      1  N   UNL     1      34.736 -16.299 -22.291  0.00  0.00    -0.293 NA
ATOM      2  N   UNL     1      33.542 -13.420 -24.242  0.00  0.00    -0.266 NA
ATOM      3  N   UNL     1      34.381 -16.776 -24.657  0.00  0.00    -0.316 NA
ATOM      4  N   UNL     1      33.592 -14.865 -25.938  0.00  0.00    -0.296 N 
ATOM      5  N   UNL     1      35.139 -18.427 -23.183  0.00  0.00    -0.238 N 
ATOM      6  C   UNL     1      34.350 -15.014 -22.447  0.00  0.00    +0.288 C 
ATOM      7  C   UNL     1      33.976 -14.600 -23.710  0.00  0.00    +0.215 C 
ATOM      8  C   UNL     1      34.000 -15.482 -24.782  0.00  0.00    +0.196 C 
ATOM      9  C   UNL     1      34.728 -17.090 -23.390  0.00  0.00    +0.207 C 
ATOM     10  C   UNL     1      33.325 -13.629 -25.579  0.00  0.00    +0.164 C 
ATOM     11  H   UNL     1      33.409 -12.574 -23.755  0.00  0.00    +0.126 HD
ATOM     12  H   UNL     1      33.516 -15.262 -26.836  0.00  0.00    +0.150 HD
ATOM     13  H   UNL     1      35.124 -18.978 -23.998  0.00  0.00    +0.166 HD
ENDROOT
BRANCH   5  14
ATOM     14  C   UNL     1      35.565 -19.123 -22.038  0.00  0.00    +0.058 C 
ATOM     15  C   UNL     1      34.708 -20.027 -21.407  0.00  0.00    +0.015 C 
ATOM     16  C   UNL     1      36.849 -18.915 -21.526  0.00  0.00    +0.015 C 
ATOM     17  C   UNL     1      35.130 -20.718 -20.271  0.00  0.00    +0.001 C 
ATOM     18  C   UNL     1      37.270 -19.606 -20.390  0.00  0.00    +0.001 C 
ATOM     19  C   UNL     1      36.412 -20.507 -19.763  0.00  0.00    +0.000 C 
ENDBRANCH   5  14
BRANCH   6  20
ATOM     20  O   UNL     1      34.345 -14.185 -21.353  0.00  0.00    -0.453 OA
BRANCH  20  21
ATOM     21  C   UNL     1      33.130 -14.073 -20.636  0.00  0.00    +0.208 C 
BRANCH  21  22
ATOM     22  C   UNL     1      32.629 -12.635 -20.753  0.00  0.00    +0.044 C 
ATOM     23  C   UNL     1      31.454 -12.547 -21.736  0.00  0.00    +0.004 C 
ATOM     24  C   UNL     1      32.232 -12.085 -19.376  0.00  0.00    +0.004 C 
ATOM     25  C   UNL     1      30.902 -11.128 -21.830  0.00  0.00    +0.000 C 
ATOM     26  C   UNL     1      31.678 -10.666 -19.474  0.00  0.00    +0.000 C 
ATOM     27  C   UNL     1      30.516 -10.582 -20.459  0.00  0.00    +0.000 C 
ENDBRANCH  21  22
ENDBRANCH  20  21
ENDBRANCH   6  20
TORSDOF 4
ENDMDL
MODEL 9
REMARK VINA RESULT:     -10.3      1.857      5.750
REMARK  Name = 1540
REMARK  4 active torsions:
REMARK  status: ('A' for Active; 'I' for Inactive)
REMARK    1  A    between atoms: N_5  and  C_14
REMARK    2  A    between atoms: C_6  and  O_20
REMARK    3  A    between atoms: O_20  and  C_21
REMARK    4  A    between atoms: C_21  and  C_22
REMARK                            x       y       z     vdW  Elec       q    Type
REMARK                         _______ _______ _______ _____ _____    ______ ____
ROOT
ATOM      1  N   UNL     1      34.853 -23.728 -14.184  0.00  0.00    -0.293 NA
ATOM      2  N   UNL     1      35.247 -24.677 -10.653  0.00  0.00    -0.266 NA
ATOM      3  N   UNL     1      37.041 -23.193 -13.246  0.00  0.00    -0.316 NA
ATOM      4  N   UNL     1      37.291 -23.825 -10.912  0.00  0.00    -0.296 N 
ATOM      5  N   UNL     1      36.516 -22.699 -15.472  0.00  0.00    -0.238 N 
ATOM      6  C   UNL     1      34.430 -24.252 -13.013  0.00  0.00    +0.288 C 
ATOM      7  C   UNL     1      35.310 -24.251 -11.949  0.00  0.00    +0.215 C 
ATOM      8  C   UNL     1      36.588 -23.726 -12.086  0.00  0.00    +0.196 C 
ATOM      9  C   UNL     1      36.114 -23.238 -14.228  0.00  0.00    +0.207 C 
ATOM     10  C   UNL     1      36.457 -24.401 -10.073  0.00  0.00    +0.164 C 
ATOM     11  H   UNL     1      34.475 -25.104 -10.216  0.00  0.00    +0.126 HD
ATOM     12  H   UNL     1      38.214 -23.531 -10.737  0.00  0.00    +0.150 HD
ATOM     13  H   UNL     1      37.437 -22.351 -15.475  0.00  0.00    +0.166 HD
ENDROOT
BRANCH   5  14
ATOM     14  C   UNL     1      35.857 -22.563 -16.706  0.00  0.00    +0.058 C 
ATOM     15  C   UNL     1      34.546 -23.022 -16.856  0.00  0.00    +0.015 C 
ATOM     16  C   UNL     1      36.509 -21.968 -17.790  0.00  0.00    +0.015 C 
ATOM     17  C   UNL     1      33.892 -22.887 -18.081  0.00  0.00    +0.001 C 
ATOM     18  C   UNL     1      35.854 -21.834 -19.014  0.00  0.00    +0.001 C 
ATOM     19  C   UNL     1      34.547 -22.293 -19.160  0.00  0.00    +0.000 C 
ENDBRANCH   5  14
BRANCH   6  20
ATOM     20  O   UNL     1      33.156 -24.757 -12.933  0.00  0.00    -0.453 OA
BRANCH  20  21
ATOM     21  C   UNL     1      32.090 -23.828 -13.008  0.00  0.00    +0.208 C 
BRANCH  21  22
ATOM     22  C   UNL     1      31.222 -24.184 -14.213  0.00  0.00    +0.044 C 
ATOM     23  C   UNL     1      30.071 -25.110 -13.798  0.00  0.00    +0.004 C 
ATOM     24  C   UNL     1      30.686 -22.915 -14.890  0.00  0.00    +0.004 C 
ATOM     25  C   UNL     1      29.158 -25.438 -14.976  0.00  0.00    +0.000 C 
ATOM     26  C   UNL     1      29.771 -23.247 -16.065  0.00  0.00    +0.000 C 
ATOM     27  C   UNL     1      28.633 -24.174 -15.650  0.00  0.00    +0.000 C 
ENDBRANCH  21  22
ENDBRANCH  20  21
ENDBRANCH   6  20
TORSDOF 4
ENDMDL
