MODEL 1
REMARK VINA RESULT:     -12.2      0.000      0.000
REMARK  Name = 216239
REMARK  6 active torsions:
REMARK  status: ('A' for Active; 'I' for Inactive)
REMARK    1  A    between atoms: C_1  and  N_9
REMARK    2  A    between atoms: C_2  and  O_24
REMARK    3  A    between atoms: N_8  and  C_14
REMARK    4  A    between atoms: C_15  and  C_23
REMARK    5  A    between atoms: O_24  and  C_26
REMARK    6  A    between atoms: C_28  and  C_33
REMARK                            x       y       z     vdW  Elec       q    Type
REMARK                         _______ _______ _______ _____ _____    ______ ____
ROOT
ATOM      1  C   UNL     1      33.443 -14.402 -23.059  0.00  0.00    +0.052 C 
ATOM      2  C   UNL     1      34.842 -16.780 -23.301  0.00  0.00    +0.145 C 
ATOM      3  C   UNL     1      34.165 -14.875 -21.977  0.00  0.00    +0.018 C 
ATOM      4  C   UNL     1      33.404 -15.091 -24.259  0.00  0.00    +0.018 C 
ATOM      5  C   UNL     1      34.870 -16.073 -22.099  0.00  0.00    +0.039 C 
ATOM      6  C   UNL     1      34.108 -16.289 -24.381  0.00  0.00    +0.039 C 
ENDROOT
BRANCH   1   9
ATOM      7  O   UNL     1      34.285 -11.600 -23.661  0.00  0.00    -0.252 OA
ATOM      8  N   UNL     1      32.144 -10.952 -22.967  0.00  0.00    -0.268 N 
ATOM      9  N   UNL     1      32.728 -13.187 -22.934  0.00  0.00    -0.268 N 
ATOM     10  C   UNL     1      33.172 -11.888 -23.234  0.00  0.00    +0.308 C 
ATOM     11  H   UNL     1      31.301 -11.329 -22.624  0.00  0.00    +0.156 HD
ATOM     12  H   UNL     1      31.807 -13.260 -22.597  0.00  0.00    +0.156 HD
BRANCH   8  14
ATOM     13 CL   UNL     1      32.246  -5.085 -23.675  0.00  0.00    -0.082 Cl
ATOM     14  C   UNL     1      32.165  -9.566 -23.124  0.00  0.00    +0.052 C 
ATOM     15  C   UNL     1      31.986  -7.349 -22.180  0.00  0.00    +0.083 C 
ATOM     16  C   UNL     1      31.963  -8.735 -22.023  0.00  0.00    +0.019 C 
ATOM     17  C   UNL     1      32.389  -9.012 -24.385  0.00  0.00    +0.016 C 
ATOM     18  C   UNL     1      32.209  -6.794 -23.441  0.00  0.00    +0.062 C 
ATOM     19  C   UNL     1      32.411  -7.626 -24.542  0.00  0.00    +0.013 C 
BRANCH  15  23
ATOM     20  F   UNL     1      32.767  -5.590 -20.761  0.00  0.00    -0.166 F 
ATOM     21  F   UNL     1      30.621  -5.755 -21.032  0.00  0.00    -0.166 F 
ATOM     22  F   UNL     1      31.679  -7.224 -19.826  0.00  0.00    -0.166 F 
ATOM     23  C   UNL     1      31.767  -6.493 -20.974  0.00  0.00    +0.419 C 
ENDBRANCH  15  23
ENDBRANCH   8  14
ENDBRANCH   1   9
BRANCH   2  24
ATOM     24  O   UNL     1      35.528 -17.949 -23.420  0.00  0.00    -0.453 OA
BRANCH  24  26
ATOM     25  N   UNL     1      36.118 -20.202 -19.978  0.00  0.00    -0.239 NA
ATOM     26  C   UNL     1      35.724 -18.699 -22.273  0.00  0.00    +0.149 C 
ATOM     27  C   UNL     1      34.668 -19.410 -21.743  0.00  0.00    +0.061 C 
ATOM     28  C   UNL     1      34.917 -20.146 -20.596  0.00  0.00    +0.137 C 
ATOM     29  C   UNL     1      36.972 -18.719 -21.686  0.00  0.00    +0.058 C 
ATOM     30  C   UNL     1      37.117 -19.485 -20.540  0.00  0.00    +0.102 C 
BRANCH  28  33
ATOM     31  O   UNL     1      32.666 -20.728 -20.292  0.00  0.00    -0.268 OA
ATOM     32  N   UNL     1      34.236 -21.896 -19.049  0.00  0.00    -0.298 N 
ATOM     33  C   UNL     1      33.854 -20.922 -19.979  0.00  0.00    +0.264 C 
ATOM     34  C   UNL     1      33.298 -22.762 -18.369  0.00  0.00    +0.111 C 
ATOM     35  H   UNL     1      35.194 -21.997 -18.846  0.00  0.00    +0.150 HD
ENDBRANCH  28  33
ENDBRANCH  24  26
ENDBRANCH   2  24
TORSDOF 6
ENDMDL
MODEL 2
REMARK VINA RESULT:     -11.9      5.149      8.443
REMARK  Name = 216239
REMARK  6 active torsions:
REMARK  status: ('A' for Active; 'I' for Inactive)
REMARK    1  A    between atoms: C_1  and  N_9
REMARK    2  A    between atoms: C_2  and  O_24
REMARK    3  A    between atoms: N_8  and  C_14
REMARK    4  A    between atoms: C_15  and  C_23
REMARK    5  A    between atoms: O_24  and  C_26
REMARK    6  A    between atoms: C_28  and  C_33
REMARK                            x       y       z     vdW  Elec       q    Type
REMARK                         _______ _______ _______ _____ _____    ______ ____
ROOT
ATOM      1  C   UNL     1      35.650 -21.307 -19.098  0.00  0.00    +0.052 C 
ATOM      2  C   UNL     1      35.124 -23.166 -17.113  0.00  0.00    +0.145 C 
ATOM      3  C   UNL     1      34.488 -22.056 -19.163  0.00  0.00    +0.018 C 
ATOM      4  C   UNL     1      36.556 -21.466 -18.062  0.00  0.00    +0.018 C 
ATOM      5  C   UNL     1      34.223 -22.993 -18.163  0.00  0.00    +0.039 C 
ATOM      6  C   UNL     1      36.291 -22.404 -17.063  0.00  0.00    +0.039 C 
ENDROOT
BRANCH   1   9
ATOM      7  O   UNL     1      33.788 -19.538 -20.622  0.00  0.00    -0.252 OA
ATOM      8  N   UNL     1      35.684 -18.733 -21.738  0.00  0.00    -0.268 N 
ATOM      9  N   UNL     1      35.919 -20.358 -20.112  0.00  0.00    -0.268 N 
ATOM     10  C   UNL     1      35.001 -19.546 -20.800  0.00  0.00    +0.308 C 
ATOM     11  H   UNL     1      36.662 -18.849 -21.772  0.00  0.00    +0.156 HD
ATOM     12  H   UNL     1      36.863 -20.252 -20.366  0.00  0.00    +0.156 HD
BRANCH   8  14
ATOM     13 CL   UNL     1      33.453 -14.773 -25.515  0.00  0.00    -0.082 Cl
ATOM     14  C   UNL     1      35.157 -17.791 -22.622  0.00  0.00    +0.052 C 
ATOM     15  C   UNL     1      34.402 -15.543 -23.079  0.00  0.00    +0.083 C 
ATOM     16  C   UNL     1      34.928 -16.484 -22.194  0.00  0.00    +0.019 C 
ATOM     17  C   UNL     1      34.859 -18.159 -23.934  0.00  0.00    +0.016 C 
ATOM     18  C   UNL     1      34.103 -15.909 -24.392  0.00  0.00    +0.062 C 
ATOM     19  C   UNL     1      34.333 -17.217 -24.819  0.00  0.00    +0.013 C 
BRANCH  15  23
ATOM     20  F   UNL     1      34.758 -13.901 -21.376  0.00  0.00    -0.166 F 
ATOM     21  F   UNL     1      34.653 -13.189 -23.422  0.00  0.00    -0.166 F 
ATOM     22  F   UNL     1      32.849 -13.869 -22.415  0.00  0.00    -0.166 F 
ATOM     23  C   UNL     1      34.173 -14.151 -22.582  0.00  0.00    +0.419 C 
ENDBRANCH  15  23
ENDBRANCH   8  14
ENDBRANCH   1   9
BRANCH   2  24
ATOM     24  O   UNL     1      34.866 -24.081 -16.139  0.00  0.00    -0.453 OA
BRANCH  24  26
ATOM     25  N   UNL     1      31.438 -23.553 -13.849  0.00  0.00    -0.239 NA
ATOM     26  C   UNL     1      33.724 -23.904 -15.377  0.00  0.00    +0.149 C 
ATOM     27  C   UNL     1      32.545 -23.554 -15.999  0.00  0.00    +0.061 C 
ATOM     28  C   UNL     1      31.431 -23.391 -15.192  0.00  0.00    +0.137 C 
ATOM     29  C   UNL     1      33.792 -24.084 -14.011  0.00  0.00    +0.058 C 
ATOM     30  C   UNL     1      32.621 -23.895 -13.293  0.00  0.00    +0.102 C 
BRANCH  28  33
ATOM     31  O   UNL     1      30.094 -22.543 -16.922  0.00  0.00    -0.268 OA
ATOM     32  N   UNL     1      29.009 -23.253 -14.999  0.00  0.00    -0.298 N 
ATOM     33  C   UNL     1      30.152 -23.022 -15.775  0.00  0.00    +0.264 C 
ATOM     34  C   UNL     1      27.666 -22.962 -15.449  0.00  0.00    +0.111 C 
ATOM     35  H   UNL     1      29.126 -23.635 -14.099  0.00  0.00    +0.150 HD
ENDBRANCH  28  33
ENDBRANCH  24  26
ENDBRANCH   2  24
TORSDOF 6
ENDMDL
MODEL 3
REMARK VINA RESULT:     -11.9      1.623      1.946
REMARK  Name = 216239
REMARK  6 active torsions:
REMARK  status: ('A' for Active; 'I' for Inactive)
REMARK    1  A    between atoms: C_1  and  N_9
REMARK    2  A    between atoms: C_2  and  O_24
REMARK    3  A    between atoms: N_8  and  C_14
REMARK    4  A    between atoms: C_15  and  C_23
REMARK    5  A    between atoms: O_24  and  C_26
REMARK    6  A    between atoms: C_28  and  C_33
REMARK                            x       y       z     vdW  Elec       q    Type
REMARK                         _______ _______ _______ _____ _____    ______ ____
ROOT
ATOM      1  C   UNL     1      33.478 -14.394 -23.060  0.00  0.00    +0.052 C 
ATOM      2  C   UNL     1      34.797 -16.816 -23.318  0.00  0.00    +0.145 C 
ATOM      3  C   UNL     1      34.179 -14.902 -21.980  0.00  0.00    +0.018 C 
ATOM      4  C   UNL     1      33.422 -15.071 -24.267  0.00  0.00    +0.018 C 
ATOM      5  C   UNL     1      34.844 -16.122 -22.109  0.00  0.00    +0.039 C 
ATOM      6  C   UNL     1      34.086 -16.291 -24.397  0.00  0.00    +0.039 C 
ENDROOT
BRANCH   1   9
ATOM      7  O   UNL     1      34.409 -11.621 -23.662  0.00  0.00    -0.252 OA
ATOM      8  N   UNL     1      32.295 -10.904 -22.952  0.00  0.00    -0.268 N 
ATOM      9  N   UNL     1      32.805 -13.157 -22.928  0.00  0.00    -0.268 N 
ATOM     10  C   UNL     1      33.290 -11.873 -23.227  0.00  0.00    +0.308 C 
ATOM     11  H   UNL     1      31.442 -11.254 -22.604  0.00  0.00    +0.156 HD
ATOM     12  H   UNL     1      31.884 -13.201 -22.585  0.00  0.00    +0.156 HD
BRANCH   8  14
ATOM     13 CL   UNL     1      32.529  -5.034 -23.597  0.00  0.00    -0.082 Cl
ATOM     14  C   UNL     1      32.360  -9.519 -23.105  0.00  0.00    +0.052 C 
ATOM     15  C   UNL     1      33.634  -7.525 -23.593  0.00  0.00    +0.083 C 
ATOM     16  C   UNL     1      33.569  -8.910 -23.439  0.00  0.00    +0.019 C 
ATOM     17  C   UNL     1      31.214  -8.743 -22.925  0.00  0.00    +0.016 C 
ATOM     18  C   UNL     1      32.489  -6.749 -23.413  0.00  0.00    +0.062 C 
ATOM     19  C   UNL     1      31.279  -7.359 -23.079  0.00  0.00    +0.013 C 
BRANCH  15  23
ATOM     20  F   UNL     1      35.507  -7.443 -25.079  0.00  0.00    -0.166 F 
ATOM     21  F   UNL     1      34.875  -5.569 -24.188  0.00  0.00    -0.166 F 
ATOM     22  F   UNL     1      35.882  -7.063 -22.971  0.00  0.00    -0.166 F 
ATOM     23  C   UNL     1      34.948  -6.911 -23.954  0.00  0.00    +0.419 C 
ENDBRANCH  15  23
ENDBRANCH   8  14
ENDBRANCH   1   9
BRANCH   2  24
ATOM     24  O   UNL     1      35.444 -18.007 -23.444  0.00  0.00    -0.453 OA
BRANCH  24  26
ATOM     25  N   UNL     1      36.126 -20.212 -19.987  0.00  0.00    -0.239 NA
ATOM     26  C   UNL     1      35.670 -18.741 -22.292  0.00  0.00    +0.149 C 
ATOM     27  C   UNL     1      34.635 -19.463 -21.737  0.00  0.00    +0.061 C 
ATOM     28  C   UNL     1      34.914 -20.182 -20.586  0.00  0.00    +0.137 C 
ATOM     29  C   UNL     1      36.927 -18.734 -21.725  0.00  0.00    +0.058 C 
ATOM     30  C   UNL     1      37.103 -19.485 -20.573  0.00  0.00    +0.102 C 
BRANCH  28  33
ATOM     31  O   UNL     1      32.677 -20.791 -20.234  0.00  0.00    -0.268 OA
ATOM     32  N   UNL     1      34.287 -21.933 -19.017  0.00  0.00    -0.298 N 
ATOM     33  C   UNL     1      33.874 -20.968 -19.944  0.00  0.00    +0.264 C 
ATOM     34  C   UNL     1      33.375 -22.807 -18.313  0.00  0.00    +0.111 C 
ATOM     35  H   UNL     1      35.250 -22.020 -18.833  0.00  0.00    +0.150 HD
ENDBRANCH  28  33
ENDBRANCH  24  26
ENDBRANCH   2  24
TORSDOF 6
ENDMDL
MODEL 4
REMARK VINA RESULT:     -11.8      5.874      9.761
REMARK  Name = 216239
REMARK  6 active torsions:
REMARK  status: ('A' for Active; 'I' for Inactive)
REMARK    1  A    between atoms: C_1  and  N_9
REMARK    2  A    between atoms: C_2  and  O_24
REMARK    3  A    between atoms: N_8  and  C_14
REMARK    4  A    between atoms: C_15  and  C_23
REMARK    5  A    between atoms: O_24  and  C_26
REMARK    6  A    between atoms: C_28  and  C_33
REMARK                            x       y       z     vdW  Elec       q    Type
REMARK                         _______ _______ _______ _____ _____    ______ ____
ROOT
ATOM      1  C   UNL     1      34.918 -22.237 -18.329  0.00  0.00    +0.052 C 
ATOM      2  C   UNL     1      34.122 -23.765 -16.160  0.00  0.00    +0.145 C 
ATOM      3  C   UNL     1      35.720 -22.283 -17.202  0.00  0.00    +0.018 C 
ATOM      4  C   UNL     1      33.726 -22.939 -18.396  0.00  0.00    +0.018 C 
ATOM      5  C   UNL     1      35.319 -23.053 -16.109  0.00  0.00    +0.039 C 
ATOM      6  C   UNL     1      33.324 -23.708 -17.303  0.00  0.00    +0.039 C 
ENDROOT
BRANCH   1   9
ATOM      7  O   UNL     1      33.396 -20.233 -19.936  0.00  0.00    -0.252 OA
ATOM      8  N   UNL     1      35.351 -19.960 -21.196  0.00  0.00    -0.268 N 
ATOM      9  N   UNL     1      35.325 -21.457 -19.436  0.00  0.00    -0.268 N 
ATOM     10  C   UNL     1      34.565 -20.523 -20.160  0.00  0.00    +0.308 C 
ATOM     11  H   UNL     1      36.277 -20.290 -21.258  0.00  0.00    +0.156 HD
ATOM     12  H   UNL     1      36.253 -21.583 -19.737  0.00  0.00    +0.156 HD
BRANCH   8  14
ATOM     13 CL   UNL     1      33.815 -15.927 -25.234  0.00  0.00    -0.082 Cl
ATOM     14  C   UNL     1      34.989 -19.000 -22.141  0.00  0.00    +0.052 C 
ATOM     15  C   UNL     1      34.565 -16.696 -22.729  0.00  0.00    +0.083 C 
ATOM     16  C   UNL     1      34.927 -17.654 -21.783  0.00  0.00    +0.019 C 
ATOM     17  C   UNL     1      34.688 -19.389 -23.447  0.00  0.00    +0.016 C 
ATOM     18  C   UNL     1      34.264 -17.084 -24.035  0.00  0.00    +0.062 C 
ATOM     19  C   UNL     1      34.326 -18.431 -24.394  0.00  0.00    +0.013 C 
BRANCH  15  23
ATOM     20  F   UNL     1      35.256 -14.435 -23.095  0.00  0.00    -0.166 F 
ATOM     21  F   UNL     1      33.254 -14.738 -22.318  0.00  0.00    -0.166 F 
ATOM     22  F   UNL     1      34.978 -15.078 -21.037  0.00  0.00    -0.166 F 
ATOM     23  C   UNL     1      34.513 -15.263 -22.306  0.00  0.00    +0.419 C 
ENDBRANCH  15  23
ENDBRANCH   8  14
ENDBRANCH   1   9
BRANCH   2  24
ATOM     24  O   UNL     1      33.730 -24.515 -15.094  0.00  0.00    -0.453 OA
BRANCH  24  26
ATOM     25  N   UNL     1      36.613 -25.510 -12.270  0.00  0.00    -0.239 NA
ATOM     26  C   UNL     1      34.690 -24.847 -14.153  0.00  0.00    +0.149 C 
ATOM     27  C   UNL     1      35.841 -25.486 -14.562  0.00  0.00    +0.061 C 
ATOM     28  C   UNL     1      36.771 -25.796 -13.583  0.00  0.00    +0.137 C 
ATOM     29  C   UNL     1      34.474 -24.530 -12.829  0.00  0.00    +0.058 C 
ATOM     30  C   UNL     1      35.466 -24.883 -11.927  0.00  0.00    +0.102 C 
BRANCH  28  33
ATOM     31  O   UNL     1      37.997 -27.649 -14.331  0.00  0.00    -0.268 OA
ATOM     32  N   UNL     1      39.191 -25.726 -13.830  0.00  0.00    -0.298 N 
ATOM     33  C   UNL     1      38.010 -26.470 -13.935  0.00  0.00    +0.264 C 
ATOM     34  C   UNL     1      40.497 -26.248 -14.166  0.00  0.00    +0.111 C 
ATOM     35  H   UNL     1      39.130 -24.797 -13.509  0.00  0.00    +0.150 HD
ENDBRANCH  28  33
ENDBRANCH  24  26
ENDBRANCH   2  24
TORSDOF 6
ENDMDL
MODEL 5
REMARK VINA RESULT:     -11.7      8.455     13.728
REMARK  Name = 216239
REMARK  6 active torsions:
REMARK  status: ('A' for Active; 'I' for Inactive)
REMARK    1  A    between atoms: C_1  and  N_9
REMARK    2  A    between atoms: C_2  and  O_24
REMARK    3  A    between atoms: N_8  and  C_14
REMARK    4  A    between atoms: C_15  and  C_23
REMARK    5  A    between atoms: O_24  and  C_26
REMARK    6  A    between atoms: C_28  and  C_33
REMARK                            x       y       z     vdW  Elec       q    Type
REMARK                         _______ _______ _______ _____ _____    ______ ____
ROOT
ATOM      1  C   UNL     1      35.344 -21.389 -19.201  0.00  0.00    +0.052 C 
ATOM      2  C   UNL     1      35.943 -19.496 -21.132  0.00  0.00    +0.145 C 
ATOM      3  C   UNL     1      36.666 -21.051 -19.431  0.00  0.00    +0.018 C 
ATOM      4  C   UNL     1      34.313 -20.801 -19.916  0.00  0.00    +0.018 C 
ATOM      5  C   UNL     1      36.968 -20.097 -20.403  0.00  0.00    +0.039 C 
ATOM      6  C   UNL     1      34.615 -19.848 -20.890  0.00  0.00    +0.039 C 
ENDROOT
BRANCH   1   9
ATOM      7  O   UNL     1      36.285 -21.623 -16.377  0.00  0.00    -0.252 OA
ATOM      8  N   UNL     1      34.959 -23.549 -16.238  0.00  0.00    -0.268 N 
ATOM      9  N   UNL     1      35.038 -22.356 -18.215  0.00  0.00    -0.268 N 
ATOM     10  C   UNL     1      35.510 -22.420 -16.893  0.00  0.00    +0.308 C 
ATOM     11  H   UNL     1      34.351 -24.102 -16.779  0.00  0.00    +0.156 HD
ATOM     12  H   UNL     1      34.420 -23.070 -18.487  0.00  0.00    +0.156 HD
BRANCH   8  14
ATOM     13 CL   UNL     1      35.784 -25.373 -10.677  0.00  0.00    -0.082 Cl
ATOM     14  C   UNL     1      35.164 -23.981 -14.927  0.00  0.00    +0.052 C 
ATOM     15  C   UNL     1      36.642 -24.793 -13.198  0.00  0.00    +0.083 C 
ATOM     16  C   UNL     1      36.438 -24.361 -14.508  0.00  0.00    +0.019 C 
ATOM     17  C   UNL     1      34.091 -24.034 -14.036  0.00  0.00    +0.016 C 
ATOM     18  C   UNL     1      35.570 -24.846 -12.306  0.00  0.00    +0.062 C 
ATOM     19  C   UNL     1      34.295 -24.466 -12.726  0.00  0.00    +0.013 C 
BRANCH  15  23
ATOM     20  F   UNL     1      38.110 -26.474 -12.337  0.00  0.00    -0.166 F 
ATOM     21  F   UNL     1      38.938 -25.099 -13.796  0.00  0.00    -0.166 F 
ATOM     22  F   UNL     1      38.510 -24.412 -11.777  0.00  0.00    -0.166 F 
ATOM     23  C   UNL     1      38.024 -25.189 -12.787  0.00  0.00    +0.419 C 
ENDBRANCH  15  23
ENDBRANCH   8  14
ENDBRANCH   1   9
BRANCH   2  24
ATOM     24  O   UNL     1      36.237 -18.567 -22.083  0.00  0.00    -0.453 OA
BRANCH  24  26
ATOM     25  N   UNL     1      33.362 -17.792 -24.982  0.00  0.00    -0.239 NA
ATOM     26  C   UNL     1      35.279 -18.308 -23.048  0.00  0.00    +0.149 C 
ATOM     27  C   UNL     1      35.028 -17.004 -23.417  0.00  0.00    +0.061 C 
ATOM     28  C   UNL     1      34.061 -16.798 -24.388  0.00  0.00    +0.137 C 
ATOM     29  C   UNL     1      34.596 -19.362 -23.619  0.00  0.00    +0.058 C 
ATOM     30  C   UNL     1      33.648 -19.050 -24.581  0.00  0.00    +0.102 C 
BRANCH  28  33
ATOM     31  O   UNL     1      33.432 -15.232 -26.015  0.00  0.00    -0.268 OA
ATOM     32  N   UNL     1      33.777 -14.439 -23.863  0.00  0.00    -0.298 N 
ATOM     33  C   UNL     1      33.742 -15.452 -24.830  0.00  0.00    +0.264 C 
ATOM     34  C   UNL     1      33.462 -13.056 -24.143  0.00  0.00    +0.111 C 
ATOM     35  H   UNL     1      34.031 -14.682 -22.943  0.00  0.00    +0.150 HD
ENDBRANCH  28  33
ENDBRANCH  24  26
ENDBRANCH   2  24
TORSDOF 6
ENDMDL
MODEL 6
REMARK VINA RESULT:     -11.6      2.085      2.988
REMARK  Name = 216239
REMARK  6 active torsions:
REMARK  status: ('A' for Active; 'I' for Inactive)
REMARK    1  A    between atoms: C_1  and  N_9
REMARK    2  A    between atoms: C_2  and  O_24
REMARK    3  A    between atoms: N_8  and  C_14
REMARK    4  A    between atoms: C_15  and  C_23
REMARK    5  A    between atoms: O_24  and  C_26
REMARK    6  A    between atoms: C_28  and  C_33
REMARK                            x       y       z     vdW  Elec       q    Type
REMARK                         _______ _______ _______ _____ _____    ______ ____
ROOT
ATOM      1  C   UNL     1      34.575 -15.805 -23.030  0.00  0.00    +0.052 C 
ATOM      2  C   UNL     1      35.318 -18.350 -22.229  0.00  0.00    +0.145 C 
ATOM      3  C   UNL     1      34.570 -16.834 -23.955  0.00  0.00    +0.018 C 
ATOM      4  C   UNL     1      34.944 -16.019 -21.712  0.00  0.00    +0.018 C 
ATOM      5  C   UNL     1      34.944 -18.116 -23.551  0.00  0.00    +0.039 C 
ATOM      6  C   UNL     1      35.319 -17.301 -21.309  0.00  0.00    +0.039 C 
ENDROOT
BRANCH   1   9
ATOM      7  O   UNL     1      33.451 -13.537 -21.444  0.00  0.00    -0.252 OA
ATOM      8  N   UNL     1      33.424 -12.327 -23.450  0.00  0.00    -0.268 N 
ATOM      9  N   UNL     1      34.195 -14.505 -23.439  0.00  0.00    -0.268 N 
ATOM     10  C   UNL     1      33.669 -13.469 -22.649  0.00  0.00    +0.308 C 
ATOM     11  H   UNL     1      33.648 -12.419 -24.405  0.00  0.00    +0.156 HD
ATOM     12  H   UNL     1      34.314 -14.300 -24.394  0.00  0.00    +0.156 HD
BRANCH   8  14
ATOM     13 CL   UNL     1      31.195  -7.102 -21.819  0.00  0.00    -0.082 Cl
ATOM     14  C   UNL     1      32.907 -11.089 -23.067  0.00  0.00    +0.052 C 
ATOM     15  C   UNL     1      33.143  -8.693 -22.869  0.00  0.00    +0.083 C 
ATOM     16  C   UNL     1      33.661  -9.930 -23.251  0.00  0.00    +0.019 C 
ATOM     17  C   UNL     1      31.635 -11.012 -22.501  0.00  0.00    +0.016 C 
ATOM     18  C   UNL     1      31.870  -8.615 -22.302  0.00  0.00    +0.062 C 
ATOM     19  C   UNL     1      31.116  -9.774 -22.119  0.00  0.00    +0.013 C 
BRANCH  15  23
ATOM     20  F   UNL     1      35.243  -7.753 -23.520  0.00  0.00    -0.166 F 
ATOM     21  F   UNL     1      33.463  -6.614 -24.008  0.00  0.00    -0.166 F 
ATOM     22  F   UNL     1      34.138  -6.742 -21.945  0.00  0.00    -0.166 F 
ATOM     23  C   UNL     1      33.981  -7.474 -23.084  0.00  0.00    +0.419 C 
ENDBRANCH  15  23
ENDBRANCH   8  14
ENDBRANCH   1   9
BRANCH   2  24
ATOM     24  O   UNL     1      35.685 -19.600 -21.836  0.00  0.00    -0.453 OA
BRANCH  24  26
ATOM     25  N   UNL     1      33.226 -21.569 -19.125  0.00  0.00    -0.239 NA
ATOM     26  C   UNL     1      34.866 -20.257 -20.933  0.00  0.00    +0.149 C 
ATOM     27  C   UNL     1      35.437 -20.991 -19.915  0.00  0.00    +0.061 C 
ATOM     28  C   UNL     1      34.574 -21.628 -19.038  0.00  0.00    +0.137 C 
ATOM     29  C   UNL     1      33.498 -20.160 -21.071  0.00  0.00    +0.058 C 
ATOM     30  C   UNL     1      32.722 -20.835 -20.142  0.00  0.00    +0.102 C 
BRANCH  28  33
ATOM     31  O   UNL     1      34.476 -23.412 -17.519  0.00  0.00    -0.268 OA
ATOM     32  N   UNL     1      36.334 -22.029 -17.405  0.00  0.00    -0.298 N 
ATOM     33  C   UNL     1      35.100 -22.420 -17.939  0.00  0.00    +0.264 C 
ATOM     34  C   UNL     1      36.997 -22.729 -16.328  0.00  0.00    +0.111 C 
ATOM     35  H   UNL     1      36.774 -21.234 -17.784  0.00  0.00    +0.150 HD
ENDBRANCH  28  33
ENDBRANCH  24  26
ENDBRANCH   2  24
TORSDOF 6
ENDMDL
MODEL 7
REMARK VINA RESULT:     -11.5      8.470     13.333
REMARK  Name = 216239
REMARK  6 active torsions:
REMARK  status: ('A' for Active; 'I' for Inactive)
REMARK    1  A    between atoms: C_1  and  N_9
REMARK    2  A    between atoms: C_2  and  O_24
REMARK    3  A    between atoms: N_8  and  C_14
REMARK    4  A    between atoms: C_15  and  C_23
REMARK    5  A    between atoms: O_24  and  C_26
REMARK    6  A    between atoms: C_28  and  C_33
REMARK                            x       y       z     vdW  Elec       q    Type
REMARK                         _______ _______ _______ _____ _____    ______ ____
ROOT
ATOM      1  C   UNL     1      36.417 -20.031 -19.988  0.00  0.00    +0.052 C 
ATOM      2  C   UNL     1      35.590 -19.049 -22.442  0.00  0.00    +0.145 C 
ATOM      3  C   UNL     1      35.159 -20.362 -20.461  0.00  0.00    +0.018 C 
ATOM      4  C   UNL     1      37.272 -19.219 -20.716  0.00  0.00    +0.018 C 
ATOM      5  C   UNL     1      34.742 -19.868 -21.697  0.00  0.00    +0.039 C 
ATOM      6  C   UNL     1      36.854 -18.723 -21.952  0.00  0.00    +0.039 C 
ENDROOT
BRANCH   1   9
ATOM      7  O   UNL     1      35.542 -22.463 -18.493  0.00  0.00    -0.252 OA
ATOM      8  N   UNL     1      37.074 -21.831 -16.838  0.00  0.00    -0.268 N 
ATOM      9  N   UNL     1      36.840 -20.533 -18.735  0.00  0.00    -0.268 N 
ATOM     10  C   UNL     1      36.394 -21.688 -18.072  0.00  0.00    +0.308 C 
ATOM     11  H   UNL     1      37.733 -21.129 -16.630  0.00  0.00    +0.156 HD
ATOM     12  H   UNL     1      37.530 -20.009 -18.269  0.00  0.00    +0.156 HD
BRANCH   8  14
ATOM     13 CL   UNL     1      36.439 -26.059 -12.757  0.00  0.00    -0.082 Cl
ATOM     14  C   UNL     1      36.934 -22.832 -15.876  0.00  0.00    +0.052 C 
ATOM     15  C   UNL     1      37.900 -24.585 -14.524  0.00  0.00    +0.083 C 
ATOM     16  C   UNL     1      38.041 -23.585 -15.486  0.00  0.00    +0.019 C 
ATOM     17  C   UNL     1      35.685 -23.078 -15.305  0.00  0.00    +0.016 C 
ATOM     18  C   UNL     1      36.652 -24.832 -13.952  0.00  0.00    +0.062 C 
ATOM     19  C   UNL     1      35.545 -24.078 -14.342  0.00  0.00    +0.013 C 
BRANCH  15  23
ATOM     20  F   UNL     1      39.465 -25.204 -12.823  0.00  0.00    -0.166 F 
ATOM     21  F   UNL     1      38.965 -26.715 -14.298  0.00  0.00    -0.166 F 
ATOM     22  F   UNL     1      40.213 -25.023 -14.857  0.00  0.00    -0.166 F 
ATOM     23  C   UNL     1      39.111 -25.368 -14.131  0.00  0.00    +0.419 C 
ENDBRANCH  15  23
ENDBRANCH   8  14
ENDBRANCH   1   9
BRANCH   2  24
ATOM     24  O   UNL     1      35.182 -18.565 -23.647  0.00  0.00    -0.453 OA
BRANCH  24  26
ATOM     25  N   UNL     1      33.710 -14.681 -23.772  0.00  0.00    -0.239 NA
ATOM     26  C   UNL     1      34.691 -17.271 -23.688  0.00  0.00    +0.149 C 
ATOM     27  C   UNL     1      34.568 -16.559 -22.514  0.00  0.00    +0.061 C 
ATOM     28  C   UNL     1      34.073 -15.269 -22.609  0.00  0.00    +0.137 C 
ATOM     29  C   UNL     1      34.337 -16.724 -24.903  0.00  0.00    +0.058 C 
ATOM     30  C   UNL     1      33.851 -15.425 -24.891  0.00  0.00    +0.102 C 
BRANCH  28  33
ATOM     31  O   UNL     1      34.845 -14.347 -20.596  0.00  0.00    -0.268 OA
ATOM     32  N   UNL     1      32.692 -13.793 -21.254  0.00  0.00    -0.298 N 
ATOM     33  C   UNL     1      33.915 -14.455 -21.416  0.00  0.00    +0.264 C 
ATOM     34  C   UNL     1      32.392 -12.930 -20.133  0.00  0.00    +0.111 C 
ATOM     35  H   UNL     1      31.998 -13.922 -21.941  0.00  0.00    +0.150 HD
ENDBRANCH  28  33
ENDBRANCH  24  26
ENDBRANCH   2  24
TORSDOF 6
ENDMDL
MODEL 8
REMARK VINA RESULT:     -11.4      8.589     13.723
REMARK  Name = 216239
REMARK  6 active torsions:
REMARK  status: ('A' for Active; 'I' for Inactive)
REMARK    1  A    between atoms: C_1  and  N_9
REMARK    2  A    between atoms: C_2  and  O_24
REMARK    3  A    between atoms: N_8  and  C_14
REMARK    4  A    between atoms: C_15  and  C_23
REMARK    5  A    between atoms: O_24  and  C_26
REMARK    6  A    between atoms: C_28  and  C_33
REMARK                            x       y       z     vdW  Elec       q    Type
REMARK                         _______ _______ _______ _____ _____    ______ ____
ROOT
ATOM      1  C   UNL     1      35.187 -21.390 -19.346  0.00  0.00    +0.052 C 
ATOM      2  C   UNL     1      35.549 -19.435 -21.275  0.00  0.00    +0.145 C 
ATOM      3  C   UNL     1      36.465 -20.928 -19.611  0.00  0.00    +0.018 C 
ATOM      4  C   UNL     1      34.085 -20.896 -20.025  0.00  0.00    +0.018 C 
ATOM      5  C   UNL     1      36.647 -19.943 -20.582  0.00  0.00    +0.039 C 
ATOM      6  C   UNL     1      34.268 -19.912 -20.997  0.00  0.00    +0.039 C 
ENDROOT
BRANCH   1   9
ATOM      7  O   UNL     1      36.195 -21.536 -16.539  0.00  0.00    -0.252 OA
ATOM      8  N   UNL     1      35.084 -23.593 -16.391  0.00  0.00    -0.268 N 
ATOM      9  N   UNL     1      35.003 -22.389 -18.361  0.00  0.00    -0.268 N 
ATOM     10  C   UNL     1      35.501 -22.409 -17.048  0.00  0.00    +0.308 C 
ATOM     11  H   UNL     1      34.529 -24.206 -16.927  0.00  0.00    +0.156 HD
ATOM     12  H   UNL     1      34.459 -23.164 -18.628  0.00  0.00    +0.156 HD
BRANCH   8  14
ATOM     13 CL   UNL     1      36.191 -25.340 -10.855  0.00  0.00    -0.082 Cl
ATOM     14  C   UNL     1      35.355 -24.008 -15.087  0.00  0.00    +0.052 C 
ATOM     15  C   UNL     1      36.918 -24.805 -13.427  0.00  0.00    +0.083 C 
ATOM     16  C   UNL     1      36.647 -24.391 -14.731  0.00  0.00    +0.019 C 
ATOM     17  C   UNL     1      34.331 -24.039 -14.140  0.00  0.00    +0.016 C 
ATOM     18  C   UNL     1      35.895 -24.836 -12.478  0.00  0.00    +0.062 C 
ATOM     19  C   UNL     1      34.602 -24.453 -12.835  0.00  0.00    +0.013 C 
BRANCH  15  23
ATOM     20  F   UNL     1      39.181 -25.115 -14.135  0.00  0.00    -0.166 F 
ATOM     21  F   UNL     1      38.872 -24.447 -12.095  0.00  0.00    -0.166 F 
ATOM     22  F   UNL     1      38.398 -26.496 -12.649  0.00  0.00    -0.166 F 
ATOM     23  C   UNL     1      38.316 -25.205 -13.084  0.00  0.00    +0.419 C 
ENDBRANCH  15  23
ENDBRANCH   8  14
ENDBRANCH   1   9
BRANCH   2  24
ATOM     24  O   UNL     1      35.727 -18.475 -22.223  0.00  0.00    -0.453 OA
BRANCH  24  26
ATOM     25  N   UNL     1      34.258 -14.672 -21.419  0.00  0.00    -0.239 NA
ATOM     26  C   UNL     1      35.238 -17.208 -21.956  0.00  0.00    +0.149 C 
ATOM     27  C   UNL     1      34.926 -16.370 -23.005  0.00  0.00    +0.061 C 
ATOM     28  C   UNL     1      34.440 -15.113 -22.684  0.00  0.00    +0.137 C 
ATOM     29  C   UNL     1      35.073 -16.812 -20.645  0.00  0.00    +0.058 C 
ATOM     30  C   UNL     1      34.581 -15.535 -20.430  0.00  0.00    +0.102 C 
BRANCH  28  33
ATOM     31  O   UNL     1      34.245 -12.950 -23.569  0.00  0.00    -0.268 OA
ATOM     32  N   UNL     1      33.597 -14.711 -24.931  0.00  0.00    -0.298 N 
ATOM     33  C   UNL     1      34.088 -14.173 -23.736  0.00  0.00    +0.264 C 
ATOM     34  C   UNL     1      33.226 -13.908 -26.075  0.00  0.00    +0.111 C 
ATOM     35  H   UNL     1      33.497 -15.688 -24.997  0.00  0.00    +0.150 HD
ENDBRANCH  28  33
ENDBRANCH  24  26
ENDBRANCH   2  24
TORSDOF 6
ENDMDL
MODEL 9
REMARK VINA RESULT:     -11.2      7.260     11.993
REMARK  Name = 216239
REMARK  6 active torsions:
REMARK  status: ('A' for Active; 'I' for Inactive)
REMARK    1  A    between atoms: C_1  and  N_9
REMARK    2  A    between atoms: C_2  and  O_24
REMARK    3  A    between atoms: N_8  and  C_14
REMARK    4  A    between atoms: C_15  and  C_23
REMARK    5  A    between atoms: O_24  and  C_26
REMARK    6  A    between atoms: C_28  and  C_33
REMARK                            x       y       z     vdW  Elec       q    Type
REMARK                         _______ _______ _______ _____ _____    ______ ____
ROOT
ATOM      1  C   UNL     1      35.108 -19.318 -22.237  0.00  0.00    +0.052 C 
ATOM      2  C   UNL     1      34.482 -17.508 -24.238  0.00  0.00    +0.145 C 
ATOM      3  C   UNL     1      34.288 -19.716 -23.278  0.00  0.00    +0.018 C 
ATOM      4  C   UNL     1      35.623 -18.033 -22.173  0.00  0.00    +0.018 C 
ATOM      5  C   UNL     1      33.972 -18.805 -24.286  0.00  0.00    +0.039 C 
ATOM      6  C   UNL     1      35.306 -17.121 -23.181  0.00  0.00    +0.039 C 
ENDROOT
BRANCH   1   9
ATOM      7  O   UNL     1      33.443 -20.347 -19.981  0.00  0.00    -0.252 OA
ATOM      8  N   UNL     1      35.310 -21.620 -19.364  0.00  0.00    -0.268 N 
ATOM      9  N   UNL     1      35.428 -20.242 -21.215  0.00  0.00    -0.268 N 
ATOM     10  C   UNL     1      34.603 -20.696 -20.172  0.00  0.00    +0.308 C 
ATOM     11  H   UNL     1      36.238 -21.804 -19.638  0.00  0.00    +0.156 HD
ATOM     12  H   UNL     1      36.338 -20.613 -21.237  0.00  0.00    +0.156 HD
BRANCH   8  14
ATOM     13 CL   UNL     1      33.395 -24.522 -14.585  0.00  0.00    -0.082 Cl
ATOM     14  C   UNL     1      34.868 -22.305 -18.232  0.00  0.00    +0.052 C 
ATOM     15  C   UNL     1      35.287 -23.188 -16.023  0.00  0.00    +0.083 C 
ATOM     16  C   UNL     1      35.730 -22.504 -17.155  0.00  0.00    +0.019 C 
ATOM     17  C   UNL     1      33.561 -22.791 -18.179  0.00  0.00    +0.016 C 
ATOM     18  C   UNL     1      33.980 -23.674 -15.969  0.00  0.00    +0.062 C 
ATOM     19  C   UNL     1      33.117 -23.474 -17.047  0.00  0.00    +0.013 C 
BRANCH  15  23
ATOM     20  F   UNL     1      35.726 -23.018 -13.678  0.00  0.00    -0.166 F 
ATOM     21  F   UNL     1      36.652 -24.670 -14.734  0.00  0.00    -0.166 F 
ATOM     22  F   UNL     1      37.381 -22.644 -15.037  0.00  0.00    -0.166 F 
ATOM     23  C   UNL     1      36.241 -23.378 -14.888  0.00  0.00    +0.419 C 
ENDBRANCH  15  23
ENDBRANCH   8  14
ENDBRANCH   1   9
BRANCH   2  24
ATOM     24  O   UNL     1      34.172 -16.618 -25.220  0.00  0.00    -0.453 OA
BRANCH  24  26
ATOM     25  N   UNL     1      33.057 -12.782 -24.072  0.00  0.00    -0.239 NA
ATOM     26  C   UNL     1      33.800 -15.341 -24.837  0.00  0.00    +0.149 C 
ATOM     27  C   UNL     1      33.594 -15.070 -23.501  0.00  0.00    +0.061 C 
ATOM     28  C   UNL     1      33.224 -13.777 -23.170  0.00  0.00    +0.137 C 
ATOM     29  C   UNL     1      33.645 -14.367 -25.801  0.00  0.00    +0.058 C 
ATOM     30  C   UNL     1      33.272 -13.105 -25.366  0.00  0.00    +0.102 C 
BRANCH  28  33
ATOM     31  O   UNL     1      33.560 -14.029 -20.863  0.00  0.00    -0.268 OA
ATOM     32  N   UNL     1      32.121 -12.342 -21.543  0.00  0.00    -0.298 N 
ATOM     33  C   UNL     1      32.989 -13.414 -21.782  0.00  0.00    +0.264 C 
ATOM     34  C   UNL     1      31.806 -11.850 -20.220  0.00  0.00    +0.111 C 
ATOM     35  H   UNL     1      31.702 -11.900 -22.316  0.00  0.00    +0.150 HD
ENDBRANCH  28  33
ENDBRANCH  24  26
ENDBRANCH   2  24
TORSDOF 6
ENDMDL
