MODEL 1
REMARK VINA RESULT:     -11.3      0.000      0.000
REMARK  Name = 24988948
REMARK  5 active torsions:
REMARK  status: ('A' for Active; 'I' for Inactive)
REMARK    1  A    between atoms: N_2  and  C_21
REMARK    2  A    between atoms: C_6  and  O_11
REMARK    3  A    between atoms: O_11  and  C_13
REMARK    4  A    between atoms: C_16  and  C_20
REMARK    5  A    between atoms: C_21  and  C_25
REMARK                            x       y       z     vdW  Elec       q    Type
REMARK                         _______ _______ _______ _____ _____    ______ ____
ROOT
ATOM      1 CL   UNL     1      30.445 -10.414 -19.782  0.00  0.00    -0.079 Cl
ATOM      2  N   UNL     1      34.125 -13.692 -22.885  0.00  0.00    -0.205 N 
ATOM      3  N   UNL     1      34.128 -13.120 -24.102  0.00  0.00    -0.176 NA
ATOM      4  C   UNL     1      33.309 -13.072 -21.977  0.00  0.00    +0.074 C 
ATOM      5  C   UNL     1      32.737 -12.008 -22.665  0.00  0.00    +0.071 C 
ATOM      6  C   UNL     1      31.835 -11.162 -21.997  0.00  0.00    +0.158 C 
ATOM      7  C   UNL     1      33.283 -12.096 -23.963  0.00  0.00    +0.122 C 
ATOM      8  C   UNL     1      33.032 -13.350 -20.637  0.00  0.00    +0.017 C 
ATOM      9  C   UNL     1      31.544 -11.424 -20.652  0.00  0.00    +0.092 C 
ATOM     10  C   UNL     1      32.133 -12.499 -19.985  0.00  0.00    +0.016 C 
ENDROOT
BRANCH   6  11
ATOM     11  O   UNL     1      31.257 -10.108 -22.650  0.00  0.00    -0.453 OA
BRANCH  11  13
ATOM     12 CL   UNL     1      35.570  -7.404 -23.035  0.00  0.00    -0.082 Cl
ATOM     13  C   UNL     1      31.884  -8.881 -22.557  0.00  0.00    +0.147 C 
ATOM     14  C   UNL     1      31.150  -7.748 -22.205  0.00  0.00    +0.048 C 
ATOM     15  C   UNL     1      33.251  -8.774 -22.813  0.00  0.00    +0.049 C 
ATOM     16  C   UNL     1      31.783  -6.509 -22.110  0.00  0.00    +0.072 C 
ATOM     17  C   UNL     1      33.884  -7.535 -22.718  0.00  0.00    +0.061 C 
ATOM     18  C   UNL     1      33.150  -6.402 -22.367  0.00  0.00    +0.022 C 
BRANCH  16  20
ATOM     19  N   UNL     1      30.419  -4.407 -21.459  0.00  0.00    -0.191 NA
ATOM     20  C   UNL     1      31.030  -5.348 -21.751  0.00  0.00    +0.101 C 
ENDBRANCH  16  20
ENDBRANCH  11  13
ENDBRANCH   6  11
BRANCH   2  21
ATOM     21  C   UNL     1      34.945 -14.858 -22.655  0.00  0.00    +0.159 C 
BRANCH  21  25
ATOM     22  N   UNL     1      33.748 -15.950 -24.579  0.00  0.00    -0.230 N 
ATOM     23  N   UNL     1      33.436 -17.124 -25.168  0.00  0.00    -0.128 NA
ATOM     24  N   UNL     1      34.010 -19.391 -24.521  0.00  0.00    -0.192 NA
ATOM     25  C   UNL     1      34.502 -16.065 -23.445  0.00  0.00    +0.071 C 
ATOM     26  C   UNL     1      34.693 -17.410 -23.287  0.00  0.00    +0.058 C 
ATOM     27  C   UNL     1      34.016 -18.035 -24.379  0.00  0.00    +0.049 C 
ATOM     28  C   UNL     1      35.407 -18.018 -22.265  0.00  0.00    +0.065 C 
ATOM     29  C   UNL     1      35.388 -19.408 -22.430  0.00  0.00    +0.001 C 
ATOM     30  C   UNL     1      34.712 -20.010 -23.518  0.00  0.00    +0.105 C 
ATOM     31  H   UNL     1      33.455 -15.081 -24.938  0.00  0.00    +0.175 HD
ENDBRANCH  21  25
ENDBRANCH   2  21
TORSDOF 5
ENDMDL
MODEL 2
REMARK VINA RESULT:     -11.1      4.147      6.781
REMARK  Name = 24988948
REMARK  5 active torsions:
REMARK  status: ('A' for Active; 'I' for Inactive)
REMARK    1  A    between atoms: N_2  and  C_21
REMARK    2  A    between atoms: C_6  and  O_11
REMARK    3  A    between atoms: O_11  and  C_13
REMARK    4  A    between atoms: C_16  and  C_20
REMARK    5  A    between atoms: C_21  and  C_25
REMARK                            x       y       z     vdW  Elec       q    Type
REMARK                         _______ _______ _______ _____ _____    ______ ____
ROOT
ATOM      1 CL   UNL     1      33.818 -15.475 -25.665  0.00  0.00    -0.079 Cl
ATOM      2  N   UNL     1      35.173 -19.378 -21.560  0.00  0.00    -0.205 N 
ATOM      3  N   UNL     1      35.770 -18.652 -20.600  0.00  0.00    -0.176 NA
ATOM      4  C   UNL     1      34.765 -18.648 -22.644  0.00  0.00    +0.074 C 
ATOM      5  C   UNL     1      35.129 -17.337 -22.360  0.00  0.00    +0.071 C 
ATOM      6  C   UNL     1      34.843 -16.326 -23.293  0.00  0.00    +0.158 C 
ATOM      7  C   UNL     1      35.742 -17.410 -21.091  0.00  0.00    +0.122 C 
ATOM      8  C   UNL     1      34.120 -19.021 -23.825  0.00  0.00    +0.017 C 
ATOM      9  C   UNL     1      34.197 -16.679 -24.484  0.00  0.00    +0.092 C 
ATOM     10  C   UNL     1      33.842 -18.003 -24.744  0.00  0.00    +0.016 C 
ENDROOT
BRANCH   6  11
ATOM     11  O   UNL     1      35.192 -15.027 -23.039  0.00  0.00    -0.453 OA
BRANCH  11  13
ATOM     12 CL   UNL     1      31.879 -14.255 -19.232  0.00  0.00    -0.082 Cl
ATOM     13  C   UNL     1      34.235 -14.213 -22.464  0.00  0.00    +0.147 C 
ATOM     14  C   UNL     1      33.892 -13.005 -23.070  0.00  0.00    +0.048 C 
ATOM     15  C   UNL     1      33.612 -14.600 -21.278  0.00  0.00    +0.049 C 
ATOM     16  C   UNL     1      32.926 -12.184 -22.490  0.00  0.00    +0.072 C 
ATOM     17  C   UNL     1      32.647 -13.778 -20.696  0.00  0.00    +0.061 C 
ATOM     18  C   UNL     1      32.303 -12.570 -21.303  0.00  0.00    +0.022 C 
BRANCH  16  20
ATOM     19  N   UNL     1      32.290  -9.940 -23.615  0.00  0.00    -0.191 NA
ATOM     20  C   UNL     1      32.574 -10.945 -23.111  0.00  0.00    +0.101 C 
ENDBRANCH  16  20
ENDBRANCH  11  13
ENDBRANCH   6  11
BRANCH   2  21
ATOM     21  C   UNL     1      35.022 -20.803 -21.372  0.00  0.00    +0.159 C 
BRANCH  21  25
ATOM     22  N   UNL     1      36.676 -21.033 -19.491  0.00  0.00    -0.230 N 
ATOM     23  N   UNL     1      36.879 -21.516 -18.246  0.00  0.00    -0.128 NA
ATOM     24  N   UNL     1      35.372 -22.728 -16.782  0.00  0.00    -0.192 NA
ATOM     25  C   UNL     1      35.427 -21.270 -19.996  0.00  0.00    +0.071 C 
ATOM     26  C   UNL     1      34.774 -21.954 -19.008  0.00  0.00    +0.058 C 
ATOM     27  C   UNL     1      35.709 -22.087 -17.936  0.00  0.00    +0.049 C 
ATOM     28  C   UNL     1      33.467 -22.413 -19.061  0.00  0.00    +0.065 C 
ATOM     29  C   UNL     1      33.142 -23.068 -17.868  0.00  0.00    +0.001 C 
ATOM     30  C   UNL     1      34.081 -23.190 -16.816  0.00  0.00    +0.105 C 
ATOM     31  H   UNL     1      37.371 -20.552 -19.994  0.00  0.00    +0.175 HD
ENDBRANCH  21  25
ENDBRANCH   2  21
TORSDOF 5
ENDMDL
MODEL 3
REMARK VINA RESULT:     -10.7      1.443      2.141
REMARK  Name = 24988948
REMARK  5 active torsions:
REMARK  status: ('A' for Active; 'I' for Inactive)
REMARK    1  A    between atoms: N_2  and  C_21
REMARK    2  A    between atoms: C_6  and  O_11
REMARK    3  A    between atoms: O_11  and  C_13
REMARK    4  A    between atoms: C_16  and  C_20
REMARK    5  A    between atoms: C_21  and  C_25
REMARK                            x       y       z     vdW  Elec       q    Type
REMARK                         _______ _______ _______ _____ _____    ______ ____
ROOT
ATOM      1 CL   UNL     1      32.288 -12.274 -19.731  0.00  0.00    -0.079 Cl
ATOM      2  N   UNL     1      34.275 -15.351 -24.258  0.00  0.00    -0.205 N 
ATOM      3  N   UNL     1      33.684 -14.786 -25.325  0.00  0.00    -0.176 NA
ATOM      4  C   UNL     1      33.943 -14.775 -23.062  0.00  0.00    +0.074 C 
ATOM      5  C   UNL     1      33.062 -13.749 -23.382  0.00  0.00    +0.071 C 
ATOM      6  C   UNL     1      32.530 -12.952 -22.354  0.00  0.00    +0.158 C 
ATOM      7  C   UNL     1      32.946 -13.811 -24.787  0.00  0.00    +0.122 C 
ATOM      8  C   UNL     1      34.334 -15.062 -21.753  0.00  0.00    +0.017 C 
ATOM      9  C   UNL     1      32.909 -13.224 -21.033  0.00  0.00    +0.092 C 
ATOM     10  C   UNL     1      33.796 -14.261 -20.740  0.00  0.00    +0.016 C 
ENDROOT
BRANCH   6  11
ATOM     11  O   UNL     1      31.660 -11.935 -22.641  0.00  0.00    -0.453 OA
BRANCH  11  13
ATOM     12 CL   UNL     1      35.625  -8.976 -23.900  0.00  0.00    -0.082 Cl
ATOM     13  C   UNL     1      32.184 -10.663 -22.753  0.00  0.00    +0.147 C 
ATOM     14  C   UNL     1      31.410  -9.557 -22.400  0.00  0.00    +0.048 C 
ATOM     15  C   UNL     1      33.487 -10.482 -23.215  0.00  0.00    +0.049 C 
ATOM     16  C   UNL     1      31.939  -8.271 -22.512  0.00  0.00    +0.072 C 
ATOM     17  C   UNL     1      34.017  -9.197 -23.328  0.00  0.00    +0.061 C 
ATOM     18  C   UNL     1      33.243  -8.091 -22.976  0.00  0.00    +0.022 C 
BRANCH  16  20
ATOM     19  N   UNL     1      30.503  -6.219 -21.859  0.00  0.00    -0.191 NA
ATOM     20  C   UNL     1      31.146  -7.138 -22.152  0.00  0.00    +0.101 C 
ENDBRANCH  16  20
ENDBRANCH  11  13
ENDBRANCH   6  11
BRANCH   2  21
ATOM     21  C   UNL     1      35.168 -16.468 -24.460  0.00  0.00    +0.159 C 
BRANCH  21  25
ATOM     22  N   UNL     1      33.645 -18.453 -24.198  0.00  0.00    -0.230 N 
ATOM     23  N   UNL     1      33.374 -19.552 -23.462  0.00  0.00    -0.128 NA
ATOM     24  N   UNL     1      34.497 -20.427 -21.499  0.00  0.00    -0.192 NA
ATOM     25  C   UNL     1      34.719 -17.727 -23.761  0.00  0.00    +0.071 C 
ATOM     26  C   UNL     1      35.176 -18.405 -22.665  0.00  0.00    +0.058 C 
ATOM     27  C   UNL     1      34.315 -19.534 -22.511  0.00  0.00    +0.049 C 
ATOM     28  C   UNL     1      36.261 -18.047 -21.879  0.00  0.00    +0.065 C 
ATOM     29  C   UNL     1      36.430 -18.976 -20.846  0.00  0.00    +0.001 C 
ATOM     30  C   UNL     1      35.567 -20.089 -20.709  0.00  0.00    +0.105 C 
ATOM     31  H   UNL     1      33.112 -18.195 -24.984  0.00  0.00    +0.175 HD
ENDBRANCH  21  25
ENDBRANCH   2  21
TORSDOF 5
ENDMDL
MODEL 4
REMARK VINA RESULT:     -10.5      1.548      1.783
REMARK  Name = 24988948
REMARK  5 active torsions:
REMARK  status: ('A' for Active; 'I' for Inactive)
REMARK    1  A    between atoms: N_2  and  C_21
REMARK    2  A    between atoms: C_6  and  O_11
REMARK    3  A    between atoms: O_11  and  C_13
REMARK    4  A    between atoms: C_16  and  C_20
REMARK    5  A    between atoms: C_21  and  C_25
REMARK                            x       y       z     vdW  Elec       q    Type
REMARK                         _______ _______ _______ _____ _____    ______ ____
ROOT
ATOM      1 CL   UNL     1      30.445 -10.564 -19.608  0.00  0.00    -0.079 Cl
ATOM      2  N   UNL     1      34.070 -13.672 -22.943  0.00  0.00    -0.205 N 
ATOM      3  N   UNL     1      33.981 -13.093 -24.153  0.00  0.00    -0.176 NA
ATOM      4  C   UNL     1      33.284 -13.091 -21.985  0.00  0.00    +0.074 C 
ATOM      5  C   UNL     1      32.631 -12.047 -22.630  0.00  0.00    +0.071 C 
ATOM      6  C   UNL     1      31.736 -11.242 -21.904  0.00  0.00    +0.158 C 
ATOM      7  C   UNL     1      33.105 -12.104 -23.958  0.00  0.00    +0.122 C 
ATOM      8  C   UNL     1      33.095 -13.389 -20.634  0.00  0.00    +0.017 C 
ATOM      9  C   UNL     1      31.533 -11.523 -20.548  0.00  0.00    +0.092 C 
ATOM     10  C   UNL     1      32.201 -12.579 -19.925  0.00  0.00    +0.016 C 
ENDROOT
BRANCH   6  11
ATOM     11  O   UNL     1      31.080 -10.207 -22.515  0.00  0.00    -0.453 OA
BRANCH  11  13
ATOM     12 CL   UNL     1      32.983  -6.017 -20.305  0.00  0.00    -0.082 Cl
ATOM     13  C   UNL     1      31.764  -9.015 -22.655  0.00  0.00    +0.147 C 
ATOM     14  C   UNL     1      32.217  -8.615 -23.912  0.00  0.00    +0.048 C 
ATOM     15  C   UNL     1      32.000  -8.211 -21.540  0.00  0.00    +0.049 C 
ATOM     16  C   UNL     1      32.906  -7.411 -24.054  0.00  0.00    +0.072 C 
ATOM     17  C   UNL     1      32.691  -7.007 -21.681  0.00  0.00    +0.061 C 
ATOM     18  C   UNL     1      33.143  -6.607 -22.939  0.00  0.00    +0.022 C 
BRANCH  16  20
ATOM     19  N   UNL     1      33.748  -6.669 -26.387  0.00  0.00    -0.191 NA
ATOM     20  C   UNL     1      33.371  -7.002 -25.342  0.00  0.00    +0.101 C 
ENDBRANCH  16  20
ENDBRANCH  11  13
ENDBRANCH   6  11
BRANCH   2  21
ATOM     21  C   UNL     1      34.947 -14.806 -22.770  0.00  0.00    +0.159 C 
BRANCH  21  25
ATOM     22  N   UNL     1      33.720 -15.945 -24.648  0.00  0.00    -0.230 N 
ATOM     23  N   UNL     1      33.402 -17.133 -25.204  0.00  0.00    -0.128 NA
ATOM     24  N   UNL     1      33.996 -19.382 -24.517  0.00  0.00    -0.192 NA
ATOM     25  C   UNL     1      34.495 -16.032 -23.524  0.00  0.00    +0.071 C 
ATOM     26  C   UNL     1      34.694 -17.372 -23.340  0.00  0.00    +0.058 C 
ATOM     27  C   UNL     1      34.000 -18.024 -24.405  0.00  0.00    +0.049 C 
ATOM     28  C   UNL     1      35.428 -17.955 -22.318  0.00  0.00    +0.065 C 
ATOM     29  C   UNL     1      35.412 -19.347 -22.451  0.00  0.00    +0.001 C 
ATOM     30  C   UNL     1      34.718 -19.977 -23.513  0.00  0.00    +0.105 C 
ATOM     31  H   UNL     1      33.417 -15.086 -25.020  0.00  0.00    +0.175 HD
ENDBRANCH  21  25
ENDBRANCH   2  21
TORSDOF 5
ENDMDL
MODEL 5
REMARK VINA RESULT:     -10.4      9.256     14.310
REMARK  Name = 24988948
REMARK  5 active torsions:
REMARK  status: ('A' for Active; 'I' for Inactive)
REMARK    1  A    between atoms: N_2  and  C_21
REMARK    2  A    between atoms: C_6  and  O_11
REMARK    3  A    between atoms: O_11  and  C_13
REMARK    4  A    between atoms: C_16  and  C_20
REMARK    5  A    between atoms: C_21  and  C_25
REMARK                            x       y       z     vdW  Elec       q    Type
REMARK                         _______ _______ _______ _____ _____    ______ ____
ROOT
ATOM      1 CL   UNL     1      30.831 -23.925 -13.565  0.00  0.00    -0.079 Cl
ATOM      2  N   UNL     1      34.469 -22.581 -17.909  0.00  0.00    -0.205 N 
ATOM      3  N   UNL     1      35.684 -22.589 -17.335  0.00  0.00    -0.176 NA
ATOM      4  C   UNL     1      33.442 -22.876 -17.053  0.00  0.00    +0.074 C 
ATOM      5  C   UNL     1      34.045 -23.094 -15.820  0.00  0.00    +0.071 C 
ATOM      6  C   UNL     1      33.246 -23.423 -14.712  0.00  0.00    +0.158 C 
ATOM      7  C   UNL     1      35.422 -22.902 -16.063  0.00  0.00    +0.122 C 
ATOM      8  C   UNL     1      32.063 -22.968 -17.255  0.00  0.00    +0.017 C 
ATOM      9  C   UNL     1      31.860 -23.520 -14.892  0.00  0.00    +0.092 C 
ATOM     10  C   UNL     1      31.281 -23.297 -16.142  0.00  0.00    +0.016 C 
ENDROOT
BRANCH   6  11
ATOM     11  O   UNL     1      33.813 -23.642 -13.486  0.00  0.00    -0.453 OA
BRANCH  11  13
ATOM     12 CL   UNL     1      38.382 -24.323 -11.313  0.00  0.00    -0.082 Cl
ATOM     13  C   UNL     1      35.002 -24.343 -13.452  0.00  0.00    +0.147 C 
ATOM     14  C   UNL     1      35.228 -25.377 -14.360  0.00  0.00    +0.048 C 
ATOM     15  C   UNL     1      35.978 -24.017 -12.510  0.00  0.00    +0.049 C 
ATOM     16  C   UNL     1      36.429 -26.086 -14.326  0.00  0.00    +0.072 C 
ATOM     17  C   UNL     1      37.179 -24.725 -12.476  0.00  0.00    +0.061 C 
ATOM     18  C   UNL     1      37.405 -25.760 -13.384  0.00  0.00    +0.022 C 
BRANCH  16  20
ATOM     19  N   UNL     1      36.846 -28.006 -16.012  0.00  0.00    -0.191 NA
ATOM     20  C   UNL     1      36.659 -27.146 -15.257  0.00  0.00    +0.101 C 
ENDBRANCH  16  20
ENDBRANCH  11  13
ENDBRANCH   6  11
BRANCH   2  21
ATOM     21  C   UNL     1      34.360 -22.275 -19.317  0.00  0.00    +0.159 C 
BRANCH  21  25
ATOM     22  N   UNL     1      36.405 -20.830 -19.082  0.00  0.00    -0.230 N 
ATOM     23  N   UNL     1      37.094 -19.791 -19.601  0.00  0.00    -0.128 NA
ATOM     24  N   UNL     1      36.602 -18.407 -21.531  0.00  0.00    -0.192 NA
ATOM     25  C   UNL     1      35.256 -21.143 -19.753  0.00  0.00    +0.071 C 
ATOM     26  C   UNL     1      35.195 -20.242 -20.780  0.00  0.00    +0.058 C 
ATOM     27  C   UNL     1      36.355 -19.419 -20.653  0.00  0.00    +0.049 C 
ATOM     28  C   UNL     1      34.197 -20.166 -21.740  0.00  0.00    +0.065 C 
ATOM     29  C   UNL     1      34.469 -19.121 -22.631  0.00  0.00    +0.001 C 
ATOM     30  C   UNL     1      35.624 -18.316 -22.489  0.00  0.00    +0.105 C 
ATOM     31  H   UNL     1      36.707 -21.322 -18.284  0.00  0.00    +0.175 HD
ENDBRANCH  21  25
ENDBRANCH   2  21
TORSDOF 5
ENDMDL
MODEL 6
REMARK VINA RESULT:     -10.4      7.673     12.164
REMARK  Name = 24988948
REMARK  5 active torsions:
REMARK  status: ('A' for Active; 'I' for Inactive)
REMARK    1  A    between atoms: N_2  and  C_21
REMARK    2  A    between atoms: C_6  and  O_11
REMARK    3  A    between atoms: O_11  and  C_13
REMARK    4  A    between atoms: C_16  and  C_20
REMARK    5  A    between atoms: C_21  and  C_25
REMARK                            x       y       z     vdW  Elec       q    Type
REMARK                         _______ _______ _______ _____ _____    ______ ____
ROOT
ATOM      1 CL   UNL     1      35.946 -24.191 -15.380  0.00  0.00    -0.079 Cl
ATOM      2  N   UNL     1      35.071 -20.633 -19.907  0.00  0.00    -0.205 N 
ATOM      3  N   UNL     1      33.861 -20.986 -20.373  0.00  0.00    -0.176 NA
ATOM      4  C   UNL     1      35.486 -21.356 -18.821  0.00  0.00    +0.074 C 
ATOM      5  C   UNL     1      34.457 -22.253 -18.563  0.00  0.00    +0.071 C 
ATOM      6  C   UNL     1      34.580 -23.152 -17.490  0.00  0.00    +0.158 C 
ATOM      7  C   UNL     1      33.490 -21.973 -19.553  0.00  0.00    +0.122 C 
ATOM      8  C   UNL     1      36.655 -21.298 -18.059  0.00  0.00    +0.017 C 
ATOM      9  C   UNL     1      35.744 -23.111 -16.713  0.00  0.00    +0.092 C 
ATOM     10  C   UNL     1      36.763 -22.199 -16.994  0.00  0.00    +0.016 C 
ENDROOT
BRANCH   6  11
ATOM     11  O   UNL     1      33.581 -24.047 -17.215  0.00  0.00    -0.453 OA
BRANCH  11  13
ATOM     12 CL   UNL     1      32.397 -23.128 -12.334  0.00  0.00    -0.082 Cl
ATOM     13  C   UNL     1      32.626 -23.669 -16.291  0.00  0.00    +0.147 C 
ATOM     14  C   UNL     1      31.333 -23.361 -16.711  0.00  0.00    +0.048 C 
ATOM     15  C   UNL     1      32.955 -23.598 -14.937  0.00  0.00    +0.049 C 
ATOM     16  C   UNL     1      30.368 -22.980 -15.779  0.00  0.00    +0.072 C 
ATOM     17  C   UNL     1      31.991 -23.217 -14.004  0.00  0.00    +0.061 C 
ATOM     18  C   UNL     1      30.697 -22.909 -14.424  0.00  0.00    +0.022 C 
BRANCH  16  20
ATOM     19  N   UNL     1      27.968 -22.406 -16.560  0.00  0.00    -0.191 NA
ATOM     20  C   UNL     1      29.043 -22.664 -16.210  0.00  0.00    +0.101 C 
ENDBRANCH  16  20
ENDBRANCH  11  13
ENDBRANCH   6  11
BRANCH   2  21
ATOM     21  C   UNL     1      35.794 -19.569 -20.564  0.00  0.00    +0.159 C 
BRANCH  21  25
ATOM     22  N   UNL     1      34.881 -20.206 -22.819  0.00  0.00    -0.230 N 
ATOM     23  N   UNL     1      34.417 -19.742 -23.999  0.00  0.00    -0.128 NA
ATOM     24  N   UNL     1      34.144 -17.460 -24.774  0.00  0.00    -0.192 NA
ATOM     25  C   UNL     1      35.253 -19.235 -21.932  0.00  0.00    +0.071 C 
ATOM     26  C   UNL     1      35.012 -18.057 -22.583  0.00  0.00    +0.058 C 
ATOM     27  C   UNL     1      34.492 -18.413 -23.865  0.00  0.00    +0.049 C 
ATOM     28  C   UNL     1      35.235 -16.785 -22.076  0.00  0.00    +0.065 C 
ATOM     29  C   UNL     1      34.872 -15.822 -23.025  0.00  0.00    +0.001 C 
ATOM     30  C   UNL     1      34.358 -16.194 -24.291  0.00  0.00    +0.105 C 
ATOM     31  H   UNL     1      34.947 -21.167 -22.616  0.00  0.00    +0.175 HD
ENDBRANCH  21  25
ENDBRANCH   2  21
TORSDOF 5
ENDMDL
MODEL 7
REMARK VINA RESULT:     -10.4      8.872     13.860
REMARK  Name = 24988948
REMARK  5 active torsions:
REMARK  status: ('A' for Active; 'I' for Inactive)
REMARK    1  A    between atoms: N_2  and  C_21
REMARK    2  A    between atoms: C_6  and  O_11
REMARK    3  A    between atoms: O_11  and  C_13
REMARK    4  A    between atoms: C_16  and  C_20
REMARK    5  A    between atoms: C_21  and  C_25
REMARK                            x       y       z     vdW  Elec       q    Type
REMARK                         _______ _______ _______ _____ _____    ______ ____
ROOT
ATOM      1 CL   UNL     1      33.467 -24.153 -14.573  0.00  0.00    -0.079 Cl
ATOM      2  N   UNL     1      35.607 -21.569 -19.333  0.00  0.00    -0.205 N 
ATOM      3  N   UNL     1      36.773 -21.041 -18.925  0.00  0.00    -0.176 NA
ATOM      4  C   UNL     1      34.919 -22.236 -18.355  0.00  0.00    +0.074 C 
ATOM      5  C   UNL     1      35.709 -22.131 -17.217  0.00  0.00    +0.071 C 
ATOM      6  C   UNL     1      35.273 -22.724 -16.019  0.00  0.00    +0.158 C 
ATOM      7  C   UNL     1      36.832 -21.386 -17.636  0.00  0.00    +0.122 C 
ATOM      8  C   UNL     1      33.696 -22.909 -18.375  0.00  0.00    +0.017 C 
ATOM      9  C   UNL     1      34.049 -23.404 -16.017  0.00  0.00    +0.092 C 
ATOM     10  C   UNL     1      33.275 -23.494 -17.175  0.00  0.00    +0.016 C 
ENDROOT
BRANCH   6  11
ATOM     11  O   UNL     1      36.032 -22.635 -14.883  0.00  0.00    -0.453 OA
BRANCH  11  13
ATOM     12 CL   UNL     1      37.623 -27.485 -14.785  0.00  0.00    -0.082 Cl
ATOM     13  C   UNL     1      36.221 -23.792 -14.154  0.00  0.00    +0.147 C 
ATOM     14  C   UNL     1      35.869 -23.831 -12.804  0.00  0.00    +0.048 C 
ATOM     15  C   UNL     1      36.763 -24.922 -14.766  0.00  0.00    +0.049 C 
ATOM     16  C   UNL     1      36.060 -25.000 -12.067  0.00  0.00    +0.072 C 
ATOM     17  C   UNL     1      36.954 -26.091 -14.029  0.00  0.00    +0.061 C 
ATOM     18  C   UNL     1      36.602 -26.130 -12.680  0.00  0.00    +0.022 C 
BRANCH  16  20
ATOM     19  N   UNL     1      35.409 -25.070  -9.563  0.00  0.00    -0.191 NA
ATOM     20  C   UNL     1      35.701 -25.039 -10.685  0.00  0.00    +0.101 C 
ENDBRANCH  16  20
ENDBRANCH  11  13
ENDBRANCH   6  11
BRANCH   2  21
ATOM     21  C   UNL     1      35.199 -21.392 -20.708  0.00  0.00    +0.159 C 
BRANCH  21  25
ATOM     22  N   UNL     1      35.790 -18.968 -20.387  0.00  0.00    -0.230 N 
ATOM     23  N   UNL     1      35.777 -17.741 -20.948  0.00  0.00    -0.128 NA
ATOM     24  N   UNL     1      34.970 -17.032 -23.124  0.00  0.00    -0.192 NA
ATOM     25  C   UNL     1      35.266 -19.958 -21.172  0.00  0.00    +0.071 C 
ATOM     26  C   UNL     1      34.886 -19.327 -22.324  0.00  0.00    +0.058 C 
ATOM     27  C   UNL     1      35.221 -17.949 -22.147  0.00  0.00    +0.049 C 
ATOM     28  C   UNL     1      34.298 -19.927 -23.427  0.00  0.00    +0.065 C 
ATOM     29  C   UNL     1      34.050 -18.969 -24.416  0.00  0.00    +0.001 C 
ATOM     30  C   UNL     1      34.387 -17.608 -24.224  0.00  0.00    +0.105 C 
ATOM     31  H   UNL     1      36.147 -19.137 -19.485  0.00  0.00    +0.175 HD
ENDBRANCH  21  25
ENDBRANCH   2  21
TORSDOF 5
ENDMDL
MODEL 8
REMARK VINA RESULT:     -10.3      9.460     14.291
REMARK  Name = 24988948
REMARK  5 active torsions:
REMARK  status: ('A' for Active; 'I' for Inactive)
REMARK    1  A    between atoms: N_2  and  C_21
REMARK    2  A    between atoms: C_6  and  O_11
REMARK    3  A    between atoms: O_11  and  C_13
REMARK    4  A    between atoms: C_16  and  C_20
REMARK    5  A    between atoms: C_21  and  C_25
REMARK                            x       y       z     vdW  Elec       q    Type
REMARK                         _______ _______ _______ _____ _____    ______ ____
ROOT
ATOM      1 CL   UNL     1      30.717 -24.271 -13.407  0.00  0.00    -0.079 Cl
ATOM      2  N   UNL     1      34.316 -22.723 -17.716  0.00  0.00    -0.205 N 
ATOM      3  N   UNL     1      35.535 -22.751 -17.152  0.00  0.00    -0.176 NA
ATOM      4  C   UNL     1      33.297 -23.060 -16.866  0.00  0.00    +0.074 C 
ATOM      5  C   UNL     1      33.910 -23.328 -15.648  0.00  0.00    +0.071 C 
ATOM      6  C   UNL     1      33.120 -23.708 -14.549  0.00  0.00    +0.158 C 
ATOM      7  C   UNL     1      35.284 -23.119 -15.893  0.00  0.00    +0.122 C 
ATOM      8  C   UNL     1      31.917 -23.149 -17.061  0.00  0.00    +0.017 C 
ATOM      9  C   UNL     1      31.734 -23.805 -14.723  0.00  0.00    +0.092 C 
ATOM     10  C   UNL     1      31.144 -23.530 -15.958  0.00  0.00    +0.016 C 
ENDROOT
BRANCH   6  11
ATOM     11  O   UNL     1      33.698 -23.977 -13.338  0.00  0.00    -0.453 OA
BRANCH  11  13
ATOM     12 CL   UNL     1      36.969 -27.488 -15.082  0.00  0.00    -0.082 Cl
ATOM     13  C   UNL     1      34.984 -24.481 -13.345  0.00  0.00    +0.147 C 
ATOM     14  C   UNL     1      35.976 -23.871 -12.576  0.00  0.00    +0.048 C 
ATOM     15  C   UNL     1      35.291 -25.600 -14.119  0.00  0.00    +0.049 C 
ATOM     16  C   UNL     1      37.274 -24.380 -12.582  0.00  0.00    +0.072 C 
ATOM     17  C   UNL     1      36.590 -26.109 -14.126  0.00  0.00    +0.061 C 
ATOM     18  C   UNL     1      37.582 -25.499 -13.357  0.00  0.00    +0.022 C 
BRANCH  16  20
ATOM     19  N   UNL     1      39.115 -23.247 -11.157  0.00  0.00    -0.191 NA
ATOM     20  C   UNL     1      38.290 -23.755 -11.795  0.00  0.00    +0.101 C 
ENDBRANCH  16  20
ENDBRANCH  11  13
ENDBRANCH   6  11
BRANCH   2  21
ATOM     21  C   UNL     1      34.194 -22.357 -19.108  0.00  0.00    +0.159 C 
BRANCH  21  25
ATOM     22  N   UNL     1      36.364 -21.105 -18.878  0.00  0.00    -0.230 N 
ATOM     23  N   UNL     1      37.135 -20.121 -19.386  0.00  0.00    -0.128 NA
ATOM     24  N   UNL     1      36.740 -18.655 -21.279  0.00  0.00    -0.192 NA
ATOM     25  C   UNL     1      35.181 -21.299 -19.536  0.00  0.00    +0.071 C 
ATOM     26  C   UNL     1      35.186 -20.374 -20.543  0.00  0.00    +0.058 C 
ATOM     27  C   UNL     1      36.417 -19.661 -20.418  0.00  0.00    +0.049 C 
ATOM     28  C   UNL     1      34.185 -20.188 -21.485  0.00  0.00    +0.065 C 
ATOM     29  C   UNL     1      34.536 -19.152 -22.357  0.00  0.00    +0.001 C 
ATOM     30  C   UNL     1      35.760 -18.456 -22.218  0.00  0.00    +0.105 C 
ATOM     31  H   UNL     1      36.632 -21.640 -18.096  0.00  0.00    +0.175 HD
ENDBRANCH  21  25
ENDBRANCH   2  21
TORSDOF 5
ENDMDL
MODEL 9
REMARK VINA RESULT:     -10.3      2.877      9.491
REMARK  Name = 24988948
REMARK  5 active torsions:
REMARK  status: ('A' for Active; 'I' for Inactive)
REMARK    1  A    between atoms: N_2  and  C_21
REMARK    2  A    between atoms: C_6  and  O_11
REMARK    3  A    between atoms: O_11  and  C_13
REMARK    4  A    between atoms: C_16  and  C_20
REMARK    5  A    between atoms: C_21  and  C_25
REMARK                            x       y       z     vdW  Elec       q    Type
REMARK                         _______ _______ _______ _____ _____    ______ ____
ROOT
ATOM      1 CL   UNL     1      31.540 -10.788 -18.519  0.00  0.00    -0.079 Cl
ATOM      2  N   UNL     1      33.121  -7.554 -23.097  0.00  0.00    -0.205 N 
ATOM      3  N   UNL     1      32.757  -8.290 -24.161  0.00  0.00    -0.176 NA
ATOM      4  C   UNL     1      32.839  -8.135 -21.890  0.00  0.00    +0.074 C 
ATOM      5  C   UNL     1      32.241  -9.351 -22.200  0.00  0.00    +0.071 C 
ATOM      6  C   UNL     1      31.826 -10.199 -21.159  0.00  0.00    +0.158 C 
ATOM      7  C   UNL     1      32.221  -9.382 -23.611  0.00  0.00    +0.122 C 
ATOM      8  C   UNL     1      33.055  -7.704 -20.579  0.00  0.00    +0.017 C 
ATOM      9  C   UNL     1      32.033  -9.786 -19.837  0.00  0.00    +0.092 C 
ATOM     10  C   UNL     1      32.637  -8.560 -19.554  0.00  0.00    +0.016 C 
ENDROOT
BRANCH   6  11
ATOM     11  O   UNL     1      31.235 -11.402 -21.436  0.00  0.00    -0.453 OA
BRANCH  11  13
ATOM     12 CL   UNL     1      34.337 -15.188 -19.985  0.00  0.00    -0.082 Cl
ATOM     13  C   UNL     1      32.060 -12.447 -21.803  0.00  0.00    +0.147 C 
ATOM     14  C   UNL     1      32.249 -12.746 -23.152  0.00  0.00    +0.048 C 
ATOM     15  C   UNL     1      32.707 -13.201 -20.824  0.00  0.00    +0.049 C 
ATOM     16  C   UNL     1      33.083 -13.801 -23.522  0.00  0.00    +0.072 C 
ATOM     17  C   UNL     1      33.540 -14.257 -21.193  0.00  0.00    +0.061 C 
ATOM     18  C   UNL     1      33.729 -14.556 -22.543  0.00  0.00    +0.022 C 
BRANCH  16  20
ATOM     19  N   UNL     1      33.431 -14.358 -26.026  0.00  0.00    -0.191 NA
ATOM     20  C   UNL     1      33.275 -14.108 -24.904  0.00  0.00    +0.101 C 
ENDBRANCH  16  20
ENDBRANCH  11  13
ENDBRANCH   6  11
BRANCH   2  21
ATOM     21  C   UNL     1      33.752  -6.272 -23.312  0.00  0.00    +0.159 C 
BRANCH  21  25
ATOM     22  N   UNL     1      32.514  -4.991 -25.088  0.00  0.00    -0.230 N 
ATOM     23  N   UNL     1      31.632  -3.997 -25.327  0.00  0.00    -0.128 NA
ATOM     24  N   UNL     1      30.470  -2.541 -23.772  0.00  0.00    -0.192 NA
ATOM     25  C   UNL     1      32.789  -5.202 -23.766  0.00  0.00    +0.071 C 
ATOM     26  C   UNL     1      32.031  -4.279 -23.099  0.00  0.00    +0.058 C 
ATOM     27  C   UNL     1      31.325  -3.549 -24.104  0.00  0.00    +0.049 C 
ATOM     28  C   UNL     1      31.976  -4.109 -21.724  0.00  0.00    +0.065 C 
ATOM     29  C   UNL     1      31.094  -3.071 -21.406  0.00  0.00    +0.001 C 
ATOM     30  C   UNL     1      30.403  -2.358 -22.414  0.00  0.00    +0.105 C 
ATOM     31  H   UNL     1      32.926  -5.519 -25.809  0.00  0.00    +0.175 HD
ENDBRANCH  21  25
ENDBRANCH   2  21
TORSDOF 5
ENDMDL
