MODEL 1
REMARK VINA RESULT:     -11.2      0.000      0.000
REMARK  Name = 4449
REMARK  10 active torsions:
REMARK  status: ('A' for Active; 'I' for Inactive)
REMARK    1  A    between atoms: N_2  and  C_9
REMARK    2  A    between atoms: N_3  and  C_26
REMARK    3  A    between atoms: C_6  and  C_7
REMARK    4  A    between atoms: C_9  and  C_10
REMARK    5  A    between atoms: C_10  and  C_11
REMARK    6  A    between atoms: C_11  and  N_12
REMARK    7  A    between atoms: N_13  and  C_20
REMARK    8  A    between atoms: C_26  and  C_27
REMARK    9  A    between atoms: C_27  and  O_28
REMARK   10  A    between atoms: O_28  and  C_29
REMARK                            x       y       z     vdW  Elec       q    Type
REMARK                         _______ _______ _______ _____ _____    ______ ____
ROOT
ATOM      1  O   UNL     1      34.954 -16.218 -20.225  0.00  0.00    -0.245 OA
ATOM      2  N   UNL     1      33.754 -14.634 -21.486  0.00  0.00    -0.201 N 
ATOM      3  N   UNL     1      34.766 -16.277 -22.559  0.00  0.00    -0.263 N 
ATOM      4  N   UNL     1      33.501 -14.453 -22.820  0.00  0.00    -0.152 NA
ATOM      5  C   UNL     1      34.548 -15.774 -21.289  0.00  0.00    +0.348 A 
ATOM      6  C   UNL     1      34.119 -15.441 -23.399  0.00  0.00    +0.144 A 
ENDROOT
BRANCH   6   7
ATOM      7  C   UNL     1      34.121 -15.663 -24.874  0.00  0.00    +0.066 C 
ATOM      8  C   UNL     1      33.393 -14.538 -25.581  0.00  0.00    +0.008 C 
ENDBRANCH   6   7
BRANCH   2   9
ATOM      9  C   UNL     1      33.237 -13.733 -20.493  0.00  0.00    +0.130 C 
BRANCH   9  10
ATOM     10  C   UNL     1      31.911 -13.099 -20.912  0.00  0.00    +0.004 C 
BRANCH  10  11
ATOM     11  C   UNL     1      31.566 -11.805 -20.169  0.00  0.00    -0.075 C 
BRANCH  11  12
ATOM     12  N   UNL     1      31.987 -10.618 -20.912  0.00  0.00    +0.389 N 
ATOM     13  N   UNL     1      31.740  -7.971 -21.956  0.00  0.00    -0.312 N 
ATOM     14  C   UNL     1      32.076  -9.457 -20.020  0.00  0.00    -0.055 C 
ATOM     15  C   UNL     1      31.051 -10.337 -22.007  0.00  0.00    -0.055 C 
ATOM     16  C   UNL     1      32.570  -8.219 -20.775  0.00  0.00    +0.068 C 
ATOM     17  C   UNL     1      31.512  -9.130 -22.828  0.00  0.00    +0.068 C 
ATOM     18  H   UNL     1      32.910 -10.802 -21.306  0.00  0.00    -0.080 HD
BRANCH  13  20
ATOM     19 CL   UNL     1      31.793  -2.891 -21.315  0.00  0.00    -0.082 Cl
ATOM     20  C   UNL     1      31.722  -6.698 -22.538  0.00  0.00    +0.049 C 
ATOM     21  C   UNL     1      31.760  -5.562 -21.730  0.00  0.00    +0.026 C 
ATOM     22  C   UNL     1      31.672  -6.567 -23.926  0.00  0.00    +0.015 C 
ATOM     23  C   UNL     1      31.747  -4.294 -22.310  0.00  0.00    +0.059 C 
ATOM     24  C   UNL     1      31.658  -5.299 -24.506  0.00  0.00    +0.002 C 
ATOM     25  C   UNL     1      31.697  -4.162 -23.698  0.00  0.00    +0.011 C 
ENDBRANCH  13  20
ENDBRANCH  11  12
ENDBRANCH  10  11
ENDBRANCH   9  10
ENDBRANCH   2   9
BRANCH   3  26
ATOM     26  C   UNL     1      35.536 -17.462 -22.885  0.00  0.00    +0.159 C 
BRANCH  26  27
ATOM     27  C   UNL     1      34.852 -18.725 -22.391  0.00  0.00    +0.230 C 
BRANCH  27  28
ATOM     28  O   UNL     1      35.687 -19.371 -21.438  0.00  0.00    -0.473 OA
BRANCH  28  29
ATOM     29  C   UNL     1      35.085 -20.274 -20.601  0.00  0.00    +0.139 C 
ATOM     30  C   UNL     1      33.695 -20.295 -20.482  0.00  0.00    +0.037 C 
ATOM     31  C   UNL     1      35.860 -21.172 -19.870  0.00  0.00    +0.037 C 
ATOM     32  C   UNL     1      33.082 -21.214 -19.631  0.00  0.00    +0.003 C 
ATOM     33  C   UNL     1      35.248 -22.092 -19.019  0.00  0.00    +0.003 C 
ATOM     34  C   UNL     1      33.859 -22.113 -18.899  0.00  0.00    +0.000 C 
ENDBRANCH  28  29
ENDBRANCH  27  28
ENDBRANCH  26  27
ENDBRANCH   3  26
TORSDOF 10
ENDMDL
MODEL 2
REMARK VINA RESULT:     -11.1      4.003      7.655
REMARK  Name = 4449
REMARK  10 active torsions:
REMARK  status: ('A' for Active; 'I' for Inactive)
REMARK    1  A    between atoms: N_2  and  C_9
REMARK    2  A    between atoms: N_3  and  C_26
REMARK    3  A    between atoms: C_6  and  C_7
REMARK    4  A    between atoms: C_9  and  C_10
REMARK    5  A    between atoms: C_10  and  C_11
REMARK    6  A    between atoms: C_11  and  N_12
REMARK    7  A    between atoms: N_13  and  C_20
REMARK    8  A    between atoms: C_26  and  C_27
REMARK    9  A    between atoms: C_27  and  O_28
REMARK   10  A    between atoms: O_28  and  C_29
REMARK                            x       y       z     vdW  Elec       q    Type
REMARK                         _______ _______ _______ _____ _____    ______ ____
ROOT
ATOM      1  O   UNL     1      32.687 -21.888 -19.805  0.00  0.00    -0.245 OA
ATOM      2  N   UNL     1      34.842 -20.963 -20.012  0.00  0.00    -0.201 N 
ATOM      3  N   UNL     1      34.466 -22.382 -18.362  0.00  0.00    -0.263 N 
ATOM      4  N   UNL     1      36.017 -21.086 -19.318  0.00  0.00    -0.152 NA
ATOM      5  C   UNL     1      33.846 -21.765 -19.434  0.00  0.00    +0.348 A 
ATOM      6  C   UNL     1      35.737 -21.925 -18.364  0.00  0.00    +0.144 A 
ENDROOT
BRANCH   6   7
ATOM      7  C   UNL     1      36.727 -22.374 -17.343  0.00  0.00    +0.066 C 
ATOM      8  C   UNL     1      37.189 -21.204 -16.499  0.00  0.00    +0.008 C 
ENDBRANCH   6   7
BRANCH   2   9
ATOM      9  C   UNL     1      34.734 -20.108 -21.162  0.00  0.00    +0.130 C 
BRANCH   9  10
ATOM     10  C   UNL     1      35.840 -19.055 -21.215  0.00  0.00    +0.004 C 
BRANCH  10  11
ATOM     11  C   UNL     1      35.880 -18.244 -22.514  0.00  0.00    -0.075 C 
BRANCH  11  12
ATOM     12  N   UNL     1      35.543 -16.839 -22.291  0.00  0.00    +0.389 N 
ATOM     13  N   UNL     1      33.811 -14.613 -21.840  0.00  0.00    -0.312 N 
ATOM     14  C   UNL     1      34.873 -16.669 -20.996  0.00  0.00    -0.055 C 
ATOM     15  C   UNL     1      34.681 -16.338 -23.369  0.00  0.00    -0.055 C 
ATOM     16  C   UNL     1      34.564 -15.194 -20.725  0.00  0.00    +0.068 C 
ATOM     17  C   UNL     1      34.368 -14.852 -23.177  0.00  0.00    +0.068 C 
ATOM     18  H   UNL     1      36.410 -16.301 -22.285  0.00  0.00    -0.080 HD
BRANCH  13  20
ATOM     19 CL   UNL     1      32.297 -10.053 -23.613  0.00  0.00    -0.082 Cl
ATOM     20  C   UNL     1      33.063 -13.447 -21.639  0.00  0.00    +0.049 C 
ATOM     21  C   UNL     1      33.055 -12.448 -22.612  0.00  0.00    +0.026 C 
ATOM     22  C   UNL     1      32.321 -13.288 -20.468  0.00  0.00    +0.015 C 
ATOM     23  C   UNL     1      32.306 -11.288 -22.413  0.00  0.00    +0.059 C 
ATOM     24  C   UNL     1      31.572 -12.128 -20.270  0.00  0.00    +0.002 C 
ATOM     25  C   UNL     1      31.564 -11.128 -21.243  0.00  0.00    +0.011 C 
ENDBRANCH  13  20
ENDBRANCH  11  12
ENDBRANCH  10  11
ENDBRANCH   9  10
ENDBRANCH   2   9
BRANCH   3  26
ATOM     26  C   UNL     1      33.848 -23.319 -17.445  0.00  0.00    +0.159 C 
BRANCH  26  27
ATOM     27  C   UNL     1      32.526 -22.793 -16.915  0.00  0.00    +0.230 C 
BRANCH  27  28
ATOM     28  O   UNL     1      32.386 -23.157 -15.548  0.00  0.00    -0.473 OA
BRANCH  28  29
ATOM     29  C   UNL     1      31.265 -23.870 -15.210  0.00  0.00    +0.139 C 
ATOM     30  C   UNL     1      31.354 -24.915 -14.291  0.00  0.00    +0.037 C 
ATOM     31  C   UNL     1      30.036 -23.550 -15.785  0.00  0.00    +0.037 C 
ATOM     32  C   UNL     1      30.214 -25.640 -13.946  0.00  0.00    +0.003 C 
ATOM     33  C   UNL     1      28.895 -24.274 -15.440  0.00  0.00    +0.003 C 
ATOM     34  C   UNL     1      28.984 -25.319 -14.521  0.00  0.00    +0.000 C 
ENDBRANCH  28  29
ENDBRANCH  27  28
ENDBRANCH  26  27
ENDBRANCH   3  26
TORSDOF 10
ENDMDL
MODEL 3
REMARK VINA RESULT:     -11.1      4.132      7.646
REMARK  Name = 4449
REMARK  10 active torsions:
REMARK  status: ('A' for Active; 'I' for Inactive)
REMARK    1  A    between atoms: N_2  and  C_9
REMARK    2  A    between atoms: N_3  and  C_26
REMARK    3  A    between atoms: C_6  and  C_7
REMARK    4  A    between atoms: C_9  and  C_10
REMARK    5  A    between atoms: C_10  and  C_11
REMARK    6  A    between atoms: C_11  and  N_12
REMARK    7  A    between atoms: N_13  and  C_20
REMARK    8  A    between atoms: C_26  and  C_27
REMARK    9  A    between atoms: C_27  and  O_28
REMARK   10  A    between atoms: O_28  and  C_29
REMARK                            x       y       z     vdW  Elec       q    Type
REMARK                         _______ _______ _______ _____ _____    ______ ____
ROOT
ATOM      1  O   UNL     1      32.624 -22.229 -19.601  0.00  0.00    -0.245 OA
ATOM      2  N   UNL     1      34.651 -21.045 -19.779  0.00  0.00    -0.201 N 
ATOM      3  N   UNL     1      34.486 -22.612 -18.233  0.00  0.00    -0.263 N 
ATOM      4  N   UNL     1      35.850 -21.079 -19.119  0.00  0.00    -0.152 NA
ATOM      5  C   UNL     1      33.770 -21.998 -19.244  0.00  0.00    +0.348 A 
ATOM      6  C   UNL     1      35.696 -22.011 -18.224  0.00  0.00    +0.144 A 
ENDROOT
BRANCH   6   7
ATOM      7  C   UNL     1      36.759 -22.412 -17.259  0.00  0.00    +0.066 C 
ATOM      8  C   UNL     1      37.269 -21.206 -16.497  0.00  0.00    +0.008 C 
ENDBRANCH   6   7
BRANCH   2   9
ATOM      9  C   UNL     1      34.413 -20.128 -20.861  0.00  0.00    +0.130 C 
BRANCH   9  10
ATOM     10  C   UNL     1      35.525 -19.091 -21.004  0.00  0.00    +0.004 C 
BRANCH  10  11
ATOM     11  C   UNL     1      35.721 -18.566 -22.430  0.00  0.00    -0.075 C 
BRANCH  11  12
ATOM     12  N   UNL     1      35.543 -17.117 -22.508  0.00  0.00    +0.389 N 
ATOM     13  N   UNL     1      34.073 -14.668 -22.542  0.00  0.00    -0.312 N 
ATOM     14  C   UNL     1      34.920 -16.608 -21.281  0.00  0.00    -0.055 C 
ATOM     15  C   UNL     1      34.721 -16.760 -23.671  0.00  0.00    -0.055 C 
ATOM     16  C   UNL     1      34.779 -15.083 -21.327  0.00  0.00    +0.068 C 
ATOM     17  C   UNL     1      34.575 -15.242 -23.796  0.00  0.00    +0.068 C 
ATOM     18  H   UNL     1      36.463 -16.689 -22.612  0.00  0.00    -0.080 HD
BRANCH  13  20
ATOM     19 CL   UNL     1      30.575 -11.448 -20.638  0.00  0.00    -0.082 Cl
ATOM     20  C   UNL     1      33.460 -13.411 -22.593  0.00  0.00    +0.049 C 
ATOM     21  C   UNL     1      32.441 -13.094 -21.696  0.00  0.00    +0.026 C 
ATOM     22  C   UNL     1      33.873 -12.473 -23.540  0.00  0.00    +0.015 C 
ATOM     23  C   UNL     1      31.834 -11.840 -21.745  0.00  0.00    +0.059 C 
ATOM     24  C   UNL     1      33.266 -11.219 -23.589  0.00  0.00    +0.002 C 
ATOM     25  C   UNL     1      32.246 -10.901 -22.691  0.00  0.00    +0.011 C 
ENDBRANCH  13  20
ENDBRANCH  11  12
ENDBRANCH  10  11
ENDBRANCH   9  10
ENDBRANCH   2   9
BRANCH   3  26
ATOM     26  C   UNL     1      34.006 -23.678 -17.375  0.00  0.00    +0.159 C 
BRANCH  26  27
ATOM     27  C   UNL     1      33.358 -23.132 -16.116  0.00  0.00    +0.230 C 
BRANCH  27  28
ATOM     28  O   UNL     1      31.964 -22.963 -16.337  0.00  0.00    -0.473 OA
BRANCH  28  29
ATOM     29  C   UNL     1      31.122 -23.771 -15.619  0.00  0.00    +0.139 C 
ATOM     30  C   UNL     1      29.764 -23.819 -15.936  0.00  0.00    +0.037 C 
ATOM     31  C   UNL     1      31.621 -24.544 -14.573  0.00  0.00    +0.037 C 
ATOM     32  C   UNL     1      28.906 -24.641 -15.206  0.00  0.00    +0.003 C 
ATOM     33  C   UNL     1      30.764 -25.367 -13.842  0.00  0.00    +0.003 C 
ATOM     34  C   UNL     1      29.406 -25.415 -14.158  0.00  0.00    +0.000 C 
ENDBRANCH  28  29
ENDBRANCH  27  28
ENDBRANCH  26  27
ENDBRANCH   3  26
TORSDOF 10
ENDMDL
MODEL 4
REMARK VINA RESULT:     -10.8      4.442     11.872
REMARK  Name = 4449
REMARK  10 active torsions:
REMARK  status: ('A' for Active; 'I' for Inactive)
REMARK    1  A    between atoms: N_2  and  C_9
REMARK    2  A    between atoms: N_3  and  C_26
REMARK    3  A    between atoms: C_6  and  C_7
REMARK    4  A    between atoms: C_9  and  C_10
REMARK    5  A    between atoms: C_10  and  C_11
REMARK    6  A    between atoms: C_11  and  N_12
REMARK    7  A    between atoms: N_13  and  C_20
REMARK    8  A    between atoms: C_26  and  C_27
REMARK    9  A    between atoms: C_27  and  O_28
REMARK   10  A    between atoms: O_28  and  C_29
REMARK                            x       y       z     vdW  Elec       q    Type
REMARK                         _______ _______ _______ _____ _____    ______ ____
ROOT
ATOM      1  O   UNL     1      32.704  -9.493 -24.131  0.00  0.00    -0.245 OA
ATOM      2  N   UNL     1      32.678 -11.529 -22.948  0.00  0.00    -0.201 N 
ATOM      3  N   UNL     1      31.710  -9.770 -22.027  0.00  0.00    -0.263 N 
ATOM      4  N   UNL     1      32.178 -11.937 -21.739  0.00  0.00    -0.152 NA
ATOM      5  C   UNL     1      32.400 -10.169 -23.158  0.00  0.00    +0.348 A 
ATOM      6  C   UNL     1      31.626 -10.867 -21.245  0.00  0.00    +0.144 A 
ENDROOT
BRANCH   6   7
ATOM      7  C   UNL     1      30.938 -10.830 -19.922  0.00  0.00    +0.066 C 
ATOM      8  C   UNL     1      31.932 -10.560 -18.812  0.00  0.00    +0.008 C 
ENDBRANCH   6   7
BRANCH   2   9
ATOM      9  C   UNL     1      33.376 -12.435 -23.818  0.00  0.00    +0.130 C 
BRANCH   9  10
ATOM     10  C   UNL     1      33.444 -13.853 -23.254  0.00  0.00    +0.004 C 
BRANCH  10  11
ATOM     11  C   UNL     1      34.036 -14.889 -24.214  0.00  0.00    -0.075 C 
BRANCH  11  12
ATOM     12  N   UNL     1      34.758 -15.944 -23.504  0.00  0.00    +0.389 N 
ATOM     13  N   UNL     1      35.037 -18.224 -21.807  0.00  0.00    -0.312 N 
ATOM     14  C   UNL     1      34.314 -17.266 -23.958  0.00  0.00    -0.055 C 
ATOM     15  C   UNL     1      34.557 -15.820 -22.055  0.00  0.00    -0.055 C 
ATOM     16  C   UNL     1      35.102 -18.380 -23.263  0.00  0.00    +0.068 C 
ATOM     17  C   UNL     1      35.354 -16.884 -21.297  0.00  0.00    +0.068 C 
ATOM     18  H   UNL     1      35.752 -15.842 -23.709  0.00  0.00    -0.080 HD
BRANCH  13  20
ATOM     19 CL   UNL     1      33.218 -22.206 -19.149  0.00  0.00    -0.082 Cl
ATOM     20  C   UNL     1      35.300 -19.321 -20.979  0.00  0.00    +0.049 C 
ATOM     21  C   UNL     1      34.250 -20.122 -20.529  0.00  0.00    +0.026 C 
ATOM     22  C   UNL     1      36.612 -19.616 -20.608  0.00  0.00    +0.015 C 
ATOM     23  C   UNL     1      34.513 -21.217 -19.707  0.00  0.00    +0.059 C 
ATOM     24  C   UNL     1      36.874 -20.712 -19.786  0.00  0.00    +0.002 C 
ATOM     25  C   UNL     1      35.825 -21.513 -19.335  0.00  0.00    +0.011 C 
ENDBRANCH  13  20
ENDBRANCH  11  12
ENDBRANCH  10  11
ENDBRANCH   9  10
ENDBRANCH   2   9
BRANCH   3  26
ATOM     26  C   UNL     1      31.198  -8.439 -21.768  0.00  0.00    +0.159 C 
BRANCH  26  27
ATOM     27  C   UNL     1      32.232  -7.568 -21.077  0.00  0.00    +0.230 C 
BRANCH  27  28
ATOM     28  O   UNL     1      32.383  -6.352 -21.799  0.00  0.00    -0.473 OA
BRANCH  28  29
ATOM     29  C   UNL     1      33.356  -6.323 -22.763  0.00  0.00    +0.139 C 
ATOM     30  C   UNL     1      34.492  -7.122 -22.631  0.00  0.00    +0.037 C 
ATOM     31  C   UNL     1      33.212  -5.495 -23.875  0.00  0.00    +0.037 C 
ATOM     32  C   UNL     1      35.483  -7.092 -23.612  0.00  0.00    +0.003 C 
ATOM     33  C   UNL     1      34.202  -5.466 -24.857  0.00  0.00    +0.003 C 
ATOM     34  C   UNL     1      35.338  -6.264 -24.725  0.00  0.00    +0.000 C 
ENDBRANCH  28  29
ENDBRANCH  27  28
ENDBRANCH  26  27
ENDBRANCH   3  26
TORSDOF 10
ENDMDL
MODEL 5
REMARK VINA RESULT:     -10.8      4.344     11.615
REMARK  Name = 4449
REMARK  10 active torsions:
REMARK  status: ('A' for Active; 'I' for Inactive)
REMARK    1  A    between atoms: N_2  and  C_9
REMARK    2  A    between atoms: N_3  and  C_26
REMARK    3  A    between atoms: C_6  and  C_7
REMARK    4  A    between atoms: C_9  and  C_10
REMARK    5  A    between atoms: C_10  and  C_11
REMARK    6  A    between atoms: C_11  and  N_12
REMARK    7  A    between atoms: N_13  and  C_20
REMARK    8  A    between atoms: C_26  and  C_27
REMARK    9  A    between atoms: C_27  and  O_28
REMARK   10  A    between atoms: O_28  and  C_29
REMARK                            x       y       z     vdW  Elec       q    Type
REMARK                         _______ _______ _______ _____ _____    ______ ____
ROOT
ATOM      1  O   UNL     1      32.544 -11.022 -23.995  0.00  0.00    -0.245 OA
ATOM      2  N   UNL     1      33.118 -13.160 -23.192  0.00  0.00    -0.201 N 
ATOM      3  N   UNL     1      32.077 -11.773 -21.826  0.00  0.00    -0.263 N 
ATOM      4  N   UNL     1      32.961 -13.818 -22.002  0.00  0.00    -0.152 NA
ATOM      5  C   UNL     1      32.572 -11.869 -23.114  0.00  0.00    +0.348 A 
ATOM      6  C   UNL     1      32.349 -12.958 -21.240  0.00  0.00    +0.144 A 
ENDROOT
BRANCH   6   7
ATOM      7  C   UNL     1      31.958 -13.238 -19.828  0.00  0.00    +0.066 C 
ATOM      8  C   UNL     1      32.213 -14.691 -19.484  0.00  0.00    +0.008 C 
ENDBRANCH   6   7
BRANCH   2   9
ATOM      9  C   UNL     1      33.763 -13.781 -24.317  0.00  0.00    +0.130 C 
BRANCH   9  10
ATOM     10  C   UNL     1      33.692 -15.306 -24.262  0.00  0.00    +0.004 C 
BRANCH  10  11
ATOM     11  C   UNL     1      35.004 -16.014 -24.616  0.00  0.00    -0.075 C 
BRANCH  11  12
ATOM     12  N   UNL     1      35.265 -17.153 -23.736  0.00  0.00    +0.389 N 
ATOM     13  N   UNL     1      34.652 -19.096 -21.736  0.00  0.00    -0.312 N 
ATOM     14  C   UNL     1      34.337 -18.251 -24.027  0.00  0.00    -0.055 C 
ATOM     15  C   UNL     1      35.143 -16.755 -22.329  0.00  0.00    -0.055 C 
ATOM     16  C   UNL     1      34.636 -19.471 -23.152  0.00  0.00    +0.068 C 
ATOM     17  C   UNL     1      35.470 -17.925 -21.397  0.00  0.00    +0.068 C 
ATOM     18  H   UNL     1      36.218 -17.473 -23.907  0.00  0.00    -0.080 HD
BRANCH  13  20
ATOM     19 CL   UNL     1      36.760 -22.169 -18.222  0.00  0.00    -0.082 Cl
ATOM     20  C   UNL     1      34.476 -20.079 -20.754  0.00  0.00    +0.049 C 
ATOM     21  C   UNL     1      35.577 -20.577 -20.060  0.00  0.00    +0.026 C 
ATOM     22  C   UNL     1      33.196 -20.556 -20.469  0.00  0.00    +0.015 C 
ATOM     23  C   UNL     1      35.400 -21.553 -19.080  0.00  0.00    +0.059 C 
ATOM     24  C   UNL     1      33.019 -21.532 -19.489  0.00  0.00    +0.002 C 
ATOM     25  C   UNL     1      34.121 -22.030 -18.793  0.00  0.00    +0.011 C 
ENDBRANCH  13  20
ENDBRANCH  11  12
ENDBRANCH  10  11
ENDBRANCH   9  10
ENDBRANCH   2   9
BRANCH   3  26
ATOM     26  C   UNL     1      31.409 -10.619 -21.254  0.00  0.00    +0.159 C 
BRANCH  26  27
ATOM     27  C   UNL     1      32.332  -9.417 -21.186  0.00  0.00    +0.230 C 
BRANCH  27  28
ATOM     28  O   UNL     1      31.885  -8.426 -22.104  0.00  0.00    -0.473 OA
BRANCH  28  29
ATOM     29  C   UNL     1      32.840  -7.839 -22.892  0.00  0.00    +0.139 C 
ATOM     30  C   UNL     1      32.482  -7.272 -24.115  0.00  0.00    +0.037 C 
ATOM     31  C   UNL     1      34.169  -7.807 -22.472  0.00  0.00    +0.037 C 
ATOM     32  C   UNL     1      33.452  -6.674 -24.918  0.00  0.00    +0.003 C 
ATOM     33  C   UNL     1      35.140  -7.208 -23.274  0.00  0.00    +0.003 C 
ATOM     34  C   UNL     1      34.782  -6.642 -24.497  0.00  0.00    +0.000 C 
ENDBRANCH  28  29
ENDBRANCH  27  28
ENDBRANCH  26  27
ENDBRANCH   3  26
TORSDOF 10
ENDMDL
MODEL 6
REMARK VINA RESULT:     -10.8      7.128     11.515
REMARK  Name = 4449
REMARK  10 active torsions:
REMARK  status: ('A' for Active; 'I' for Inactive)
REMARK    1  A    between atoms: N_2  and  C_9
REMARK    2  A    between atoms: N_3  and  C_26
REMARK    3  A    between atoms: C_6  and  C_7
REMARK    4  A    between atoms: C_9  and  C_10
REMARK    5  A    between atoms: C_10  and  C_11
REMARK    6  A    between atoms: C_11  and  N_12
REMARK    7  A    between atoms: N_13  and  C_20
REMARK    8  A    between atoms: C_26  and  C_27
REMARK    9  A    between atoms: C_27  and  O_28
REMARK   10  A    between atoms: O_28  and  C_29
REMARK                            x       y       z     vdW  Elec       q    Type
REMARK                         _______ _______ _______ _____ _____    ______ ____
ROOT
ATOM      1  O   UNL     1      34.759 -23.784 -16.142  0.00  0.00    -0.245 OA
ATOM      2  N   UNL     1      36.804 -23.289 -15.086  0.00  0.00    -0.201 N 
ATOM      3  N   UNL     1      35.175 -24.143 -13.865  0.00  0.00    -0.263 N 
ATOM      4  N   UNL     1      37.283 -23.402 -13.808  0.00  0.00    -0.152 NA
ATOM      5  C   UNL     1      35.479 -23.746 -15.154  0.00  0.00    +0.348 A 
ATOM      6  C   UNL     1      36.288 -23.904 -13.138  0.00  0.00    +0.144 A 
ENDROOT
BRANCH   6   7
ATOM      7  C   UNL     1      36.347 -24.212 -11.679  0.00  0.00    +0.066 C 
ATOM      8  C   UNL     1      37.062 -23.106 -10.931  0.00  0.00    +0.008 C 
ENDBRANCH   6   7
BRANCH   2   9
ATOM      9  C   UNL     1      37.615 -22.764 -16.151  0.00  0.00    +0.130 C 
BRANCH   9  10
ATOM     10  C   UNL     1      36.921 -21.638 -16.915  0.00  0.00    +0.004 C 
BRANCH  10  11
ATOM     11  C   UNL     1      36.553 -21.987 -18.360  0.00  0.00    -0.075 C 
BRANCH  11  12
ATOM     12  N   UNL     1      36.027 -20.831 -19.085  0.00  0.00    +0.389 N 
ATOM     13  N   UNL     1      35.286 -19.314 -21.389  0.00  0.00    -0.312 N 
ATOM     14  C   UNL     1      34.854 -21.213 -19.880  0.00  0.00    -0.055 C 
ATOM     15  C   UNL     1      37.058 -20.257 -19.958  0.00  0.00    -0.055 C 
ATOM     16  C   UNL     1      34.259 -19.999 -20.600  0.00  0.00    +0.068 C 
ATOM     17  C   UNL     1      36.536 -19.012 -20.679  0.00  0.00    +0.068 C 
ATOM     18  H   UNL     1      35.745 -20.129 -18.401  0.00  0.00    -0.080 HD
BRANCH  13  20
ATOM     19 CL   UNL     1      34.709 -14.539 -23.147  0.00  0.00    -0.082 Cl
ATOM     20  C   UNL     1      34.908 -18.470 -22.440  0.00  0.00    +0.049 C 
ATOM     21  C   UNL     1      34.987 -17.087 -22.287  0.00  0.00    +0.026 C 
ATOM     22  C   UNL     1      34.458 -19.015 -23.643  0.00  0.00    +0.015 C 
ATOM     23  C   UNL     1      34.614 -16.247 -23.336  0.00  0.00    +0.059 C 
ATOM     24  C   UNL     1      34.085 -18.176 -24.692  0.00  0.00    +0.002 C 
ATOM     25  C   UNL     1      34.163 -16.791 -24.539  0.00  0.00    +0.011 C 
ENDBRANCH  13  20
ENDBRANCH  11  12
ENDBRANCH  10  11
ENDBRANCH   9  10
ENDBRANCH   2   9
BRANCH   3  26
ATOM     26  C   UNL     1      33.911 -24.696 -13.419  0.00  0.00    +0.159 C 
BRANCH  26  27
ATOM     27  C   UNL     1      32.879 -23.608 -13.180  0.00  0.00    +0.230 C 
BRANCH  27  28
ATOM     28  O   UNL     1      31.646 -24.203 -12.798  0.00  0.00    -0.473 OA
BRANCH  28  29
ATOM     29  C   UNL     1      30.655 -24.233 -13.744  0.00  0.00    +0.139 C 
ATOM     30  C   UNL     1      30.094 -25.451 -14.129  0.00  0.00    +0.037 C 
ATOM     31  C   UNL     1      30.206 -23.046 -14.320  0.00  0.00    +0.037 C 
ATOM     32  C   UNL     1      29.085 -25.481 -15.091  0.00  0.00    +0.003 C 
ATOM     33  C   UNL     1      29.196 -23.075 -15.282  0.00  0.00    +0.003 C 
ATOM     34  C   UNL     1      28.636 -24.292 -15.668  0.00  0.00    +0.000 C 
ENDBRANCH  28  29
ENDBRANCH  27  28
ENDBRANCH  26  27
ENDBRANCH   3  26
TORSDOF 10
ENDMDL
MODEL 7
REMARK VINA RESULT:     -10.6      4.263     12.301
REMARK  Name = 4449
REMARK  10 active torsions:
REMARK  status: ('A' for Active; 'I' for Inactive)
REMARK    1  A    between atoms: N_2  and  C_9
REMARK    2  A    between atoms: N_3  and  C_26
REMARK    3  A    between atoms: C_6  and  C_7
REMARK    4  A    between atoms: C_9  and  C_10
REMARK    5  A    between atoms: C_10  and  C_11
REMARK    6  A    between atoms: C_11  and  N_12
REMARK    7  A    between atoms: N_13  and  C_20
REMARK    8  A    between atoms: C_26  and  C_27
REMARK    9  A    between atoms: C_27  and  O_28
REMARK   10  A    between atoms: O_28  and  C_29
REMARK                            x       y       z     vdW  Elec       q    Type
REMARK                         _______ _______ _______ _____ _____    ______ ____
ROOT
ATOM      1  O   UNL     1      34.170 -11.518 -24.379  0.00  0.00    -0.245 OA
ATOM      2  N   UNL     1      32.894 -13.175 -23.299  0.00  0.00    -0.201 N 
ATOM      3  N   UNL     1      32.697 -11.087 -22.609  0.00  0.00    -0.263 N 
ATOM      4  N   UNL     1      31.989 -13.179 -22.271  0.00  0.00    -0.152 NA
ATOM      5  C   UNL     1      33.359 -11.872 -23.536  0.00  0.00    +0.348 A 
ATOM      6  C   UNL     1      31.916 -11.933 -21.905  0.00  0.00    +0.144 A 
ENDROOT
BRANCH   6   7
ATOM      7  C   UNL     1      31.036 -11.447 -20.803  0.00  0.00    +0.066 C 
ATOM      8  C   UNL     1      31.813 -11.353 -19.505  0.00  0.00    +0.008 C 
ENDBRANCH   6   7
BRANCH   2   9
ATOM      9  C   UNL     1      33.259 -14.384 -23.986  0.00  0.00    +0.130 C 
BRANCH   9  10
ATOM     10  C   UNL     1      34.432 -15.103 -23.322  0.00  0.00    +0.004 C 
BRANCH  10  11
ATOM     11  C   UNL     1      35.013 -16.258 -24.143  0.00  0.00    -0.075 C 
BRANCH  11  12
ATOM     12  N   UNL     1      35.314 -17.423 -23.312  0.00  0.00    +0.389 N 
ATOM     13  N   UNL     1      34.806 -19.410 -21.324  0.00  0.00    -0.312 N 
ATOM     14  C   UNL     1      34.353 -18.501 -23.569  0.00  0.00    -0.055 C 
ATOM     15  C   UNL     1      35.291 -17.061 -21.890  0.00  0.00    -0.055 C 
ATOM     16  C   UNL     1      34.691 -19.748 -22.745  0.00  0.00    +0.068 C 
ATOM     17  C   UNL     1      35.661 -18.258 -21.011  0.00  0.00    +0.068 C 
ATOM     18  H   UNL     1      36.249 -17.751 -23.553  0.00  0.00    -0.080 HD
BRANCH  13  20
ATOM     19 CL   UNL     1      37.027 -22.277 -17.709  0.00  0.00    -0.082 Cl
ATOM     20  C   UNL     1      34.679 -20.416 -20.359  0.00  0.00    +0.049 C 
ATOM     21  C   UNL     1      35.787 -20.801 -19.605  0.00  0.00    +0.026 C 
ATOM     22  C   UNL     1      33.444 -21.028 -20.148  0.00  0.00    +0.015 C 
ATOM     23  C   UNL     1      35.660 -21.800 -18.640  0.00  0.00    +0.059 C 
ATOM     24  C   UNL     1      33.316 -22.026 -19.183  0.00  0.00    +0.002 C 
ATOM     25  C   UNL     1      34.424 -22.413 -18.428  0.00  0.00    +0.011 C 
ENDBRANCH  13  20
ENDBRANCH  11  12
ENDBRANCH  10  11
ENDBRANCH   9  10
ENDBRANCH   2   9
BRANCH   3  26
ATOM     26  C   UNL     1      32.838  -9.652 -22.454  0.00  0.00    +0.159 C 
BRANCH  26  27
ATOM     27  C   UNL     1      31.919  -8.896 -23.396  0.00  0.00    +0.230 C 
BRANCH  27  28
ATOM     28  O   UNL     1      31.052  -8.060 -22.639  0.00  0.00    -0.473 OA
BRANCH  28  29
ATOM     29  C   UNL     1      31.256  -6.708 -22.738  0.00  0.00    +0.139 C 
ATOM     30  C   UNL     1      31.518  -6.132 -23.981  0.00  0.00    +0.037 C 
ATOM     31  C   UNL     1      31.200  -5.910 -21.597  0.00  0.00    +0.037 C 
ATOM     32  C   UNL     1      31.724  -4.756 -24.082  0.00  0.00    +0.003 C 
ATOM     33  C   UNL     1      31.405  -4.534 -21.697  0.00  0.00    +0.003 C 
ATOM     34  C   UNL     1      31.668  -3.957 -22.939  0.00  0.00    +0.000 C 
ENDBRANCH  28  29
ENDBRANCH  27  28
ENDBRANCH  26  27
ENDBRANCH   3  26
TORSDOF 10
ENDMDL
MODEL 8
REMARK VINA RESULT:     -10.6      4.174      7.708
REMARK  Name = 4449
REMARK  10 active torsions:
REMARK  status: ('A' for Active; 'I' for Inactive)
REMARK    1  A    between atoms: N_2  and  C_9
REMARK    2  A    between atoms: N_3  and  C_26
REMARK    3  A    between atoms: C_6  and  C_7
REMARK    4  A    between atoms: C_9  and  C_10
REMARK    5  A    between atoms: C_10  and  C_11
REMARK    6  A    between atoms: C_11  and  N_12
REMARK    7  A    between atoms: N_13  and  C_20
REMARK    8  A    between atoms: C_26  and  C_27
REMARK    9  A    between atoms: C_27  and  O_28
REMARK   10  A    between atoms: O_28  and  C_29
REMARK                            x       y       z     vdW  Elec       q    Type
REMARK                         _______ _______ _______ _____ _____    ______ ____
ROOT
ATOM      1  O   UNL     1      32.634 -22.150 -19.554  0.00  0.00    -0.245 OA
ATOM      2  N   UNL     1      34.668 -20.988 -19.794  0.00  0.00    -0.201 N 
ATOM      3  N   UNL     1      34.541 -22.572 -18.260  0.00  0.00    -0.263 N 
ATOM      4  N   UNL     1      35.891 -21.045 -19.178  0.00  0.00    -0.152 NA
ATOM      5  C   UNL     1      33.796 -21.937 -19.237  0.00  0.00    +0.348 A 
ATOM      6  C   UNL     1      35.757 -21.986 -18.289  0.00  0.00    +0.144 A 
ENDROOT
BRANCH   6   7
ATOM      7  C   UNL     1      36.850 -22.412 -17.368  0.00  0.00    +0.066 C 
ATOM      8  C   UNL     1      37.220 -21.284 -16.426  0.00  0.00    +0.008 C 
ENDBRANCH   6   7
BRANCH   2   9
ATOM      9  C   UNL     1      34.402 -20.057 -20.855  0.00  0.00    +0.130 C 
BRANCH   9  10
ATOM     10  C   UNL     1      35.605 -19.167 -21.168  0.00  0.00    +0.004 C 
BRANCH  10  11
ATOM     11  C   UNL     1      35.649 -18.646 -22.608  0.00  0.00    -0.075 C 
BRANCH  11  12
ATOM     12  N   UNL     1      35.485 -17.194 -22.669  0.00  0.00    +0.389 N 
ATOM     13  N   UNL     1      34.046 -14.728 -22.611  0.00  0.00    -0.312 N 
ATOM     14  C   UNL     1      34.934 -16.685 -21.408  0.00  0.00    -0.055 C 
ATOM     15  C   UNL     1      34.607 -16.821 -23.785  0.00  0.00    -0.055 C 
ATOM     16  C   UNL     1      34.810 -15.159 -21.438  0.00  0.00    +0.068 C 
ATOM     17  C   UNL     1      34.474 -15.300 -23.894  0.00  0.00    +0.068 C 
ATOM     18  H   UNL     1      36.404 -16.778 -22.818  0.00  0.00    -0.080 HD
BRANCH  13  20
ATOM     19 CL   UNL     1      30.687 -11.480 -20.515  0.00  0.00    -0.082 Cl
ATOM     20  C   UNL     1      33.447 -13.463 -22.624  0.00  0.00    +0.049 C 
ATOM     21  C   UNL     1      32.478 -13.141 -21.675  0.00  0.00    +0.026 C 
ATOM     22  C   UNL     1      33.825 -12.523 -23.583  0.00  0.00    +0.015 C 
ATOM     23  C   UNL     1      31.885 -11.879 -21.686  0.00  0.00    +0.059 C 
ATOM     24  C   UNL     1      33.232 -11.261 -23.593  0.00  0.00    +0.002 C 
ATOM     25  C   UNL     1      32.262 -10.938 -22.644  0.00  0.00    +0.011 C 
ENDBRANCH  13  20
ENDBRANCH  11  12
ENDBRANCH  10  11
ENDBRANCH   9  10
ENDBRANCH   2   9
BRANCH   3  26
ATOM     26  C   UNL     1      34.079 -23.643 -17.398  0.00  0.00    +0.159 C 
BRANCH  26  27
ATOM     27  C   UNL     1      33.959 -23.185 -15.956  0.00  0.00    +0.230 C 
BRANCH  27  28
ATOM     28  O   UNL     1      34.038 -24.314 -15.094  0.00  0.00    -0.473 OA
BRANCH  28  29
ATOM     29  C   UNL     1      35.257 -24.572 -14.525  0.00  0.00    +0.139 C 
ATOM     30  C   UNL     1      35.949 -23.556 -13.866  0.00  0.00    +0.037 C 
ATOM     31  C   UNL     1      35.806 -25.851 -14.603  0.00  0.00    +0.037 C 
ATOM     32  C   UNL     1      37.189 -23.818 -13.286  0.00  0.00    +0.003 C 
ATOM     33  C   UNL     1      37.046 -26.115 -14.022  0.00  0.00    +0.003 C 
ATOM     34  C   UNL     1      37.738 -25.099 -13.364  0.00  0.00    +0.000 C 
ENDBRANCH  28  29
ENDBRANCH  27  28
ENDBRANCH  26  27
ENDBRANCH   3  26
TORSDOF 10
ENDMDL
MODEL 9
REMARK VINA RESULT:     -10.5      6.206     10.424
REMARK  Name = 4449
REMARK  10 active torsions:
REMARK  status: ('A' for Active; 'I' for Inactive)
REMARK    1  A    between atoms: N_2  and  C_9
REMARK    2  A    between atoms: N_3  and  C_26
REMARK    3  A    between atoms: C_6  and  C_7
REMARK    4  A    between atoms: C_9  and  C_10
REMARK    5  A    between atoms: C_10  and  C_11
REMARK    6  A    between atoms: C_11  and  N_12
REMARK    7  A    between atoms: N_13  and  C_20
REMARK    8  A    between atoms: C_26  and  C_27
REMARK    9  A    between atoms: C_27  and  O_28
REMARK   10  A    between atoms: O_28  and  C_29
REMARK                            x       y       z     vdW  Elec       q    Type
REMARK                         _______ _______ _______ _____ _____    ______ ____
ROOT
ATOM      1  O   UNL     1      32.420 -23.911 -16.752  0.00  0.00    -0.245 OA
ATOM      2  N   UNL     1      34.511 -22.918 -17.183  0.00  0.00    -0.201 N 
ATOM      3  N   UNL     1      34.251 -24.035 -15.296  0.00  0.00    -0.263 N 
ATOM      4  N   UNL     1      35.703 -22.849 -16.512  0.00  0.00    -0.152 NA
ATOM      5  C   UNL     1      33.576 -23.658 -16.443  0.00  0.00    +0.348 A 
ATOM      6  C   UNL     1      35.492 -23.516 -15.416  0.00  0.00    +0.144 A 
ENDROOT
BRANCH   6   7
ATOM      7  C   UNL     1      36.526 -23.718 -14.360  0.00  0.00    +0.066 C 
ATOM      8  C   UNL     1      37.876 -24.002 -14.985  0.00  0.00    +0.008 C 
ENDBRANCH   6   7
BRANCH   2   9
ATOM      9  C   UNL     1      34.330 -22.292 -18.464  0.00  0.00    +0.130 C 
BRANCH   9  10
ATOM     10  C   UNL     1      35.559 -22.432 -19.362  0.00  0.00    +0.004 C 
BRANCH  10  11
ATOM     11  C   UNL     1      36.431 -21.175 -19.441  0.00  0.00    -0.075 C 
BRANCH  11  12
ATOM     12  N   UNL     1      36.153 -20.392 -20.645  0.00  0.00    +0.389 N 
ATOM     13  N   UNL     1      35.201 -18.148 -22.134  0.00  0.00    -0.312 N 
ATOM     14  C   UNL     1      36.874 -19.114 -20.605  0.00  0.00    -0.055 C 
ATOM     15  C   UNL     1      34.712 -20.149 -20.780  0.00  0.00    -0.055 C 
ATOM     16  C   UNL     1      36.636 -18.309 -21.886  0.00  0.00    +0.068 C 
ATOM     17  C   UNL     1      34.403 -19.379 -22.066  0.00  0.00    +0.068 C 
ATOM     18  H   UNL     1      36.474 -20.926 -21.452  0.00  0.00    -0.080 HD
BRANCH  13  20
ATOM     19 CL   UNL     1      34.226 -13.159 -22.755  0.00  0.00    -0.082 Cl
ATOM     20  C   UNL     1      34.751 -17.119 -22.968  0.00  0.00    +0.049 C 
ATOM     21  C   UNL     1      34.716 -15.806 -22.499  0.00  0.00    +0.026 C 
ATOM     22  C   UNL     1      34.343 -17.406 -24.271  0.00  0.00    +0.015 C 
ATOM     23  C   UNL     1      34.271 -14.780 -23.333  0.00  0.00    +0.059 C 
ATOM     24  C   UNL     1      33.899 -16.380 -25.105  0.00  0.00    +0.002 C 
ATOM     25  C   UNL     1      33.863 -15.066 -24.636  0.00  0.00    +0.011 C 
ENDBRANCH  13  20
ENDBRANCH  11  12
ENDBRANCH  10  11
ENDBRANCH   9  10
ENDBRANCH   2   9
BRANCH   3  26
ATOM     26  C   UNL     1      33.707 -24.826 -14.208  0.00  0.00    +0.159 C 
BRANCH  26  27
ATOM     27  C   UNL     1      33.088 -23.947 -13.136  0.00  0.00    +0.230 C 
BRANCH  27  28
ATOM     28  O   UNL     1      31.839 -24.497 -12.739  0.00  0.00    -0.473 OA
BRANCH  28  29
ATOM     29  C   UNL     1      30.791 -24.342 -13.608  0.00  0.00    +0.139 C 
ATOM     30  C   UNL     1      30.052 -25.453 -14.015  0.00  0.00    +0.037 C 
ATOM     31  C   UNL     1      30.462 -23.074 -14.084  0.00  0.00    +0.037 C 
ATOM     32  C   UNL     1      28.986 -25.296 -14.899  0.00  0.00    +0.003 C 
ATOM     33  C   UNL     1      29.394 -22.915 -14.968  0.00  0.00    +0.003 C 
ATOM     34  C   UNL     1      28.656 -24.026 -15.376  0.00  0.00    +0.000 C 
ENDBRANCH  28  29
ENDBRANCH  27  28
ENDBRANCH  26  27
ENDBRANCH   3  26
TORSDOF 10
ENDMDL
