MODEL 1
REMARK VINA RESULT:     -13.0      0.000      0.000
REMARK  Name = 11840906
REMARK  7 active torsions:
REMARK  status: ('A' for Active; 'I' for Inactive)
REMARK    1  A    between atoms: O_1  and  C_3
REMARK    2  A    between atoms: O_1  and  C_18
REMARK    3  A    between atoms: C_5  and  C_9
REMARK    4  A    between atoms: C_18  and  C_19
REMARK    5  A    between atoms: C_19  and  N_20
REMARK    6  A    between atoms: C_19  and  C_24
REMARK    7  A    between atoms: C_24  and  C_26
REMARK                            x       y       z     vdW  Elec       q    Type
REMARK                         _______ _______ _______ _____ _____    ______ ____
ROOT
ATOM      1  O   UNL     1      34.765 -14.715 -23.146  0.00  0.00    -0.476 OA
ENDROOT
BRANCH   1   3
ATOM      2  N   UNL     1      34.234 -17.921 -24.797  0.00  0.00    -0.239 NA
ATOM      3  C   UNL     1      34.698 -16.072 -23.331  0.00  0.00    +0.158 C 
ATOM      4  C   UNL     1      35.010 -16.937 -22.298  0.00  0.00    +0.040 C 
ATOM      5  C   UNL     1      34.933 -18.309 -22.516  0.00  0.00    +0.022 C 
ATOM      6  C   UNL     1      34.320 -16.595 -24.549  0.00  0.00    +0.136 C 
ATOM      7  C   UNL     1      34.543 -18.745 -23.771  0.00  0.00    +0.099 C 
BRANCH   5   9
ATOM      8  N   UNL     1      35.173 -22.781 -17.838  0.00  0.00    -0.242 NA
ATOM      9  C   UNL     1      35.249 -19.247 -21.465  0.00  0.00    +0.002 C 
ATOM     10  C   UNL     1      34.534 -20.959 -19.887  0.00  0.00    +0.003 C 
ATOM     11  C   UNL     1      34.242 -20.043 -20.911  0.00  0.00    +0.000 C 
ATOM     12  C   UNL     1      35.860 -21.069 -19.422  0.00  0.00    +0.019 C 
ATOM     13  C   UNL     1      36.558 -19.360 -21.000  0.00  0.00    +0.000 C 
ATOM     14  C   UNL     1      36.865 -20.265 -19.984  0.00  0.00    +0.002 C 
ATOM     15  C   UNL     1      33.546 -21.769 -19.314  0.00  0.00    +0.021 C 
ATOM     16  C   UNL     1      36.112 -21.990 -18.404  0.00  0.00    +0.099 C 
ATOM     17  C   UNL     1      33.914 -22.650 -18.309  0.00  0.00    +0.099 C 
ENDBRANCH   5   9
ENDBRANCH   1   3
BRANCH   1  18
ATOM     18  C   UNL     1      33.837 -13.924 -23.876  0.00  0.00    +0.184 C 
BRANCH  18  19
ATOM     19  C   UNL     1      32.904 -13.191 -22.906  0.00  0.00    -0.021 C 
BRANCH  19  20
ATOM     20  N   UNL     1      33.025 -13.808 -21.585  0.00  0.00    +0.384 N 
ATOM     21  H   UNL     1      33.260 -14.795 -21.691  0.00  0.00    -0.089 HD
ATOM     22  H   UNL     1      32.139 -13.721 -21.086  0.00  0.00    -0.089 HD
ATOM     23  H   UNL     1      33.760 -13.338 -21.056  0.00  0.00    -0.089 HD
ENDBRANCH  19  20
BRANCH  19  24
ATOM     24  C   UNL     1      33.227 -11.682 -22.845  0.00  0.00    -0.012 C 
BRANCH  24  26
ATOM     25  N   UNL     1      32.151  -8.422 -22.443  0.00  0.00    -0.270 NA
ATOM     26  C   UNL     1      32.012 -10.803 -22.616  0.00  0.00    +0.046 C 
ATOM     27  C   UNL     1      31.835 -10.367 -21.198  0.00  0.00    -0.007 C 
ATOM     28  C   UNL     1      32.203  -9.432 -23.258  0.00  0.00    +0.130 C 
ATOM     29  C   UNL     1      31.923  -8.969 -21.168  0.00  0.00    +0.071 C 
ATOM     30  C   UNL     1      31.609 -11.104 -20.052  0.00  0.00    -0.024 C 
ATOM     31  C   UNL     1      31.792  -8.277 -19.976  0.00  0.00    +0.014 C 
ATOM     32  C   UNL     1      31.476 -10.412 -18.846  0.00  0.00    +0.052 C 
ATOM     33  C   UNL     1      31.567  -9.011 -18.808  0.00  0.00    -0.020 C 
ENDBRANCH  24  26
ENDBRANCH  19  24
ENDBRANCH  18  19
ENDBRANCH   1  18
TORSDOF 7
ENDMDL
MODEL 2
REMARK VINA RESULT:     -12.6      1.776      2.681
REMARK  Name = 11840906
REMARK  7 active torsions:
REMARK  status: ('A' for Active; 'I' for Inactive)
REMARK    1  A    between atoms: O_1  and  C_3
REMARK    2  A    between atoms: O_1  and  C_18
REMARK    3  A    between atoms: C_5  and  C_9
REMARK    4  A    between atoms: C_18  and  C_19
REMARK    5  A    between atoms: C_19  and  N_20
REMARK    6  A    between atoms: C_19  and  C_24
REMARK    7  A    between atoms: C_24  and  C_26
REMARK                            x       y       z     vdW  Elec       q    Type
REMARK                         _______ _______ _______ _____ _____    ______ ____
ROOT
ATOM      1  O   UNL     1      34.476 -14.098 -23.223  0.00  0.00    -0.476 OA
ENDROOT
BRANCH   1   3
ATOM      2  N   UNL     1      34.158 -17.228 -25.064  0.00  0.00    -0.239 NA
ATOM      3  C   UNL     1      34.506 -15.442 -23.490  0.00  0.00    +0.158 C 
ATOM      4  C   UNL     1      34.895 -16.343 -22.516  0.00  0.00    +0.040 C 
ATOM      5  C   UNL     1      34.915 -17.701 -22.817  0.00  0.00    +0.022 C 
ATOM      6  C   UNL     1      34.151 -15.917 -24.735  0.00  0.00    +0.136 C 
ATOM      7  C   UNL     1      34.541 -18.088 -24.093  0.00  0.00    +0.099 C 
BRANCH   5   9
ATOM      8  N   UNL     1      35.537 -22.390 -18.393  0.00  0.00    -0.242 NA
ATOM      9  C   UNL     1      35.313 -18.676 -21.829  0.00  0.00    +0.002 C 
ATOM     10  C   UNL     1      34.738 -20.498 -20.320  0.00  0.00    +0.003 C 
ATOM     11  C   UNL     1      34.366 -19.546 -21.283  0.00  0.00    +0.000 C 
ATOM     12  C   UNL     1      36.084 -20.568 -19.908  0.00  0.00    +0.019 C 
ATOM     13  C   UNL     1      36.643 -18.749 -21.417  0.00  0.00    +0.000 C 
ATOM     14  C   UNL     1      37.030 -19.690 -20.462  0.00  0.00    +0.002 C 
ATOM     15  C   UNL     1      33.810 -21.383 -19.756  0.00  0.00    +0.021 C 
ATOM     16  C   UNL     1      36.417 -21.527 -18.950  0.00  0.00    +0.099 C 
ATOM     17  C   UNL     1      34.257 -22.295 -18.812  0.00  0.00    +0.099 C 
ENDBRANCH   5   9
ENDBRANCH   1   3
BRANCH   1  18
ATOM     18  C   UNL     1      33.699 -13.289 -24.097  0.00  0.00    +0.184 C 
BRANCH  18  19
ATOM     19  C   UNL     1      33.082 -12.124 -23.315  0.00  0.00    -0.021 C 
BRANCH  19  20
ATOM     20  N   UNL     1      32.854 -12.556 -21.935  0.00  0.00    +0.384 N 
ATOM     21  H   UNL     1      33.152 -11.818 -21.295  0.00  0.00    -0.089 HD
ATOM     22  H   UNL     1      33.392 -13.403 -21.751  0.00  0.00    -0.089 HD
ATOM     23  H   UNL     1      31.862 -12.745 -21.797  0.00  0.00    -0.089 HD
ENDBRANCH  19  20
BRANCH  19  24
ATOM     24  C   UNL     1      33.984 -10.873 -23.363  0.00  0.00    -0.012 C 
BRANCH  24  26
ATOM     25  N   UNL     1      31.663  -8.437 -24.158  0.00  0.00    -0.270 NA
ATOM     26  C   UNL     1      33.305  -9.607 -22.872  0.00  0.00    +0.046 C 
ATOM     27  C   UNL     1      33.879  -8.350 -23.441  0.00  0.00    -0.007 C 
ATOM     28  C   UNL     1      31.893  -9.492 -23.436  0.00  0.00    +0.130 C 
ATOM     29  C   UNL     1      32.870  -7.714 -24.174  0.00  0.00    +0.071 C 
ATOM     30  C   UNL     1      35.144  -7.806 -23.325  0.00  0.00    -0.024 C 
ATOM     31  C   UNL     1      33.111  -6.513 -24.818  0.00  0.00    +0.014 C 
ATOM     32  C   UNL     1      35.395  -6.594 -23.972  0.00  0.00    +0.052 C 
ATOM     33  C   UNL     1      34.388  -5.954 -24.713  0.00  0.00    -0.020 C 
ENDBRANCH  24  26
ENDBRANCH  19  24
ENDBRANCH  18  19
ENDBRANCH   1  18
TORSDOF 7
ENDMDL
MODEL 3
REMARK VINA RESULT:     -12.6      3.558     11.052
REMARK  Name = 11840906
REMARK  7 active torsions:
REMARK  status: ('A' for Active; 'I' for Inactive)
REMARK    1  A    between atoms: O_1  and  C_3
REMARK    2  A    between atoms: O_1  and  C_18
REMARK    3  A    between atoms: C_5  and  C_9
REMARK    4  A    between atoms: C_18  and  C_19
REMARK    5  A    between atoms: C_19  and  N_20
REMARK    6  A    between atoms: C_19  and  C_24
REMARK    7  A    between atoms: C_24  and  C_26
REMARK                            x       y       z     vdW  Elec       q    Type
REMARK                         _______ _______ _______ _____ _____    ______ ____
ROOT
ATOM      1  O   UNL     1      34.575 -21.857 -19.849  0.00  0.00    -0.476 OA
ENDROOT
BRANCH   1   3
ATOM      2  N   UNL     1      37.371 -19.540 -20.166  0.00  0.00    -0.239 NA
ATOM      3  C   UNL     1      35.312 -20.779 -20.268  0.00  0.00    +0.158 C 
ATOM      4  C   UNL     1      34.784 -19.876 -21.172  0.00  0.00    +0.040 C 
ATOM      5  C   UNL     1      35.556 -18.793 -21.577  0.00  0.00    +0.022 C 
ATOM      6  C   UNL     1      36.592 -20.580 -19.795  0.00  0.00    +0.136 C 
ATOM      7  C   UNL     1      36.831 -18.671 -21.050  0.00  0.00    +0.099 C 
BRANCH   5   9
ATOM      8  N   UNL     1      33.479 -13.653 -24.925  0.00  0.00    -0.242 NA
ATOM      9  C   UNL     1      35.043 -17.825 -22.519  0.00  0.00    +0.002 C 
ATOM     10  C   UNL     1      34.484 -15.521 -23.074  0.00  0.00    +0.003 C 
ATOM     11  C   UNL     1      34.982 -16.473 -22.169  0.00  0.00    +0.000 C 
ATOM     12  C   UNL     1      34.045 -15.945 -24.344  0.00  0.00    +0.019 C 
ATOM     13  C   UNL     1      34.606 -18.239 -23.776  0.00  0.00    +0.000 C 
ATOM     14  C   UNL     1      34.109 -17.306 -24.687  0.00  0.00    +0.002 C 
ATOM     15  C   UNL     1      34.412 -14.160 -22.752  0.00  0.00    +0.021 C 
ATOM     16  C   UNL     1      33.557 -14.971 -25.217  0.00  0.00    +0.099 C 
ATOM     17  C   UNL     1      33.910 -13.283 -23.700  0.00  0.00    +0.099 C 
ENDBRANCH   5   9
ENDBRANCH   1   3
BRANCH   1  18
ATOM     18  C   UNL     1      34.933 -22.429 -18.597  0.00  0.00    +0.184 C 
BRANCH  18  19
ATOM     19  C   UNL     1      33.721 -22.426 -17.660  0.00  0.00    -0.021 C 
BRANCH  19  20
ATOM     20  N   UNL     1      32.502 -22.422 -18.470  0.00  0.00    +0.384 N 
ATOM     21  H   UNL     1      32.496 -21.596 -19.070  0.00  0.00    -0.089 HD
ATOM     22  H   UNL     1      31.687 -22.403 -17.858  0.00  0.00    -0.089 HD
ATOM     23  H   UNL     1      32.475 -23.262 -19.048  0.00  0.00    -0.089 HD
ENDBRANCH  19  20
BRANCH  19  24
ATOM     24  C   UNL     1      33.745 -23.636 -16.702  0.00  0.00    -0.012 C 
BRANCH  24  26
ATOM     25  N   UNL     1      33.243 -24.929 -13.536  0.00  0.00    -0.270 NA
ATOM     26  C   UNL     1      33.196 -23.338 -15.320  0.00  0.00    +0.046 C 
ATOM     27  C   UNL     1      31.831 -23.894 -15.074  0.00  0.00    -0.007 C 
ATOM     28  C   UNL     1      33.958 -24.114 -14.251  0.00  0.00    +0.130 C 
ATOM     29  C   UNL     1      31.928 -24.811 -14.020  0.00  0.00    +0.071 C 
ATOM     30  C   UNL     1      30.625 -23.624 -15.693  0.00  0.00    -0.024 C 
ATOM     31  C   UNL     1      30.809 -25.488 -13.566  0.00  0.00    +0.014 C 
ATOM     32  C   UNL     1      29.493 -24.304 -15.240  0.00  0.00    +0.052 C 
ATOM     33  C   UNL     1      29.584 -25.228 -14.186  0.00  0.00    -0.020 C 
ENDBRANCH  24  26
ENDBRANCH  19  24
ENDBRANCH  18  19
ENDBRANCH   1  18
TORSDOF 7
ENDMDL
MODEL 4
REMARK VINA RESULT:     -12.3      1.549     10.224
REMARK  Name = 11840906
REMARK  7 active torsions:
REMARK  status: ('A' for Active; 'I' for Inactive)
REMARK    1  A    between atoms: O_1  and  C_3
REMARK    2  A    between atoms: O_1  and  C_18
REMARK    3  A    between atoms: C_5  and  C_9
REMARK    4  A    between atoms: C_18  and  C_19
REMARK    5  A    between atoms: C_19  and  N_20
REMARK    6  A    between atoms: C_19  and  C_24
REMARK    7  A    between atoms: C_24  and  C_26
REMARK                            x       y       z     vdW  Elec       q    Type
REMARK                         _______ _______ _______ _____ _____    ______ ____
ROOT
ATOM      1  O   UNL     1      35.475 -17.659 -22.607  0.00  0.00    -0.476 OA
ENDROOT
BRANCH   1   3
ATOM      2  N   UNL     1      33.929 -15.861 -25.376  0.00  0.00    -0.239 NA
ATOM      3  C   UNL     1      34.790 -16.684 -23.286  0.00  0.00    +0.158 C 
ATOM      4  C   UNL     1      34.285 -15.584 -22.617  0.00  0.00    +0.040 C 
ATOM      5  C   UNL     1      33.595 -14.612 -23.333  0.00  0.00    +0.022 C 
ATOM      6  C   UNL     1      34.594 -16.785 -24.647  0.00  0.00    +0.136 C 
ATOM      7  C   UNL     1      33.446 -14.796 -24.698  0.00  0.00    +0.099 C 
BRANCH   5   9
ATOM      8  N   UNL     1      31.527  -8.801 -21.361  0.00  0.00    -0.242 NA
ATOM      9  C   UNL     1      33.052 -13.448 -22.674  0.00  0.00    +0.002 C 
ATOM     10  C   UNL     1      32.591 -11.057 -22.667  0.00  0.00    +0.003 C 
ATOM     11  C   UNL     1      33.113 -12.198 -23.297  0.00  0.00    +0.000 C 
ATOM     12  C   UNL     1      32.000 -11.186 -21.394  0.00  0.00    +0.019 C 
ATOM     13  C   UNL     1      32.467 -13.569 -21.414  0.00  0.00    +0.000 C 
ATOM     14  C   UNL     1      31.942 -12.445 -20.775  0.00  0.00    +0.002 C 
ATOM     15  C   UNL     1      32.638  -9.793 -23.267  0.00  0.00    +0.021 C 
ATOM     16  C   UNL     1      31.490 -10.030 -20.799  0.00  0.00    +0.099 C 
ATOM     17  C   UNL     1      32.099  -8.716 -22.582  0.00  0.00    +0.099 C 
ENDBRANCH   5   9
ENDBRANCH   1   3
BRANCH   1  18
ATOM     18  C   UNL     1      34.800 -18.894 -22.409  0.00  0.00    +0.184 C 
BRANCH  18  19
ATOM     19  C   UNL     1      35.463 -19.670 -21.265  0.00  0.00    -0.021 C 
BRANCH  19  20
ATOM     20  N   UNL     1      36.470 -18.812 -20.641  0.00  0.00    +0.384 N 
ATOM     21  H   UNL     1      36.027 -18.226 -19.933  0.00  0.00    -0.089 HD
ATOM     22  H   UNL     1      36.901 -18.220 -21.351  0.00  0.00    -0.089 HD
ATOM     23  H   UNL     1      37.186 -19.392 -20.202  0.00  0.00    -0.089 HD
ENDBRANCH  19  20
BRANCH  19  24
ATOM     24  C   UNL     1      34.422 -20.147 -20.230  0.00  0.00    -0.012 C 
BRANCH  24  26
ATOM     25  N   UNL     1      33.031 -22.706 -18.369  0.00  0.00    -0.270 NA
ATOM     26  C   UNL     1      34.493 -21.631 -19.926  0.00  0.00    +0.046 C 
ATOM     27  C   UNL     1      35.219 -21.960 -18.662  0.00  0.00    -0.007 C 
ATOM     28  C   UNL     1      33.119 -22.178 -19.552  0.00  0.00    +0.130 C 
ATOM     29  C   UNL     1      34.311 -22.587 -17.800  0.00  0.00    +0.071 C 
ATOM     30  C   UNL     1      36.535 -21.746 -18.299  0.00  0.00    -0.024 C 
ATOM     31  C   UNL     1      34.706 -23.012 -16.543  0.00  0.00    +0.014 C 
ATOM     32  C   UNL     1      36.940 -22.172 -17.032  0.00  0.00    +0.052 C 
ATOM     33  C   UNL     1      36.034 -22.799 -16.162  0.00  0.00    -0.020 C 
ENDBRANCH  24  26
ENDBRANCH  19  24
ENDBRANCH  18  19
ENDBRANCH   1  18
TORSDOF 7
ENDMDL
MODEL 5
REMARK VINA RESULT:     -11.9      3.508     11.236
REMARK  Name = 11840906
REMARK  7 active torsions:
REMARK  status: ('A' for Active; 'I' for Inactive)
REMARK    1  A    between atoms: O_1  and  C_3
REMARK    2  A    between atoms: O_1  and  C_18
REMARK    3  A    between atoms: C_5  and  C_9
REMARK    4  A    between atoms: C_18  and  C_19
REMARK    5  A    between atoms: C_19  and  N_20
REMARK    6  A    between atoms: C_19  and  C_24
REMARK    7  A    between atoms: C_24  and  C_26
REMARK                            x       y       z     vdW  Elec       q    Type
REMARK                         _______ _______ _______ _____ _____    ______ ____
ROOT
ATOM      1  O   UNL     1      34.370 -21.539 -19.650  0.00  0.00    -0.476 OA
ENDROOT
BRANCH   1   3
ATOM      2  N   UNL     1      37.327 -19.503 -20.283  0.00  0.00    -0.239 NA
ATOM      3  C   UNL     1      35.165 -20.552 -20.174  0.00  0.00    +0.158 C 
ATOM      4  C   UNL     1      34.651 -19.645 -21.083  0.00  0.00    +0.040 C 
ATOM      5  C   UNL     1      35.483 -18.655 -21.597  0.00  0.00    +0.022 C 
ATOM      6  C   UNL     1      36.489 -20.450 -19.805  0.00  0.00    +0.136 C 
ATOM      7  C   UNL     1      36.799 -18.628 -21.169  0.00  0.00    +0.099 C 
BRANCH   5   9
ATOM      8  N   UNL     1      33.469 -13.514 -24.980  0.00  0.00    -0.242 NA
ATOM      9  C   UNL     1      34.987 -17.687 -22.547  0.00  0.00    +0.002 C 
ATOM     10  C   UNL     1      34.440 -15.383 -23.112  0.00  0.00    +0.003 C 
ATOM     11  C   UNL     1      34.921 -16.335 -22.199  0.00  0.00    +0.000 C 
ATOM     12  C   UNL     1      34.023 -15.806 -24.390  0.00  0.00    +0.019 C 
ATOM     13  C   UNL     1      34.572 -18.101 -23.812  0.00  0.00    +0.000 C 
ATOM     14  C   UNL     1      34.091 -17.167 -24.731  0.00  0.00    +0.002 C 
ATOM     15  C   UNL     1      34.364 -14.022 -22.791  0.00  0.00    +0.021 C 
ATOM     16  C   UNL     1      33.551 -14.832 -25.271  0.00  0.00    +0.099 C 
ATOM     17  C   UNL     1      33.879 -13.144 -23.748  0.00  0.00    +0.099 C 
ENDBRANCH   5   9
ENDBRANCH   1   3
BRANCH   1  18
ATOM     18  C   UNL     1      34.982 -22.431 -18.729  0.00  0.00    +0.184 C 
BRANCH  18  19
ATOM     19  C   UNL     1      34.094 -22.588 -17.489  0.00  0.00    -0.021 C 
BRANCH  19  20
ATOM     20  N   UNL     1      32.777 -23.064 -17.914  0.00  0.00    +0.384 N 
ATOM     21  H   UNL     1      32.164 -23.137 -17.102  0.00  0.00    -0.089 HD
ATOM     22  H   UNL     1      32.872 -23.981 -18.352  0.00  0.00    -0.089 HD
ATOM     23  H   UNL     1      32.378 -22.407 -18.584  0.00  0.00    -0.089 HD
ENDBRANCH  19  20
BRANCH  19  24
ATOM     24  C   UNL     1      34.726 -23.549 -16.461  0.00  0.00    -0.012 C 
BRANCH  24  26
ATOM     25  N   UNL     1      37.849 -23.371 -14.989  0.00  0.00    -0.270 NA
ATOM     26  C   UNL     1      35.550 -22.853 -15.394  0.00  0.00    +0.046 C 
ATOM     27  C   UNL     1      35.699 -23.639 -14.131  0.00  0.00    -0.007 C 
ATOM     28  C   UNL     1      37.019 -22.784 -15.798  0.00  0.00    +0.130 C 
ATOM     29  C   UNL     1      37.062 -23.904 -13.953  0.00  0.00    +0.071 C 
ATOM     30  C   UNL     1      34.751 -24.071 -13.224  0.00  0.00    -0.024 C 
ATOM     31  C   UNL     1      37.507 -24.619 -12.854  0.00  0.00    +0.014 C 
ATOM     32  C   UNL     1      35.192 -24.793 -12.113  0.00  0.00    +0.052 C 
ATOM     33  C   UNL     1      36.558 -25.066 -11.930  0.00  0.00    -0.020 C 
ENDBRANCH  24  26
ENDBRANCH  19  24
ENDBRANCH  18  19
ENDBRANCH   1  18
TORSDOF 7
ENDMDL
MODEL 6
REMARK VINA RESULT:     -11.8      2.996     12.014
REMARK  Name = 11840906
REMARK  7 active torsions:
REMARK  status: ('A' for Active; 'I' for Inactive)
REMARK    1  A    between atoms: O_1  and  C_3
REMARK    2  A    between atoms: O_1  and  C_18
REMARK    3  A    between atoms: C_5  and  C_9
REMARK    4  A    between atoms: C_18  and  C_19
REMARK    5  A    between atoms: C_19  and  N_20
REMARK    6  A    between atoms: C_19  and  C_24
REMARK    7  A    between atoms: C_24  and  C_26
REMARK                            x       y       z     vdW  Elec       q    Type
REMARK                         _______ _______ _______ _____ _____    ______ ____
ROOT
ATOM      1  O   UNL     1      31.547 -11.952 -22.128  0.00  0.00    -0.476 OA
ENDROOT
BRANCH   1   3
ATOM      2  N   UNL     1      31.853  -9.602 -19.359  0.00  0.00    -0.239 NA
ATOM      3  C   UNL     1      31.635 -10.760 -21.456  0.00  0.00    +0.158 C 
ATOM      4  C   UNL     1      31.598  -9.561 -22.143  0.00  0.00    +0.040 C 
ATOM      5  C   UNL     1      31.689  -8.369 -21.432  0.00  0.00    +0.022 C 
ATOM      6  C   UNL     1      31.762 -10.740 -20.083  0.00  0.00    +0.136 C 
ATOM      7  C   UNL     1      31.814  -8.443 -20.055  0.00  0.00    +0.099 C 
BRANCH   5   9
ATOM      8  N   UNL     1      31.624  -2.188 -23.365  0.00  0.00    -0.242 NA
ATOM      9  C   UNL     1      31.654  -7.094 -22.110  0.00  0.00    +0.002 C 
ATOM     10  C   UNL     1      31.696  -4.661 -22.021  0.00  0.00    +0.003 C 
ATOM     11  C   UNL     1      31.731  -5.908 -21.375  0.00  0.00    +0.000 C 
ATOM     12  C   UNL     1      31.583  -4.619 -23.425  0.00  0.00    +0.019 C 
ATOM     13  C   UNL     1      31.540  -7.046 -23.499  0.00  0.00    +0.000 C 
ATOM     14  C   UNL     1      31.504  -5.816 -24.156  0.00  0.00    +0.002 C 
ATOM     15  C   UNL     1      31.773  -3.457 -21.311  0.00  0.00    +0.021 C 
ATOM     16  C   UNL     1      31.552  -3.362 -24.032  0.00  0.00    +0.099 C 
ATOM     17  C   UNL     1      31.733  -2.268 -22.021  0.00  0.00    +0.099 C 
ENDBRANCH   5   9
ENDBRANCH   1   3
BRANCH   1  18
ATOM     18  C   UNL     1      32.356 -13.018 -21.649  0.00  0.00    +0.184 C 
BRANCH  18  19
ATOM     19  C   UNL     1      33.270 -13.522 -22.771  0.00  0.00    -0.021 C 
BRANCH  19  20
ATOM     20  N   UNL     1      34.137 -12.422 -23.196  0.00  0.00    +0.384 N 
ATOM     21  H   UNL     1      34.659 -12.071 -22.393  0.00  0.00    -0.089 HD
ATOM     22  H   UNL     1      33.568 -11.671 -23.586  0.00  0.00    -0.089 HD
ATOM     23  H   UNL     1      34.790 -12.758 -23.905  0.00  0.00    -0.089 HD
ENDBRANCH  19  20
BRANCH  19  24
ATOM     24  C   UNL     1      34.102 -14.740 -22.317  0.00  0.00    -0.012 C 
BRANCH  24  26
ATOM     25  N   UNL     1      33.505 -16.704 -25.099  0.00  0.00    -0.270 NA
ATOM     26  C   UNL     1      34.757 -15.496 -23.458  0.00  0.00    +0.046 C 
ATOM     27  C   UNL     1      34.868 -16.969 -23.227  0.00  0.00    -0.007 C 
ATOM     28  C   UNL     1      33.852 -15.522 -24.685  0.00  0.00    +0.130 C 
ATOM     29  C   UNL     1      34.119 -17.613 -24.219  0.00  0.00    +0.071 C 
ATOM     30  C   UNL     1      35.556 -17.678 -22.262  0.00  0.00    -0.024 C 
ATOM     31  C   UNL     1      34.040 -18.995 -24.261  0.00  0.00    +0.014 C 
ATOM     32  C   UNL     1      35.480 -19.072 -22.298  0.00  0.00    +0.052 C 
ATOM     33  C   UNL     1      34.728 -19.725 -23.288  0.00  0.00    -0.020 C 
ENDBRANCH  24  26
ENDBRANCH  19  24
ENDBRANCH  18  19
ENDBRANCH   1  18
TORSDOF 7
ENDMDL
MODEL 7
REMARK VINA RESULT:     -11.7      3.781      7.482
REMARK  Name = 11840906
REMARK  7 active torsions:
REMARK  status: ('A' for Active; 'I' for Inactive)
REMARK    1  A    between atoms: O_1  and  C_3
REMARK    2  A    between atoms: O_1  and  C_18
REMARK    3  A    between atoms: C_5  and  C_9
REMARK    4  A    between atoms: C_18  and  C_19
REMARK    5  A    between atoms: C_19  and  N_20
REMARK    6  A    between atoms: C_19  and  C_24
REMARK    7  A    between atoms: C_24  and  C_26
REMARK                            x       y       z     vdW  Elec       q    Type
REMARK                         _______ _______ _______ _____ _____    ______ ____
ROOT
ATOM      1  O   UNL     1      35.887 -21.190 -19.592  0.00  0.00    -0.476 OA
ENDROOT
BRANCH   1   3
ATOM      2  N   UNL     1      32.769 -22.723 -18.487  0.00  0.00    -0.239 NA
ATOM      3  C   UNL     1      34.997 -21.872 -18.802  0.00  0.00    +0.158 C 
ATOM      4  C   UNL     1      35.391 -22.380 -17.577  0.00  0.00    +0.040 C 
ATOM      5  C   UNL     1      34.466 -23.066 -16.799  0.00  0.00    +0.022 C 
ATOM      6  C   UNL     1      33.696 -22.062 -19.216  0.00  0.00    +0.136 C 
ATOM      7  C   UNL     1      33.180 -23.209 -17.294  0.00  0.00    +0.099 C 
BRANCH   5   9
ATOM      8  N   UNL     1      37.244 -25.481 -11.470  0.00  0.00    -0.242 NA
ATOM      9  C   UNL     1      34.835 -23.612 -15.513  0.00  0.00    +0.002 C 
ATOM     10  C   UNL     1      36.549 -24.415 -13.982  0.00  0.00    +0.003 C 
ATOM     11  C   UNL     1      36.176 -23.883 -15.227  0.00  0.00    +0.000 C 
ATOM     12  C   UNL     1      35.552 -24.674 -13.019  0.00  0.00    +0.019 C 
ATOM     13  C   UNL     1      33.853 -23.871 -14.558  0.00  0.00    +0.000 C 
ATOM     14  C   UNL     1      34.207 -24.400 -13.316  0.00  0.00    +0.002 C 
ATOM     15  C   UNL     1      37.884 -24.695 -13.667  0.00  0.00    +0.021 C 
ATOM     16  C   UNL     1      35.961 -25.202 -11.793  0.00  0.00    +0.099 C 
ATOM     17  C   UNL     1      38.172 -25.218 -12.416  0.00  0.00    +0.099 C 
ENDBRANCH   5   9
ENDBRANCH   1   3
BRANCH   1  18
ATOM     18  C   UNL     1      35.337 -20.388 -20.629  0.00  0.00    +0.184 C 
BRANCH  18  19
ATOM     19  C   UNL     1      36.153 -19.100 -20.777  0.00  0.00    -0.021 C 
BRANCH  19  20
ATOM     20  N   UNL     1      37.523 -19.360 -20.335  0.00  0.00    +0.384 N 
ATOM     21  H   UNL     1      38.015 -19.896 -21.051  0.00  0.00    -0.089 HD
ATOM     22  H   UNL     1      37.505 -19.893 -19.465  0.00  0.00    -0.089 HD
ATOM     23  H   UNL     1      38.005 -18.475 -20.181  0.00  0.00    -0.089 HD
ENDBRANCH  19  20
BRANCH  19  24
ATOM     24  C   UNL     1      36.129 -18.580 -22.230  0.00  0.00    -0.012 C 
BRANCH  24  26
ATOM     25  N   UNL     1      34.531 -16.692 -24.644  0.00  0.00    -0.270 NA
ATOM     26  C   UNL     1      34.801 -17.973 -22.644  0.00  0.00    +0.046 C 
ATOM     27  C   UNL     1      34.671 -16.519 -22.324  0.00  0.00    -0.007 C 
ATOM     28  C   UNL     1      34.691 -17.887 -24.163  0.00  0.00    +0.130 C 
ATOM     29  C   UNL     1      34.512 -15.830 -23.533  0.00  0.00    +0.071 C 
ATOM     30  C   UNL     1      34.677 -15.862 -21.110  0.00  0.00    -0.024 C 
ATOM     31  C   UNL     1      34.362 -14.454 -23.549  0.00  0.00    +0.014 C 
ATOM     32  C   UNL     1      34.527 -14.473 -21.118  0.00  0.00    +0.052 C 
ATOM     33  C   UNL     1      34.371 -13.775 -22.327  0.00  0.00    -0.020 C 
ENDBRANCH  24  26
ENDBRANCH  19  24
ENDBRANCH  18  19
ENDBRANCH   1  18
TORSDOF 7
ENDMDL
MODEL 8
REMARK VINA RESULT:     -11.7      1.961     10.834
REMARK  Name = 11840906
REMARK  7 active torsions:
REMARK  status: ('A' for Active; 'I' for Inactive)
REMARK    1  A    between atoms: O_1  and  C_3
REMARK    2  A    between atoms: O_1  and  C_18
REMARK    3  A    between atoms: C_5  and  C_9
REMARK    4  A    between atoms: C_18  and  C_19
REMARK    5  A    between atoms: C_19  and  N_20
REMARK    6  A    between atoms: C_19  and  C_24
REMARK    7  A    between atoms: C_24  and  C_26
REMARK                            x       y       z     vdW  Elec       q    Type
REMARK                         _______ _______ _______ _____ _____    ______ ____
ROOT
ATOM      1  O   UNL     1      34.808 -14.683 -23.167  0.00  0.00    -0.476 OA
ENDROOT
BRANCH   1   3
ATOM      2  N   UNL     1      32.029 -13.350 -21.221  0.00  0.00    -0.239 NA
ATOM      3  C   UNL     1      33.888 -13.789 -22.683  0.00  0.00    +0.158 C 
ATOM      4  C   UNL     1      33.876 -12.481 -23.132  0.00  0.00    +0.040 C 
ATOM      5  C   UNL     1      32.930 -11.598 -22.622  0.00  0.00    +0.022 C 
ATOM      6  C   UNL     1      32.962 -14.180 -21.739  0.00  0.00    +0.136 C 
ATOM      7  C   UNL     1      32.038 -12.078 -21.678  0.00  0.00    +0.099 C 
BRANCH   5   9
ATOM      8  N   UNL     1      33.913  -5.502 -24.573  0.00  0.00    -0.242 NA
ATOM      9  C   UNL     1      32.881 -10.224 -23.064  0.00  0.00    +0.002 C 
ATOM     10  C   UNL     1      34.034  -8.180 -23.713  0.00  0.00    +0.003 C 
ATOM     11  C   UNL     1      34.066  -9.517 -23.284  0.00  0.00    +0.000 C 
ATOM     12  C   UNL     1      32.787  -7.556 -23.921  0.00  0.00    +0.019 C 
ATOM     13  C   UNL     1      31.651  -9.602 -23.271  0.00  0.00    +0.000 C 
ATOM     14  C   UNL     1      31.601  -8.274 -23.697  0.00  0.00    +0.002 C 
ATOM     15  C   UNL     1      35.205  -7.447 -23.941  0.00  0.00    +0.021 C 
ATOM     16  C   UNL     1      32.794  -6.227 -24.348  0.00  0.00    +0.099 C 
ATOM     17  C   UNL     1      35.089  -6.132 -24.365  0.00  0.00    +0.099 C 
ENDBRANCH   5   9
ENDBRANCH   1   3
BRANCH   1  18
ATOM     18  C   UNL     1      34.923 -15.920 -22.476  0.00  0.00    +0.184 C 
BRANCH  18  19
ATOM     19  C   UNL     1      34.569 -17.076 -23.417  0.00  0.00    -0.021 C 
BRANCH  19  20
ATOM     20  N   UNL     1      35.091 -16.771 -24.750  0.00  0.00    +0.384 N 
ATOM     21  H   UNL     1      34.374 -16.289 -25.294  0.00  0.00    -0.089 HD
ATOM     22  H   UNL     1      35.348 -17.639 -25.221  0.00  0.00    -0.089 HD
ATOM     23  H   UNL     1      35.912 -16.173 -24.665  0.00  0.00    -0.089 HD
ENDBRANCH  19  20
BRANCH  19  24
ATOM     24  C   UNL     1      35.126 -18.418 -22.897  0.00  0.00    -0.012 C 
BRANCH  24  26
ATOM     25  N   UNL     1      37.088 -19.762 -20.389  0.00  0.00    -0.270 NA
ATOM     26  C   UNL     1      35.368 -18.445 -21.400  0.00  0.00    +0.046 C 
ATOM     27  C   UNL     1      34.784 -19.635 -20.710  0.00  0.00    -0.007 C 
ATOM     28  C   UNL     1      36.839 -18.697 -21.089  0.00  0.00    +0.130 C 
ATOM     29  C   UNL     1      35.839 -20.357 -20.139  0.00  0.00    +0.071 C 
ATOM     30  C   UNL     1      33.471 -20.045 -20.581  0.00  0.00    -0.024 C 
ATOM     31  C   UNL     1      35.598 -21.519 -19.426  0.00  0.00    +0.014 C 
ATOM     32  C   UNL     1      33.220 -21.217 -19.864  0.00  0.00    +0.052 C 
ATOM     33  C   UNL     1      34.275 -21.948 -19.292  0.00  0.00    -0.020 C 
ENDBRANCH  24  26
ENDBRANCH  19  24
ENDBRANCH  18  19
ENDBRANCH   1  18
TORSDOF 7
ENDMDL
MODEL 9
REMARK VINA RESULT:     -11.6      3.541     11.557
REMARK  Name = 11840906
REMARK  7 active torsions:
REMARK  status: ('A' for Active; 'I' for Inactive)
REMARK    1  A    between atoms: O_1  and  C_3
REMARK    2  A    between atoms: O_1  and  C_18
REMARK    3  A    between atoms: C_5  and  C_9
REMARK    4  A    between atoms: C_18  and  C_19
REMARK    5  A    between atoms: C_19  and  N_20
REMARK    6  A    between atoms: C_19  and  C_24
REMARK    7  A    between atoms: C_24  and  C_26
REMARK                            x       y       z     vdW  Elec       q    Type
REMARK                         _______ _______ _______ _____ _____    ______ ____
ROOT
ATOM      1  O   UNL     1      31.298 -10.913 -20.743  0.00  0.00    -0.476 OA
ENDROOT
BRANCH   1   3
ATOM      2  N   UNL     1      32.585  -7.913 -19.121  0.00  0.00    -0.239 NA
ATOM      3  C   UNL     1      31.898  -9.690 -20.590  0.00  0.00    +0.158 C 
ATOM      4  C   UNL     1      32.404  -9.014 -21.685  0.00  0.00    +0.040 C 
ATOM      5  C   UNL     1      33.007  -7.775 -21.498  0.00  0.00    +0.022 C 
ATOM      6  C   UNL     1      32.006  -9.115 -19.342  0.00  0.00    +0.136 C 
ATOM      7  C   UNL     1      33.071  -7.273 -20.209  0.00  0.00    +0.099 C 
BRANCH   5   9
ATOM      8  N   UNL     1      34.414  -3.819 -26.429  0.00  0.00    -0.242 NA
ATOM      9  C   UNL     1      33.548  -7.035 -22.614  0.00  0.00    +0.002 C 
ATOM     10  C   UNL     1      33.339  -5.246 -24.252  0.00  0.00    +0.003 C 
ATOM     11  C   UNL     1      32.826  -5.973 -23.166  0.00  0.00    +0.000 C 
ATOM     12  C   UNL     1      34.596  -5.599 -24.782  0.00  0.00    +0.019 C 
ATOM     13  C   UNL     1      34.791  -7.381 -23.143  0.00  0.00    +0.000 C 
ATOM     14  C   UNL     1      35.315  -6.668 -24.222  0.00  0.00    +0.002 C 
ATOM     15  C   UNL     1      32.639  -4.177 -24.825  0.00  0.00    +0.021 C 
ATOM     16  C   UNL     1      35.075  -4.853 -25.861  0.00  0.00    +0.099 C 
ATOM     17  C   UNL     1      33.213  -3.508 -25.894  0.00  0.00    +0.099 C 
ENDBRANCH   5   9
ENDBRANCH   1   3
BRANCH   1  18
ATOM     18  C   UNL     1      31.449 -11.547 -22.007  0.00  0.00    +0.184 C 
BRANCH  18  19
ATOM     19  C   UNL     1      32.492 -12.665 -21.906  0.00  0.00    -0.021 C 
BRANCH  19  20
ATOM     20  N   UNL     1      32.393 -13.278 -20.581  0.00  0.00    +0.384 N 
ATOM     21  H   UNL     1      33.255 -13.784 -20.375  0.00  0.00    -0.089 HD
ATOM     22  H   UNL     1      31.606 -13.927 -20.564  0.00  0.00    -0.089 HD
ATOM     23  H   UNL     1      32.250 -12.552 -19.879  0.00  0.00    -0.089 HD
ENDBRANCH  19  20
BRANCH  19  24
ATOM     24  C   UNL     1      32.301 -13.717 -23.019  0.00  0.00    -0.012 C 
BRANCH  24  26
ATOM     25  N   UNL     1      33.637 -15.621 -25.576  0.00  0.00    -0.270 NA
ATOM     26  C   UNL     1      33.578 -14.067 -23.759  0.00  0.00    +0.046 C 
ATOM     27  C   UNL     1      34.196 -15.358 -23.329  0.00  0.00    -0.007 C 
ATOM     28  C   UNL     1      33.285 -14.425 -25.213  0.00  0.00    +0.130 C 
ATOM     29  C   UNL     1      34.203 -16.217 -24.435  0.00  0.00    +0.071 C 
ATOM     30  C   UNL     1      34.710 -15.746 -22.106  0.00  0.00    -0.024 C 
ATOM     31  C   UNL     1      34.725 -17.496 -24.335  0.00  0.00    +0.014 C 
ATOM     32  C   UNL     1      35.237 -17.034 -21.998  0.00  0.00    +0.052 C 
ATOM     33  C   UNL     1      35.244 -17.902 -23.103  0.00  0.00    -0.020 C 
ENDBRANCH  24  26
ENDBRANCH  19  24
ENDBRANCH  18  19
ENDBRANCH   1  18
TORSDOF 7
ENDMDL
