MODEL 1
REMARK VINA RESULT:     -12.8      0.000      0.000
REMARK  Name = 11955716
REMARK  6 active torsions:
REMARK  status: ('A' for Active; 'I' for Inactive)
REMARK    1  A    between atoms: C_4  and  C_25
REMARK    2  A    between atoms: C_11  and  C_12
REMARK    3  A    between atoms: C_13  and  C_18
REMARK    4  A    between atoms: C_15  and  O_21
REMARK    5  A    between atoms: C_16  and  O_23
REMARK    6  A    between atoms: C_25  and  N_26
REMARK                            x       y       z     vdW  Elec       q    Type
REMARK                         _______ _______ _______ _____ _____    ______ ____
ROOT
ATOM      1  O   UNL     1      35.619 -23.939 -15.684  0.00  0.00    -0.269 OA
ATOM      2  N   UNL     1      34.371 -22.868 -17.328  0.00  0.00    -0.231 N 
ATOM      3  C   UNL     1      34.908 -21.540 -19.163  0.00  0.00    +0.016 C 
ATOM      4  C   UNL     1      34.739 -20.132 -21.080  0.00  0.00    -0.043 C 
ATOM      5  C   UNL     1      33.510 -21.602 -19.084  0.00  0.00    +0.016 C 
ATOM      6  C   UNL     1      35.525 -22.343 -18.067  0.00  0.00    +0.072 C 
ATOM      7  C   UNL     1      33.092 -22.455 -17.933  0.00  0.00    +0.072 C 
ATOM      8  C   UNL     1      35.536 -20.810 -20.155  0.00  0.00    -0.005 C 
ATOM      9  C   UNL     1      33.338 -20.194 -21.002  0.00  0.00    -0.006 C 
ATOM     10  C   UNL     1      32.713 -20.934 -19.996  0.00  0.00    +0.001 C 
ATOM     11  C   UNL     1      34.538 -23.609 -16.166  0.00  0.00    +0.259 C 
ENDROOT
BRANCH  11  12
ATOM     12  C   UNL     1      33.323 -24.018 -15.448  0.00  0.00    +0.088 C 
ATOM     13  C   UNL     1      30.917 -24.003 -15.276  0.00  0.00    +0.012 C 
ATOM     14  C   UNL     1      32.082 -23.626 -15.944  0.00  0.00    +0.006 C 
ATOM     15  C   UNL     1      33.406 -24.784 -14.289  0.00  0.00    +0.141 C 
ATOM     16  C   UNL     1      30.997 -24.772 -14.114  0.00  0.00    +0.133 C 
ATOM     17  C   UNL     1      32.241 -25.162 -13.620  0.00  0.00    +0.073 C 
BRANCH  13  18
ATOM     18  C   UNL     1      29.592 -23.577 -15.819  0.00  0.00    +0.025 C 
ATOM     19  C   UNL     1      28.888 -22.553 -14.912  0.00  0.00    +0.005 C 
ATOM     20  C   UNL     1      28.657 -24.770 -16.088  0.00  0.00    +0.005 C 
ENDBRANCH  13  18
BRANCH  15  21
ATOM     21  O   UNL     1      34.613 -25.174 -13.790  0.00  0.00    -0.505 OA
ATOM     22  H   UNL     1      35.249 -25.567 -14.355  0.00  0.00    +0.292 HD
ENDBRANCH  15  21
BRANCH  16  23
ATOM     23  O   UNL     1      29.869 -25.148 -13.450  0.00  0.00    -0.506 OA
ATOM     24  H   UNL     1      29.061 -25.247 -13.914  0.00  0.00    +0.292 HD
ENDBRANCH  16  23
ENDBRANCH  11  12
BRANCH   4  25
ATOM     25  C   UNL     1      35.384 -19.329 -22.167  0.00  0.00    -0.050 C 
BRANCH  25  26
ATOM     26  N   UNL     1      34.765 -18.013 -22.311  0.00  0.00    +0.387 N 
ATOM     27  N   UNL     1      34.842 -15.178 -22.875  0.00  0.00    +0.383 N 
ATOM     28  C   UNL     1      35.338 -17.061 -21.352  0.00  0.00    -0.100 C 
ATOM     29  C   UNL     1      34.918 -17.512 -23.682  0.00  0.00    -0.100 C 
ATOM     30  C   UNL     1      34.692 -15.679 -21.504  0.00  0.00    -0.101 C 
ATOM     31  C   UNL     1      34.270 -16.132 -23.835  0.00  0.00    -0.101 C 
ATOM     32  C   UNL     1      34.222 -13.863 -23.019  0.00  0.00    -0.101 C 
ATOM     33  H   UNL     1      33.769 -18.110 -22.114  0.00  0.00    -0.079 HD
ATOM     34  H   UNL     1      35.838 -15.081 -23.074  0.00  0.00    -0.080 HD
ENDBRANCH  25  26
ENDBRANCH   4  25
TORSDOF 6
ENDMDL
MODEL 2
REMARK VINA RESULT:     -12.5      4.067      9.835
REMARK  Name = 11955716
REMARK  6 active torsions:
REMARK  status: ('A' for Active; 'I' for Inactive)
REMARK    1  A    between atoms: C_4  and  C_25
REMARK    2  A    between atoms: C_11  and  C_12
REMARK    3  A    between atoms: C_13  and  C_18
REMARK    4  A    between atoms: C_15  and  O_21
REMARK    5  A    between atoms: C_16  and  O_23
REMARK    6  A    between atoms: C_25  and  N_26
REMARK                            x       y       z     vdW  Elec       q    Type
REMARK                         _______ _______ _______ _____ _____    ______ ____
ROOT
ATOM      1  O   UNL     1      37.476 -18.897 -21.773  0.00  0.00    -0.269 OA
ATOM      2  N   UNL     1      35.577 -19.814 -20.792  0.00  0.00    -0.231 N 
ATOM      3  C   UNL     1      35.218 -21.439 -19.164  0.00  0.00    +0.016 C 
ATOM      4  C   UNL     1      34.164 -22.977 -17.677  0.00  0.00    -0.043 C 
ATOM      5  C   UNL     1      33.963 -21.027 -19.630  0.00  0.00    +0.016 C 
ATOM      6  C   UNL     1      36.303 -20.689 -19.863  0.00  0.00    +0.072 C 
ATOM      7  C   UNL     1      34.116 -19.969 -20.671  0.00  0.00    +0.072 C 
ATOM      8  C   UNL     1      35.335 -22.411 -18.188  0.00  0.00    -0.005 C 
ATOM      9  C   UNL     1      32.905 -22.565 -18.144  0.00  0.00    -0.006 C 
ATOM     10  C   UNL     1      32.798 -21.581 -19.130  0.00  0.00    +0.001 C 
ATOM     11  C   UNL     1      36.254 -19.007 -21.695  0.00  0.00    +0.259 C 
ENDROOT
BRANCH  11  12
ATOM     12  C   UNL     1      35.443 -18.231 -22.643  0.00  0.00    +0.088 C 
ATOM     13  C   UNL     1      34.522 -16.109 -23.326  0.00  0.00    +0.012 C 
ATOM     14  C   UNL     1      35.289 -16.862 -22.438  0.00  0.00    +0.006 C 
ATOM     15  C   UNL     1      34.836 -18.850 -23.732  0.00  0.00    +0.141 C 
ATOM     16  C   UNL     1      33.912 -16.726 -24.419  0.00  0.00    +0.133 C 
ATOM     17  C   UNL     1      34.069 -18.097 -24.622  0.00  0.00    +0.073 C 
BRANCH  13  18
ATOM     18  C   UNL     1      34.365 -14.642 -23.094  0.00  0.00    +0.025 C 
ATOM     19  C   UNL     1      34.519 -14.262 -21.611  0.00  0.00    +0.005 C 
ATOM     20  C   UNL     1      33.029 -14.101 -23.638  0.00  0.00    +0.005 C 
ENDBRANCH  13  18
BRANCH  15  21
ATOM     21  O   UNL     1      34.976 -20.189 -23.947  0.00  0.00    -0.505 OA
ATOM     22  H   UNL     1      34.815 -20.794 -23.250  0.00  0.00    +0.292 HD
ENDBRANCH  15  21
BRANCH  16  23
ATOM     23  O   UNL     1      33.159 -16.005 -25.296  0.00  0.00    -0.506 OA
ATOM     24  H   UNL     1      33.086 -16.281 -26.188  0.00  0.00    +0.292 HD
ENDBRANCH  16  23
ENDBRANCH  11  12
BRANCH   4  25
ATOM     25  C   UNL     1      34.250 -24.035 -16.621  0.00  0.00    -0.050 C 
BRANCH  25  26
ATOM     26  N   UNL     1      34.872 -23.534 -15.398  0.00  0.00    +0.387 N 
ATOM     27  N   UNL     1      36.421 -23.855 -12.978  0.00  0.00    +0.383 N 
ATOM     28  C   UNL     1      34.311 -24.203 -14.217  0.00  0.00    -0.100 C 
ATOM     29  C   UNL     1      36.329 -23.711 -15.443  0.00  0.00    -0.100 C 
ATOM     30  C   UNL     1      34.965 -23.680 -12.933  0.00  0.00    -0.101 C 
ATOM     31  C   UNL     1      36.982 -23.187 -14.160  0.00  0.00    -0.101 C 
ATOM     32  C   UNL     1      37.043 -23.351 -11.754  0.00  0.00    -0.101 C 
ATOM     33  H   UNL     1      34.672 -22.537 -15.329  0.00  0.00    -0.079 HD
ATOM     34  H   UNL     1      36.623 -24.852 -13.047  0.00  0.00    -0.080 HD
ENDBRANCH  25  26
ENDBRANCH   4  25
TORSDOF 6
ENDMDL
MODEL 3
REMARK VINA RESULT:     -12.1      4.009      7.837
REMARK  Name = 11955716
REMARK  6 active torsions:
REMARK  status: ('A' for Active; 'I' for Inactive)
REMARK    1  A    between atoms: C_4  and  C_25
REMARK    2  A    between atoms: C_11  and  C_12
REMARK    3  A    between atoms: C_13  and  C_18
REMARK    4  A    between atoms: C_15  and  O_21
REMARK    5  A    between atoms: C_16  and  O_23
REMARK    6  A    between atoms: C_25  and  N_26
REMARK                            x       y       z     vdW  Elec       q    Type
REMARK                         _______ _______ _______ _____ _____    ______ ____
ROOT
ATOM      1  O   UNL     1      35.477 -19.347 -23.823  0.00  0.00    -0.269 OA
ATOM      2  N   UNL     1      34.923 -17.448 -22.600  0.00  0.00    -0.231 N 
ATOM      3  C   UNL     1      34.301 -15.278 -23.168  0.00  0.00    +0.016 C 
ATOM      4  C   UNL     1      33.697 -12.975 -23.034  0.00  0.00    -0.043 C 
ATOM      5  C   UNL     1      34.386 -15.338 -21.770  0.00  0.00    +0.016 C 
ATOM      6  C   UNL     1      34.625 -16.607 -23.765  0.00  0.00    +0.072 C 
ATOM      7  C   UNL     1      34.767 -16.713 -21.331  0.00  0.00    +0.072 C 
ATOM      8  C   UNL     1      33.958 -14.105 -23.813  0.00  0.00    -0.005 C 
ATOM      9  C   UNL     1      33.782 -13.035 -21.633  0.00  0.00    -0.006 C 
ATOM     10  C   UNL     1      34.129 -14.225 -20.990  0.00  0.00    +0.001 C 
ATOM     11  C   UNL     1      35.357 -18.758 -22.751  0.00  0.00    +0.259 C 
ENDROOT
BRANCH  11  12
ATOM     12  C   UNL     1      35.714 -19.494 -21.531  0.00  0.00    +0.088 C 
ATOM     13  C   UNL     1      35.052 -20.943 -19.718  0.00  0.00    +0.012 C 
ATOM     14  C   UNL     1      34.733 -20.238 -20.879  0.00  0.00    +0.006 C 
ATOM     15  C   UNL     1      37.012 -19.452 -21.028  0.00  0.00    +0.141 C 
ATOM     16  C   UNL     1      36.352 -20.902 -19.213  0.00  0.00    +0.133 C 
ATOM     17  C   UNL     1      37.332 -20.157 -19.868  0.00  0.00    +0.073 C 
BRANCH  13  18
ATOM     18  C   UNL     1      33.991 -21.736 -19.030  0.00  0.00    +0.025 C 
ATOM     19  C   UNL     1      34.093 -23.242 -19.333  0.00  0.00    +0.005 C 
ATOM     20  C   UNL     1      32.574 -21.230 -19.358  0.00  0.00    +0.005 C 
ENDBRANCH  13  18
BRANCH  15  21
ATOM     21  O   UNL     1      37.983 -18.727 -21.654  0.00  0.00    -0.505 OA
ATOM     22  H   UNL     1      38.466 -18.082 -21.176  0.00  0.00    +0.292 HD
ENDBRANCH  15  21
BRANCH  16  23
ATOM     23  O   UNL     1      36.680 -21.584 -18.080  0.00  0.00    -0.506 OA
ATOM     24  H   UNL     1      36.723 -22.520 -18.092  0.00  0.00    +0.292 HD
ENDBRANCH  16  23
ENDBRANCH  11  12
BRANCH   4  25
ATOM     25  C   UNL     1      33.325 -11.686 -23.697  0.00  0.00    -0.050 C 
BRANCH  25  26
ATOM     26  N   UNL     1      33.104 -10.617 -22.725  0.00  0.00    +0.387 N 
ATOM     27  N   UNL     1      31.986  -8.086 -21.890  0.00  0.00    +0.383 N 
ATOM     28  C   UNL     1      33.647  -9.345 -23.217  0.00  0.00    -0.100 C 
ATOM     29  C   UNL     1      31.676 -10.479 -22.418  0.00  0.00    -0.100 C 
ATOM     30  C   UNL     1      33.414  -8.223 -22.200  0.00  0.00    -0.101 C 
ATOM     31  C   UNL     1      31.443  -9.359 -21.398  0.00  0.00    -0.101 C 
ATOM     32  C   UNL     1      31.766  -7.018 -20.916  0.00  0.00    -0.101 C 
ATOM     33  H   UNL     1      33.595 -10.866 -21.867  0.00  0.00    -0.079 HD
ATOM     34  H   UNL     1      31.493  -7.836 -22.748  0.00  0.00    -0.080 HD
ENDBRANCH  25  26
ENDBRANCH   4  25
TORSDOF 6
ENDMDL
MODEL 4
REMARK VINA RESULT:     -11.9      5.817     12.201
REMARK  Name = 11955716
REMARK  6 active torsions:
REMARK  status: ('A' for Active; 'I' for Inactive)
REMARK    1  A    between atoms: C_4  and  C_25
REMARK    2  A    between atoms: C_11  and  C_12
REMARK    3  A    between atoms: C_13  and  C_18
REMARK    4  A    between atoms: C_15  and  O_21
REMARK    5  A    between atoms: C_16  and  O_23
REMARK    6  A    between atoms: C_25  and  N_26
REMARK                            x       y       z     vdW  Elec       q    Type
REMARK                         _______ _______ _______ _____ _____    ______ ____
ROOT
ATOM      1  O   UNL     1      33.075 -12.262 -25.079  0.00  0.00    -0.269 OA
ATOM      2  N   UNL     1      33.727 -13.406 -23.163  0.00  0.00    -0.231 N 
ATOM      3  C   UNL     1      34.487 -15.566 -22.744  0.00  0.00    +0.016 C 
ATOM      4  C   UNL     1      35.229 -17.543 -21.636  0.00  0.00    -0.043 C 
ATOM      5  C   UNL     1      34.380 -14.912 -21.510  0.00  0.00    +0.016 C 
ATOM      6  C   UNL     1      34.092 -14.649 -23.853  0.00  0.00    +0.072 C 
ATOM      7  C   UNL     1      33.910 -13.509 -21.704  0.00  0.00    +0.072 C 
ATOM      8  C   UNL     1      34.911 -16.880 -22.823  0.00  0.00    -0.005 C 
ATOM      9  C   UNL     1      35.121 -16.888 -20.397  0.00  0.00    -0.006 C 
ATOM     10  C   UNL     1      34.693 -15.560 -20.328  0.00  0.00    +0.001 C 
ATOM     11  C   UNL     1      33.216 -12.321 -23.860  0.00  0.00    +0.259 C 
ENDROOT
BRANCH  11  12
ATOM     12  C   UNL     1      32.798 -11.152 -23.074  0.00  0.00    +0.088 C 
ATOM     13  C   UNL     1      33.133  -8.843 -22.458  0.00  0.00    +0.012 C 
ATOM     14  C   UNL     1      33.514  -9.964 -23.197  0.00  0.00    +0.006 C 
ATOM     15  C   UNL     1      31.703 -11.226 -22.216  0.00  0.00    +0.141 C 
ATOM     16  C   UNL     1      32.036  -8.915 -21.598  0.00  0.00    +0.133 C 
ATOM     17  C   UNL     1      31.322 -10.106 -21.477  0.00  0.00    +0.073 C 
BRANCH  13  18
ATOM     18  C   UNL     1      33.909  -7.576 -22.600  0.00  0.00    +0.025 C 
ATOM     19  C   UNL     1      33.164  -6.521 -23.437  0.00  0.00    +0.005 C 
ATOM     20  C   UNL     1      35.315  -7.810 -23.183  0.00  0.00    +0.005 C 
ENDBRANCH  13  18
BRANCH  15  21
ATOM     21  O   UNL     1      30.993 -12.382 -22.083  0.00  0.00    -0.505 OA
ATOM     22  H   UNL     1      30.664 -12.820 -22.843  0.00  0.00    +0.292 HD
ENDBRANCH  15  21
BRANCH  16  23
ATOM     23  O   UNL     1      31.651  -7.831 -20.869  0.00  0.00    -0.506 OA
ATOM     24  H   UNL     1      32.163  -7.554 -20.135  0.00  0.00    +0.292 HD
ENDBRANCH  16  23
ENDBRANCH  11  12
BRANCH   4  25
ATOM     25  C   UNL     1      35.688 -18.967 -21.680  0.00  0.00    -0.050 C 
BRANCH  25  26
ATOM     26  N   UNL     1      35.187 -19.737 -20.544  0.00  0.00    +0.387 N 
ATOM     27  N   UNL     1      34.229 -22.164 -19.299  0.00  0.00    +0.383 N 
ATOM     28  C   UNL     1      33.841 -20.254 -20.819  0.00  0.00    -0.100 C 
ATOM     29  C   UNL     1      36.101 -20.838 -20.216  0.00  0.00    -0.100 C 
ATOM     30  C   UNL     1      33.314 -21.064 -19.630  0.00  0.00    -0.101 C 
ATOM     31  C   UNL     1      35.576 -21.646 -19.025  0.00  0.00    -0.101 C 
ATOM     32  C   UNL     1      33.727 -22.932 -18.161  0.00  0.00    -0.101 C 
ATOM     33  H   UNL     1      35.134 -19.113 -19.740  0.00  0.00    -0.079 HD
ATOM     34  H   UNL     1      34.283 -22.790 -20.103  0.00  0.00    -0.080 HD
ENDBRANCH  25  26
ENDBRANCH   4  25
TORSDOF 6
ENDMDL
MODEL 5
REMARK VINA RESULT:     -11.7      1.487      2.143
REMARK  Name = 11955716
REMARK  6 active torsions:
REMARK  status: ('A' for Active; 'I' for Inactive)
REMARK    1  A    between atoms: C_4  and  C_25
REMARK    2  A    between atoms: C_11  and  C_12
REMARK    3  A    between atoms: C_13  and  C_18
REMARK    4  A    between atoms: C_15  and  O_21
REMARK    5  A    between atoms: C_16  and  O_23
REMARK    6  A    between atoms: C_25  and  N_26
REMARK                            x       y       z     vdW  Elec       q    Type
REMARK                         _______ _______ _______ _____ _____    ______ ____
ROOT
ATOM      1  O   UNL     1      37.688 -22.782 -15.924  0.00  0.00    -0.269 OA
ATOM      2  N   UNL     1      36.055 -22.250 -17.492  0.00  0.00    -0.231 N 
ATOM      3  C   UNL     1      36.034 -20.983 -19.445  0.00  0.00    +0.016 C 
ATOM      4  C   UNL     1      35.311 -19.846 -21.412  0.00  0.00    -0.043 C 
ATOM      5  C   UNL     1      34.725 -21.432 -19.221  0.00  0.00    +0.016 C 
ATOM      6  C   UNL     1      36.943 -21.483 -18.373  0.00  0.00    +0.072 C 
ATOM      7  C   UNL     1      34.666 -22.269 -17.987  0.00  0.00    +0.072 C 
ATOM      8  C   UNL     1      36.341 -20.191 -20.535  0.00  0.00    -0.005 C 
ATOM      9  C   UNL     1      33.998 -20.296 -21.189  0.00  0.00    -0.006 C 
ATOM     10  C   UNL     1      33.698 -21.096 -20.085  0.00  0.00    +0.001 C 
ATOM     11  C   UNL     1      36.522 -22.813 -16.313  0.00  0.00    +0.259 C 
ENDROOT
BRANCH  11  12
ATOM     12  C   UNL     1      35.540 -23.487 -15.453  0.00  0.00    +0.088 C 
ATOM     13  C   UNL     1      33.235 -23.899 -14.872  0.00  0.00    +0.012 C 
ATOM     14  C   UNL     1      34.183 -23.268 -15.678  0.00  0.00    +0.006 C 
ATOM     15  C   UNL     1      35.954 -24.333 -14.428  0.00  0.00    +0.141 C 
ATOM     16  C   UNL     1      33.647 -24.747 -13.844  0.00  0.00    +0.133 C 
ATOM     17  C   UNL     1      35.006 -24.965 -13.622  0.00  0.00    +0.073 C 
BRANCH  13  18
ATOM     18  C   UNL     1      31.783 -23.655 -15.124  0.00  0.00    +0.025 C 
ATOM     19  C   UNL     1      31.519 -23.075 -16.525  0.00  0.00    +0.005 C 
ATOM     20  C   UNL     1      31.144 -22.752 -14.053  0.00  0.00    +0.005 C 
ENDBRANCH  13  18
BRANCH  15  21
ATOM     21  O   UNL     1      37.278 -24.557 -14.194  0.00  0.00    -0.505 OA
ATOM     22  H   UNL     1      37.923 -24.188 -14.764  0.00  0.00    +0.292 HD
ENDBRANCH  15  21
BRANCH  16  23
ATOM     23  O   UNL     1      32.734 -25.370 -13.048  0.00  0.00    -0.506 OA
ATOM     24  H   UNL     1      32.099 -25.947 -13.424  0.00  0.00    +0.292 HD
ENDBRANCH  16  23
ENDBRANCH  11  12
BRANCH   4  25
ATOM     25  C   UNL     1      35.605 -18.988 -22.603  0.00  0.00    -0.050 C 
BRANCH  25  26
ATOM     26  N   UNL     1      35.526 -17.564 -22.281  0.00  0.00    +0.387 N 
ATOM     27  N   UNL     1      34.076 -15.127 -21.722  0.00  0.00    +0.383 N 
ATOM     28  C   UNL     1      34.836 -16.827 -23.346  0.00  0.00    -0.100 C 
ATOM     29  C   UNL     1      34.849 -17.358 -20.995  0.00  0.00    -0.100 C 
ATOM     30  C   UNL     1      34.750 -15.335 -23.008  0.00  0.00    -0.101 C 
ATOM     31  C   UNL     1      34.765 -15.866 -20.656  0.00  0.00    -0.101 C 
ATOM     32  C   UNL     1      33.998 -13.703 -21.399  0.00  0.00    -0.101 C 
ATOM     33  H   UNL     1      36.477 -17.206 -22.204  0.00  0.00    -0.079 HD
ATOM     34  H   UNL     1      33.123 -15.485 -21.796  0.00  0.00    -0.080 HD
ENDBRANCH  25  26
ENDBRANCH   4  25
TORSDOF 6
ENDMDL
MODEL 6
REMARK VINA RESULT:     -11.6      2.114      3.913
REMARK  Name = 11955716
REMARK  6 active torsions:
REMARK  status: ('A' for Active; 'I' for Inactive)
REMARK    1  A    between atoms: C_4  and  C_25
REMARK    2  A    between atoms: C_11  and  C_12
REMARK    3  A    between atoms: C_13  and  C_18
REMARK    4  A    between atoms: C_15  and  O_21
REMARK    5  A    between atoms: C_16  and  O_23
REMARK    6  A    between atoms: C_25  and  N_26
REMARK                            x       y       z     vdW  Elec       q    Type
REMARK                         _______ _______ _______ _____ _____    ______ ____
ROOT
ATOM      1  O   UNL     1      32.171 -24.215 -15.820  0.00  0.00    -0.269 OA
ATOM      2  N   UNL     1      33.974 -23.092 -16.766  0.00  0.00    -0.231 N 
ATOM      3  C   UNL     1      34.325 -22.012 -18.798  0.00  0.00    +0.016 C 
ATOM      4  C   UNL     1      35.351 -20.848 -20.609  0.00  0.00    -0.043 C 
ATOM      5  C   UNL     1      35.532 -21.972 -18.087  0.00  0.00    +0.016 C 
ATOM      6  C   UNL     1      33.276 -22.711 -18.000  0.00  0.00    +0.072 C 
ATOM      7  C   UNL     1      35.376 -22.635 -16.760  0.00  0.00    +0.072 C 
ATOM      8  C   UNL     1      34.219 -21.454 -20.058  0.00  0.00    -0.005 C 
ATOM      9  C   UNL     1      36.561 -20.807 -19.897  0.00  0.00    -0.006 C 
ATOM     10  C   UNL     1      36.658 -21.373 -18.624  0.00  0.00    +0.001 C 
ATOM     11  C   UNL     1      33.343 -23.848 -15.788  0.00  0.00    +0.259 C 
ENDROOT
BRANCH  11  12
ATOM     12  C   UNL     1      34.149 -24.255 -14.628  0.00  0.00    +0.088 C 
ATOM     13  C   UNL     1      36.073 -25.415 -13.749  0.00  0.00    +0.012 C 
ATOM     14  C   UNL     1      35.295 -25.018 -14.837  0.00  0.00    +0.006 C 
ATOM     15  C   UNL     1      33.776 -23.886 -13.339  0.00  0.00    +0.141 C 
ATOM     16  C   UNL     1      35.702 -25.046 -12.455  0.00  0.00    +0.133 C 
ATOM     17  C   UNL     1      34.553 -24.282 -12.250  0.00  0.00    +0.073 C 
BRANCH  13  18
ATOM     18  C   UNL     1      37.299 -26.233 -13.986  0.00  0.00    +0.025 C 
ATOM     19  C   UNL     1      38.526 -25.368 -14.323  0.00  0.00    +0.005 C 
ATOM     20  C   UNL     1      37.092 -27.298 -15.079  0.00  0.00    +0.005 C 
ENDBRANCH  13  18
BRANCH  15  21
ATOM     21  O   UNL     1      32.656 -23.140 -13.118  0.00  0.00    -0.505 OA
ATOM     22  H   UNL     1      32.164 -23.257 -12.329  0.00  0.00    +0.292 HD
ENDBRANCH  15  21
BRANCH  16  23
ATOM     23  O   UNL     1      36.449 -25.426 -11.382  0.00  0.00    -0.506 OA
ATOM     24  H   UNL     1      36.656 -26.330 -11.250  0.00  0.00    +0.292 HD
ENDBRANCH  16  23
ENDBRANCH  11  12
BRANCH   4  25
ATOM     25  C   UNL     1      35.275 -20.235 -21.973  0.00  0.00    -0.050 C 
BRANCH  25  26
ATOM     26  N   UNL     1      34.773 -18.864 -21.927  0.00  0.00    +0.387 N 
ATOM     27  N   UNL     1      35.060 -16.004 -22.236  0.00  0.00    +0.383 N 
ATOM     28  C   UNL     1      35.530 -18.065 -20.956  0.00  0.00    -0.100 C 
ATOM     29  C   UNL     1      34.830 -18.242 -23.256  0.00  0.00    -0.100 C 
ATOM     30  C   UNL     1      35.006 -16.625 -20.908  0.00  0.00    -0.101 C 
ATOM     31  C   UNL     1      34.304 -16.804 -23.208  0.00  0.00    -0.101 C 
ATOM     32  C   UNL     1      34.556 -14.632 -22.190  0.00  0.00    -0.101 C 
ATOM     33  H   UNL     1      33.798 -18.895 -21.628  0.00  0.00    -0.079 HD
ATOM     34  H   UNL     1      36.035 -15.971 -22.536  0.00  0.00    -0.080 HD
ENDBRANCH  25  26
ENDBRANCH   4  25
TORSDOF 6
ENDMDL
MODEL 7
REMARK VINA RESULT:     -11.2      5.770     12.034
REMARK  Name = 11955716
REMARK  6 active torsions:
REMARK  status: ('A' for Active; 'I' for Inactive)
REMARK    1  A    between atoms: C_4  and  C_25
REMARK    2  A    between atoms: C_11  and  C_12
REMARK    3  A    between atoms: C_13  and  C_18
REMARK    4  A    between atoms: C_15  and  O_21
REMARK    5  A    between atoms: C_16  and  O_23
REMARK    6  A    between atoms: C_25  and  N_26
REMARK                            x       y       z     vdW  Elec       q    Type
REMARK                         _______ _______ _______ _____ _____    ______ ____
ROOT
ATOM      1  O   UNL     1      32.304 -12.015 -19.466  0.00  0.00    -0.269 OA
ATOM      2  N   UNL     1      33.151 -13.336 -21.182  0.00  0.00    -0.231 N 
ATOM      3  C   UNL     1      34.236 -15.394 -21.259  0.00  0.00    +0.016 C 
ATOM      4  C   UNL     1      35.387 -17.332 -22.037  0.00  0.00    -0.043 C 
ATOM      5  C   UNL     1      34.179 -14.901 -22.569  0.00  0.00    +0.016 C 
ATOM      6  C   UNL     1      33.583 -14.440 -20.316  0.00  0.00    +0.072 C 
ATOM      7  C   UNL     1      33.478 -13.583 -22.598  0.00  0.00    +0.072 C 
ATOM      8  C   UNL     1      34.836 -16.607 -20.978  0.00  0.00    -0.005 C 
ATOM      9  C   UNL     1      35.330 -16.838 -23.351  0.00  0.00    -0.006 C 
ATOM     10  C   UNL     1      34.721 -15.611 -23.625  0.00  0.00    +0.001 C 
ATOM     11  C   UNL     1      32.566 -12.195 -20.653  0.00  0.00    +0.259 C 
ENDROOT
BRANCH  11  12
ATOM     12  C   UNL     1      32.246 -11.107 -21.588  0.00  0.00    +0.088 C 
ATOM     13  C   UNL     1      33.004  -9.318 -23.019  0.00  0.00    +0.012 C 
ATOM     14  C   UNL     1      33.286 -10.356 -22.130  0.00  0.00    +0.006 C 
ATOM     15  C   UNL     1      30.926 -10.826 -21.929  0.00  0.00    +0.141 C 
ATOM     16  C   UNL     1      31.682  -9.036 -23.364  0.00  0.00    +0.133 C 
ATOM     17  C   UNL     1      30.643  -9.789 -22.818  0.00  0.00    +0.073 C 
BRANCH  13  18
ATOM     18  C   UNL     1      34.129  -8.521 -23.594  0.00  0.00    +0.025 C 
ATOM     19  C   UNL     1      35.370  -9.383 -23.886  0.00  0.00    +0.005 C 
ATOM     20  C   UNL     1      34.517  -7.327 -22.703  0.00  0.00    +0.005 C 
ENDBRANCH  13  18
BRANCH  15  21
ATOM     21  O   UNL     1      29.897 -11.551 -21.406  0.00  0.00    -0.505 OA
ATOM     22  H   UNL     1      29.642 -12.359 -21.806  0.00  0.00    +0.292 HD
ENDBRANCH  15  21
BRANCH  16  23
ATOM     23  O   UNL     1      31.389  -8.026 -24.229  0.00  0.00    -0.506 OA
ATOM     24  H   UNL     1      31.877  -7.932 -25.023  0.00  0.00    +0.292 HD
ENDBRANCH  16  23
ENDBRANCH  11  12
BRANCH   4  25
ATOM     25  C   UNL     1      36.048 -18.649 -21.771  0.00  0.00    -0.050 C 
BRANCH  25  26
ATOM     26  N   UNL     1      35.363 -19.399 -20.720  0.00  0.00    +0.387 N 
ATOM     27  N   UNL     1      34.199 -21.802 -19.612  0.00  0.00    +0.383 N 
ATOM     28  C   UNL     1      34.076 -19.914 -21.202  0.00  0.00    -0.100 C 
ATOM     29  C   UNL     1      36.204 -20.499 -20.232  0.00  0.00    -0.100 C 
ATOM     30  C   UNL     1      33.358 -20.703 -20.102  0.00  0.00    -0.101 C 
ATOM     31  C   UNL     1      35.488 -21.287 -19.131  0.00  0.00    -0.101 C 
ATOM     32  C   UNL     1      33.515 -22.550 -18.559  0.00  0.00    -0.101 C 
ATOM     33  H   UNL     1      35.185 -18.762 -19.944  0.00  0.00    -0.079 HD
ATOM     34  H   UNL     1      34.378 -22.440 -20.387  0.00  0.00    -0.080 HD
ENDBRANCH  25  26
ENDBRANCH   4  25
TORSDOF 6
ENDMDL
MODEL 8
REMARK VINA RESULT:     -10.8      6.395     10.587
REMARK  Name = 11955716
REMARK  6 active torsions:
REMARK  status: ('A' for Active; 'I' for Inactive)
REMARK    1  A    between atoms: C_4  and  C_25
REMARK    2  A    between atoms: C_11  and  C_12
REMARK    3  A    between atoms: C_13  and  C_18
REMARK    4  A    between atoms: C_15  and  O_21
REMARK    5  A    between atoms: C_16  and  O_23
REMARK    6  A    between atoms: C_25  and  N_26
REMARK                            x       y       z     vdW  Elec       q    Type
REMARK                         _______ _______ _______ _____ _____    ______ ____
ROOT
ATOM      1  O   UNL     1      34.502 -15.164 -25.591  0.00  0.00    -0.269 OA
ATOM      2  N   UNL     1      33.577 -14.470 -23.573  0.00  0.00    -0.231 N 
ATOM      3  C   UNL     1      32.869 -12.417 -22.735  0.00  0.00    +0.016 C 
ATOM      4  C   UNL     1      32.046 -10.713 -21.285  0.00  0.00    -0.043 C 
ATOM      5  C   UNL     1      32.717 -13.363 -21.713  0.00  0.00    +0.016 C 
ATOM      6  C   UNL     1      33.409 -13.066 -23.966  0.00  0.00    +0.072 C 
ATOM      7  C   UNL     1      33.139 -14.714 -22.187  0.00  0.00    +0.072 C 
ATOM      8  C   UNL     1      32.538 -11.090 -22.537  0.00  0.00    -0.005 C 
ATOM      9  C   UNL     1      31.893 -11.661 -20.259  0.00  0.00    -0.006 C 
ATOM     10  C   UNL     1      32.231 -12.999 -20.470  0.00  0.00    +0.001 C 
ATOM     11  C   UNL     1      34.146 -15.395 -24.438  0.00  0.00    +0.259 C 
ENDROOT
BRANCH  11  12
ATOM     12  C   UNL     1      34.353 -16.756 -23.926  0.00  0.00    +0.088 C 
ATOM     13  C   UNL     1      35.483 -18.245 -22.400  0.00  0.00    +0.012 C 
ATOM     14  C   UNL     1      35.272 -16.959 -22.899  0.00  0.00    +0.006 C 
ATOM     15  C   UNL     1      33.644 -17.831 -24.455  0.00  0.00    +0.141 C 
ATOM     16  C   UNL     1      34.774 -19.323 -22.928  0.00  0.00    +0.133 C 
ATOM     17  C   UNL     1      33.855 -19.117 -23.956  0.00  0.00    +0.073 C 
BRANCH  13  18
ATOM     18  C   UNL     1      36.471 -18.448 -21.298  0.00  0.00    +0.025 C 
ATOM     19  C   UNL     1      37.879 -18.780 -21.826  0.00  0.00    +0.005 C 
ATOM     20  C   UNL     1      36.019 -19.526 -20.295  0.00  0.00    +0.005 C 
ENDBRANCH  13  18
BRANCH  15  21
ATOM     21  O   UNL     1      32.742 -17.650 -25.462  0.00  0.00    -0.505 OA
ATOM     22  H   UNL     1      31.856 -17.932 -25.352  0.00  0.00    +0.292 HD
ENDBRANCH  15  21
BRANCH  16  23
ATOM     23  O   UNL     1      34.969 -20.585 -22.453  0.00  0.00    -0.506 OA
ATOM     24  H   UNL     1      35.081 -20.728 -21.534  0.00  0.00    +0.292 HD
ENDBRANCH  16  23
ENDBRANCH  11  12
BRANCH   4  25
ATOM     25  C   UNL     1      31.679  -9.284 -21.031  0.00  0.00    -0.050 C 
BRANCH  25  26
ATOM     26  N   UNL     1      32.143  -8.404 -22.101  0.00  0.00    +0.387 N 
ATOM     27  N   UNL     1      32.691  -5.806 -23.244  0.00  0.00    +0.383 N 
ATOM     28  C   UNL     1      31.058  -7.531 -22.565  0.00  0.00    -0.100 C 
ATOM     29  C   UNL     1      33.290  -7.602 -21.657  0.00  0.00    -0.100 C 
ATOM     30  C   UNL     1      31.544  -6.606 -23.686  0.00  0.00    -0.101 C 
ATOM     31  C   UNL     1      33.777  -6.679 -22.779  0.00  0.00    -0.101 C 
ATOM     32  C   UNL     1      33.157  -4.927 -24.316  0.00  0.00    -0.101 C 
ATOM     33  H   UNL     1      32.442  -8.988 -22.882  0.00  0.00    -0.079 HD
ATOM     34  H   UNL     1      32.394  -5.220 -22.463  0.00  0.00    -0.080 HD
ENDBRANCH  25  26
ENDBRANCH   4  25
TORSDOF 6
ENDMDL
MODEL 9
REMARK VINA RESULT:     -10.6      5.755     11.657
REMARK  Name = 11955716
REMARK  6 active torsions:
REMARK  status: ('A' for Active; 'I' for Inactive)
REMARK    1  A    between atoms: C_4  and  C_25
REMARK    2  A    between atoms: C_11  and  C_12
REMARK    3  A    between atoms: C_13  and  C_18
REMARK    4  A    between atoms: C_15  and  O_21
REMARK    5  A    between atoms: C_16  and  O_23
REMARK    6  A    between atoms: C_25  and  N_26
REMARK                            x       y       z     vdW  Elec       q    Type
REMARK                         _______ _______ _______ _____ _____    ______ ____
ROOT
ATOM      1  O   UNL     1      33.496 -12.974 -25.496  0.00  0.00    -0.269 OA
ATOM      2  N   UNL     1      34.136 -14.037 -23.530  0.00  0.00    -0.231 N 
ATOM      3  C   UNL     1      34.623 -16.242 -22.964  0.00  0.00    +0.016 C 
ATOM      4  C   UNL     1      35.172 -18.206 -21.728  0.00  0.00    -0.043 C 
ATOM      5  C   UNL     1      34.706 -15.479 -21.791  0.00  0.00    +0.016 C 
ATOM      6  C   UNL     1      34.270 -15.373 -24.124  0.00  0.00    +0.072 C 
ATOM      7  C   UNL     1      34.419 -14.044 -22.083  0.00  0.00    +0.072 C 
ATOM      8  C   UNL     1      34.854 -17.605 -22.948  0.00  0.00    -0.005 C 
ATOM      9  C   UNL     1      35.256 -17.442 -20.552  0.00  0.00    -0.006 C 
ATOM     10  C   UNL     1      35.021 -16.066 -20.579  0.00  0.00    +0.001 C 
ATOM     11  C   UNL     1      33.725 -12.951 -24.289  0.00  0.00    +0.259 C 
ENDROOT
BRANCH  11  12
ATOM     12  C   UNL     1      33.536 -11.673 -23.589  0.00  0.00    +0.088 C 
ATOM     13  C   UNL     1      32.278 -10.338 -22.021  0.00  0.00    +0.012 C 
ATOM     14  C   UNL     1      32.475 -11.543 -22.696  0.00  0.00    +0.006 C 
ATOM     15  C   UNL     1      34.401 -10.605 -23.811  0.00  0.00    +0.141 C 
ATOM     16  C   UNL     1      33.143  -9.266 -22.242  0.00  0.00    +0.133 C 
ATOM     17  C   UNL     1      34.204  -9.399 -23.137  0.00  0.00    +0.073 C 
BRANCH  13  18
ATOM     18  C   UNL     1      31.137 -10.213 -21.066  0.00  0.00    +0.025 C 
ATOM     19  C   UNL     1      31.605 -10.029 -19.612  0.00  0.00    +0.005 C 
ATOM     20  C   UNL     1      30.162 -11.402 -21.157  0.00  0.00    +0.005 C 
ENDBRANCH  13  18
BRANCH  15  21
ATOM     21  O   UNL     1      35.443 -10.715 -24.683  0.00  0.00    -0.505 OA
ATOM     22  H   UNL     1      35.281 -10.734 -25.606  0.00  0.00    +0.292 HD
ENDBRANCH  15  21
BRANCH  16  23
ATOM     23  O   UNL     1      32.964  -8.082 -21.592  0.00  0.00    -0.506 OA
ATOM     24  H   UNL     1      33.539  -7.362 -21.764  0.00  0.00    +0.292 HD
ENDBRANCH  16  23
ENDBRANCH  11  12
BRANCH   4  25
ATOM     25  C   UNL     1      35.427 -19.681 -21.671  0.00  0.00    -0.050 C 
BRANCH  25  26
ATOM     26  N   UNL     1      34.952 -20.266 -20.419  0.00  0.00    +0.387 N 
ATOM     27  N   UNL     1      33.904 -22.440 -18.827  0.00  0.00    +0.383 N 
ATOM     28  C   UNL     1      33.554 -20.696 -20.543  0.00  0.00    -0.100 C 
ATOM     29  C   UNL     1      35.800 -21.395 -20.017  0.00  0.00    -0.100 C 
ATOM     30  C   UNL     1      33.055 -21.314 -19.232  0.00  0.00    -0.101 C 
ATOM     31  C   UNL     1      35.303 -22.011 -18.704  0.00  0.00    -0.101 C 
ATOM     32  C   UNL     1      33.430 -23.025 -17.574  0.00  0.00    -0.101 C 
ATOM     33  H   UNL     1      35.006 -19.550 -19.696  0.00  0.00    -0.079 HD
ATOM     34  H   UNL     1      33.851 -23.159 -19.550  0.00  0.00    -0.080 HD
ENDBRANCH  25  26
ENDBRANCH   4  25
TORSDOF 6
ENDMDL
