MODEL 1
REMARK VINA RESULT:     -11.4      0.000      0.000
REMARK  Name = 42628063
REMARK  6 active torsions:
REMARK  status: ('A' for Active; 'I' for Inactive)
REMARK    1  A    between atoms: C_1  and  N_3
REMARK    2  A    between atoms: C_1  and  C_21
REMARK    3  A    between atoms: C_4  and  N_10
REMARK    4  A    between atoms: C_11  and  C_15
REMARK    5  A    between atoms: N_20  and  C_24
REMARK    6  A    between atoms: C_27  and  N_31
REMARK                            x       y       z     vdW  Elec       q    Type
REMARK                         _______ _______ _______ _____ _____    ______ ____
ROOT
ATOM      1  C   UNL     1      35.909 -20.876 -20.305  0.00  0.00    +0.010 C 
ENDROOT
BRANCH   1   3
ATOM      2  F   UNL     1      33.403 -22.672 -17.059  0.00  0.00    -0.238 F 
ATOM      3  N   UNL     1      35.408 -21.296 -19.005  0.00  0.00    +0.396 N 
ATOM      4  C   UNL     1      35.720 -22.316 -16.948  0.00  0.00    +0.082 C 
ATOM      5  C   UNL     1      34.572 -23.028 -17.657  0.00  0.00    +0.156 C 
ATOM      6  C   UNL     1      36.485 -21.626 -18.070  0.00  0.00    -0.054 C 
ATOM      7  C   UNL     1      34.584 -22.507 -19.088  0.00  0.00    -0.039 C 
ATOM      8  H   UNL     1      34.864 -20.498 -18.680  0.00  0.00    -0.079 HD
BRANCH   4  10
ATOM      9  O   UNL     1      35.347 -23.124 -14.218  0.00  0.00    -0.270 OA
ATOM     10  N   UNL     1      36.556 -23.211 -16.196  0.00  0.00    -0.302 N 
ATOM     11  C   UNL     1      36.297 -23.547 -14.872  0.00  0.00    +0.252 C 
ATOM     12  H   UNL     1      37.343 -23.603 -16.636  0.00  0.00    +0.150 HD
BRANCH  11  15
ATOM     13 CL   UNL     1      40.799 -26.580 -13.812  0.00  0.00    -0.075 Cl
ATOM     14  S   UNL     1      38.767 -24.771 -15.000  0.00  0.00    -0.071 S 
ATOM     15  C   UNL     1      37.270 -24.466 -14.227  0.00  0.00    +0.084 C 
ATOM     16  C   UNL     1      37.153 -25.150 -13.037  0.00  0.00    +0.012 C 
ATOM     17  C   UNL     1      38.308 -25.936 -12.756  0.00  0.00    +0.019 C 
ATOM     18  C   UNL     1      39.264 -25.821 -13.742  0.00  0.00    +0.087 C 
ENDBRANCH  11  15
ENDBRANCH   4  10
ENDBRANCH   1   3
BRANCH   1  21
ATOM     19  O   UNL     1      33.899 -20.001 -21.312  0.00  0.00    -0.277 OA
ATOM     20  N   UNL     1      35.655 -18.543 -20.759  0.00  0.00    -0.284 N 
ATOM     21  C   UNL     1      35.017 -19.778 -20.859  0.00  0.00    +0.205 C 
ATOM     22  H   UNL     1      36.554 -18.549 -20.362  0.00  0.00    +0.155 HD
BRANCH  20  24
ATOM     23  F   UNL     1      35.460 -17.846 -23.451  0.00  0.00    -0.203 F 
ATOM     24  C   UNL     1      35.158 -17.281 -21.163  0.00  0.00    +0.078 C 
ATOM     25  C   UNL     1      35.073 -16.962 -22.519  0.00  0.00    +0.155 C 
ATOM     26  C   UNL     1      34.753 -16.354 -20.203  0.00  0.00    +0.018 C 
ATOM     27  C   UNL     1      34.178 -14.792 -21.954  0.00  0.00    +0.061 C 
ATOM     28  C   UNL     1      34.584 -15.719 -22.914  0.00  0.00    +0.046 C 
ATOM     29  C   UNL     1      34.263 -15.109 -20.599  0.00  0.00    +0.017 C 
BRANCH  27  31
ATOM     30  O   UNL     1      31.895 -13.448 -20.794  0.00  0.00    -0.269 OA
ATOM     31  N   UNL     1      33.669 -13.498 -22.365  0.00  0.00    -0.233 N 
ATOM     32  C   UNL     1      32.512 -12.962 -21.741  0.00  0.00    +0.257 C 
ATOM     33  C   UNL     1      34.321 -12.761 -23.357  0.00  0.00    +0.072 C 
ATOM     34  C   UNL     1      32.027 -11.644 -22.256  0.00  0.00    +0.059 C 
ATOM     35  C   UNL     1      33.886 -11.569 -23.778  0.00  0.00    +0.017 C 
ATOM     36  C   UNL     1      32.700 -11.000 -23.213  0.00  0.00    +0.006 C 
ENDBRANCH  27  31
ENDBRANCH  20  24
ENDBRANCH   1  21
TORSDOF 6
ENDMDL
MODEL 2
REMARK VINA RESULT:     -11.0      7.472     13.889
REMARK  Name = 42628063
REMARK  6 active torsions:
REMARK  status: ('A' for Active; 'I' for Inactive)
REMARK    1  A    between atoms: C_1  and  N_3
REMARK    2  A    between atoms: C_1  and  C_21
REMARK    3  A    between atoms: C_4  and  N_10
REMARK    4  A    between atoms: C_11  and  C_15
REMARK    5  A    between atoms: N_20  and  C_24
REMARK    6  A    between atoms: C_27  and  N_31
REMARK                            x       y       z     vdW  Elec       q    Type
REMARK                         _______ _______ _______ _____ _____    ______ ____
ROOT
ATOM      1  C   UNL     1      33.820 -12.226 -24.134  0.00  0.00    +0.010 C 
ENDROOT
BRANCH   1   3
ATOM      2  F   UNL     1      30.320 -11.210 -21.534  0.00  0.00    -0.238 F 
ATOM      3  N   UNL     1      32.631 -11.590 -23.586  0.00  0.00    +0.396 N 
ATOM      4  C   UNL     1      31.477  -9.699 -22.906  0.00  0.00    +0.082 C 
ATOM      5  C   UNL     1      31.548 -10.658 -21.722  0.00  0.00    +0.156 C 
ATOM      6  C   UNL     1      32.611 -10.146 -23.821  0.00  0.00    -0.054 C 
ATOM      7  C   UNL     1      32.532 -11.747 -22.131  0.00  0.00    -0.039 C 
ATOM      8  H   UNL     1      31.860 -12.056 -24.064  0.00  0.00    -0.079 HD
BRANCH   4  10
ATOM      9  O   UNL     1      31.030  -7.403 -24.571  0.00  0.00    -0.270 OA
ATOM     10  N   UNL     1      31.606  -8.321 -22.520  0.00  0.00    -0.302 N 
ATOM     11  C   UNL     1      31.368  -7.269 -23.399  0.00  0.00    +0.252 C 
ATOM     12  H   UNL     1      31.873  -8.113 -21.596  0.00  0.00    +0.150 HD
BRANCH  11  15
ATOM     13 CL   UNL     1      31.938  -1.786 -22.956  0.00  0.00    -0.075 Cl
ATOM     14  S   UNL     1      31.556  -4.566 -23.923  0.00  0.00    -0.071 S 
ATOM     15  C   UNL     1      31.569  -5.902 -22.852  0.00  0.00    +0.084 C 
ATOM     16  C   UNL     1      31.773  -5.516 -21.546  0.00  0.00    +0.012 C 
ATOM     17  C   UNL     1      31.923  -4.105 -21.422  0.00  0.00    +0.019 C 
ATOM     18  C   UNL     1      31.825  -3.465 -22.639  0.00  0.00    +0.087 C 
ENDBRANCH  11  15
ENDBRANCH   4  10
ENDBRANCH   1   3
BRANCH   1  21
ATOM     19  O   UNL     1      33.062 -14.467 -24.608  0.00  0.00    -0.277 OA
ATOM     20  N   UNL     1      34.537 -14.090 -22.821  0.00  0.00    -0.284 N 
ATOM     21  C   UNL     1      33.741 -13.727 -23.904  0.00  0.00    +0.205 C 
ATOM     22  H   UNL     1      35.020 -13.360 -22.371  0.00  0.00    +0.155 HD
BRANCH  20  24
ATOM     23  F   UNL     1      34.476 -14.569 -20.075  0.00  0.00    -0.203 F 
ATOM     24  C   UNL     1      34.732 -15.388 -22.291  0.00  0.00    +0.078 C 
ATOM     25  C   UNL     1      34.696 -15.594 -20.911  0.00  0.00    +0.155 C 
ATOM     26  C   UNL     1      34.962 -16.463 -23.150  0.00  0.00    +0.018 C 
ATOM     27  C   UNL     1      35.117 -17.948 -21.251  0.00  0.00    +0.061 C 
ATOM     28  C   UNL     1      34.888 -16.873 -20.392  0.00  0.00    +0.046 C 
ATOM     29  C   UNL     1      35.154 -17.742 -22.630  0.00  0.00    +0.017 C 
BRANCH  27  31
ATOM     30  O   UNL     1      37.639 -19.011 -20.316  0.00  0.00    -0.269 OA
ATOM     31  N   UNL     1      35.317 -19.279 -20.711  0.00  0.00    -0.233 N 
ATOM     32  C   UNL     1      36.617 -19.696 -20.322  0.00  0.00    +0.257 C 
ATOM     33  C   UNL     1      34.236 -20.148 -20.549  0.00  0.00    +0.072 C 
ATOM     34  C   UNL     1      36.743 -21.099 -19.819  0.00  0.00    +0.059 C 
ATOM     35  C   UNL     1      34.369 -21.388 -20.065  0.00  0.00    +0.017 C 
ATOM     36  C   UNL     1      35.664 -21.877 -19.697  0.00  0.00    +0.006 C 
ENDBRANCH  27  31
ENDBRANCH  20  24
ENDBRANCH   1  21
TORSDOF 6
ENDMDL
MODEL 3
REMARK VINA RESULT:     -11.0      1.511      1.778
REMARK  Name = 42628063
REMARK  6 active torsions:
REMARK  status: ('A' for Active; 'I' for Inactive)
REMARK    1  A    between atoms: C_1  and  N_3
REMARK    2  A    between atoms: C_1  and  C_21
REMARK    3  A    between atoms: C_4  and  N_10
REMARK    4  A    between atoms: C_11  and  C_15
REMARK    5  A    between atoms: N_20  and  C_24
REMARK    6  A    between atoms: C_27  and  N_31
REMARK                            x       y       z     vdW  Elec       q    Type
REMARK                         _______ _______ _______ _____ _____    ______ ____
ROOT
ATOM      1  C   UNL     1      35.641 -21.577 -19.940  0.00  0.00    +0.010 C 
ENDROOT
BRANCH   1   3
ATOM      2  F   UNL     1      33.522 -22.758 -16.178  0.00  0.00    -0.238 F 
ATOM      3  N   UNL     1      35.308 -21.796 -18.541  0.00  0.00    +0.396 N 
ATOM      4  C   UNL     1      35.849 -22.585 -16.430  0.00  0.00    +0.082 C 
ATOM      5  C   UNL     1      34.565 -23.279 -16.878  0.00  0.00    +0.156 C 
ATOM      6  C   UNL     1      36.485 -22.100 -17.727  0.00  0.00    -0.054 C 
ATOM      7  C   UNL     1      34.403 -22.935 -18.353  0.00  0.00    -0.039 C 
ATOM      8  H   UNL     1      34.870 -20.922 -18.252  0.00  0.00    -0.079 HD
BRANCH   4  10
ATOM      9  O   UNL     1      35.472 -23.508 -13.738  0.00  0.00    -0.270 OA
ATOM     10  N   UNL     1      36.724 -23.451 -15.690  0.00  0.00    -0.302 N 
ATOM     11  C   UNL     1      36.460 -23.848 -14.383  0.00  0.00    +0.252 C 
ATOM     12  H   UNL     1      37.545 -23.777 -16.125  0.00  0.00    +0.150 HD
BRANCH  11  15
ATOM     13 CL   UNL     1      40.977 -26.908 -13.479  0.00  0.00    -0.075 Cl
ATOM     14  S   UNL     1      38.870 -25.168 -14.638  0.00  0.00    -0.071 S 
ATOM     15  C   UNL     1      37.477 -24.725 -13.747  0.00  0.00    +0.084 C 
ATOM     16  C   UNL     1      37.478 -25.267 -12.481  0.00  0.00    +0.012 C 
ATOM     17  C   UNL     1      38.638 -26.059 -12.239  0.00  0.00    +0.019 C 
ATOM     18  C   UNL     1      39.480 -26.090 -13.330  0.00  0.00    +0.087 C 
ENDBRANCH  11  15
ENDBRANCH   4  10
ENDBRANCH   1   3
BRANCH   1  21
ATOM     19  O   UNL     1      33.611 -20.319 -20.284  0.00  0.00    -0.277 OA
ATOM     20  N   UNL     1      35.632 -19.539 -21.189  0.00  0.00    -0.284 N 
ATOM     21  C   UNL     1      34.817 -20.419 -20.480  0.00  0.00    +0.205 C 
ATOM     22  H   UNL     1      36.585 -19.775 -21.242  0.00  0.00    +0.155 HD
BRANCH  20  24
ATOM     23  F   UNL     1      34.874 -19.523 -23.872  0.00  0.00    -0.203 F 
ATOM     24  C   UNL     1      35.246 -18.344 -21.843  0.00  0.00    +0.078 C 
ATOM     25  C   UNL     1      34.872 -18.370 -23.187  0.00  0.00    +0.155 C 
ATOM     26  C   UNL     1      35.241 -17.139 -21.141  0.00  0.00    +0.018 C 
ATOM     27  C   UNL     1      34.487 -15.987 -23.127  0.00  0.00    +0.061 C 
ATOM     28  C   UNL     1      34.493 -17.192 -23.829  0.00  0.00    +0.046 C 
ATOM     29  C   UNL     1      34.861 -15.960 -21.783  0.00  0.00    +0.017 C 
BRANCH  27  31
ATOM     30  O   UNL     1      33.362 -15.817 -25.786  0.00  0.00    -0.269 OA
ATOM     31  N   UNL     1      34.093 -14.761 -23.794  0.00  0.00    -0.233 N 
ATOM     32  C   UNL     1      33.588 -14.808 -25.119  0.00  0.00    +0.257 C 
ATOM     33  C   UNL     1      34.184 -13.533 -23.134  0.00  0.00    +0.072 C 
ATOM     34  C   UNL     1      33.249 -13.494 -25.750  0.00  0.00    +0.059 C 
ATOM     35  C   UNL     1      33.843 -12.375 -23.708  0.00  0.00    +0.017 C 
ATOM     36  C   UNL     1      33.368 -12.358 -25.059  0.00  0.00    +0.006 C 
ENDBRANCH  27  31
ENDBRANCH  20  24
ENDBRANCH   1  21
TORSDOF 6
ENDMDL
MODEL 4
REMARK VINA RESULT:     -10.7      4.834     11.951
REMARK  Name = 42628063
REMARK  6 active torsions:
REMARK  status: ('A' for Active; 'I' for Inactive)
REMARK    1  A    between atoms: C_1  and  N_3
REMARK    2  A    between atoms: C_1  and  C_21
REMARK    3  A    between atoms: C_4  and  N_10
REMARK    4  A    between atoms: C_11  and  C_15
REMARK    5  A    between atoms: N_20  and  C_24
REMARK    6  A    between atoms: C_27  and  N_31
REMARK                            x       y       z     vdW  Elec       q    Type
REMARK                         _______ _______ _______ _____ _____    ______ ____
ROOT
ATOM      1  C   UNL     1      34.801 -20.667 -21.044  0.00  0.00    +0.010 C 
ENDROOT
BRANCH   1   3
ATOM      2  F   UNL     1      35.752 -17.453 -24.012  0.00  0.00    -0.238 F 
ATOM      3  N   UNL     1      35.188 -19.401 -21.648  0.00  0.00    +0.396 N 
ATOM      4  C   UNL     1      35.005 -17.097 -21.816  0.00  0.00    +0.082 C 
ATOM      5  C   UNL     1      34.699 -17.695 -23.186  0.00  0.00    +0.156 C 
ATOM      6  C   UNL     1      34.779 -18.249 -20.844  0.00  0.00    -0.054 C 
ATOM      7  C   UNL     1      34.569 -19.195 -22.962  0.00  0.00    -0.039 C 
ATOM      8  H   UNL     1      36.203 -19.463 -21.721  0.00  0.00    -0.079 HD
BRANCH   4  10
ATOM      9  O   UNL     1      34.954 -14.588 -23.210  0.00  0.00    -0.270 OA
ATOM     10  N   UNL     1      34.184 -15.959 -21.505  0.00  0.00    -0.302 N 
ATOM     11  C   UNL     1      34.227 -14.779 -22.239  0.00  0.00    +0.252 C 
ATOM     12  H   UNL     1      33.566 -16.017 -20.741  0.00  0.00    +0.150 HD
BRANCH  11  15
ATOM     13 CL   UNL     1      31.211 -10.148 -22.028  0.00  0.00    -0.075 Cl
ATOM     14  S   UNL     1      32.986 -12.387 -22.834  0.00  0.00    -0.071 S 
ATOM     15  C   UNL     1      33.334 -13.686 -21.775  0.00  0.00    +0.084 C 
ATOM     16  C   UNL     1      32.704 -13.546 -20.558  0.00  0.00    +0.012 C 
ATOM     17  C   UNL     1      31.925 -12.354 -20.494  0.00  0.00    +0.019 C 
ATOM     18  C   UNL     1      31.989 -11.630 -21.665  0.00  0.00    +0.087 C 
ENDBRANCH  11  15
ENDBRANCH   4  10
ENDBRANCH   1   3
BRANCH   1  21
ATOM     19  O   UNL     1      36.756 -20.395 -19.657  0.00  0.00    -0.277 OA
ATOM     20  N   UNL     1      35.024 -21.820 -18.962  0.00  0.00    -0.284 N 
ATOM     21  C   UNL     1      35.663 -20.927 -19.820  0.00  0.00    +0.205 C 
ATOM     22  H   UNL     1      34.142 -22.146 -19.251  0.00  0.00    +0.155 HD
BRANCH  20  24
ATOM     23  F   UNL     1      33.372 -23.262 -17.241  0.00  0.00    -0.203 F 
ATOM     24  C   UNL     1      35.496 -22.313 -17.722  0.00  0.00    +0.078 C 
ATOM     25  C   UNL     1      34.644 -23.031 -16.883  0.00  0.00    +0.155 C 
ATOM     26  C   UNL     1      36.817 -22.079 -17.338  0.00  0.00    +0.018 C 
ATOM     27  C   UNL     1      36.432 -23.282 -15.279  0.00  0.00    +0.061 C 
ATOM     28  C   UNL     1      35.111 -23.516 -15.663  0.00  0.00    +0.046 C 
ATOM     29  C   UNL     1      37.284 -22.564 -16.117  0.00  0.00    +0.017 C 
BRANCH  27  31
ATOM     30  O   UNL     1      37.700 -25.850 -14.874  0.00  0.00    -0.269 OA
ATOM     31  N   UNL     1      36.918 -23.786 -14.009  0.00  0.00    -0.233 N 
ATOM     32  C   UNL     1      37.488 -25.084 -13.935  0.00  0.00    +0.257 C 
ATOM     33  C   UNL     1      36.851 -22.995 -12.860  0.00  0.00    +0.072 C 
ATOM     34  C   UNL     1      37.921 -25.544 -12.579  0.00  0.00    +0.059 C 
ATOM     35  C   UNL     1      37.276 -23.417 -11.665  0.00  0.00    +0.017 C 
ATOM     36  C   UNL     1      37.821 -24.734 -11.523  0.00  0.00    +0.006 C 
ENDBRANCH  27  31
ENDBRANCH  20  24
ENDBRANCH   1  21
TORSDOF 6
ENDMDL
MODEL 5
REMARK VINA RESULT:     -10.6      3.589      5.590
REMARK  Name = 42628063
REMARK  6 active torsions:
REMARK  status: ('A' for Active; 'I' for Inactive)
REMARK    1  A    between atoms: C_1  and  N_3
REMARK    2  A    between atoms: C_1  and  C_21
REMARK    3  A    between atoms: C_4  and  N_10
REMARK    4  A    between atoms: C_11  and  C_15
REMARK    5  A    between atoms: N_20  and  C_24
REMARK    6  A    between atoms: C_27  and  N_31
REMARK                            x       y       z     vdW  Elec       q    Type
REMARK                         _______ _______ _______ _____ _____    ______ ____
ROOT
ATOM      1  C   UNL     1      34.200 -16.924 -23.961  0.00  0.00    +0.010 C 
ENDROOT
BRANCH   1   3
ATOM      2  F   UNL     1      37.463 -18.645 -21.424  0.00  0.00    -0.238 F 
ATOM      3  N   UNL     1      35.060 -17.849 -23.239  0.00  0.00    +0.396 N 
ATOM      4  C   UNL     1      35.350 -19.610 -21.760  0.00  0.00    +0.082 C 
ATOM      5  C   UNL     1      36.137 -18.415 -21.229  0.00  0.00    +0.156 C 
ATOM      6  C   UNL     1      34.324 -18.996 -22.704  0.00  0.00    -0.054 C 
ATOM      7  C   UNL     1      35.702 -17.226 -22.076  0.00  0.00    -0.039 C 
ATOM      8  H   UNL     1      35.748 -18.139 -23.932  0.00  0.00    -0.079 HD
BRANCH   4  10
ATOM      9  O   UNL     1      36.680 -21.309 -19.867  0.00  0.00    -0.270 OA
ATOM     10  N   UNL     1      34.732 -20.382 -20.718  0.00  0.00    -0.302 N 
ATOM     11  C   UNL     1      35.459 -21.181 -19.843  0.00  0.00    +0.252 C 
ATOM     12  H   UNL     1      33.754 -20.343 -20.619  0.00  0.00    +0.150 HD
BRANCH  11  15
ATOM     13 CL   UNL     1      33.981 -24.022 -15.333  0.00  0.00    -0.075 Cl
ATOM     14  S   UNL     1      35.449 -22.508 -17.423  0.00  0.00    -0.071 S 
ATOM     15  C   UNL     1      34.669 -21.936 -18.835  0.00  0.00    +0.084 C 
ATOM     16  C   UNL     1      33.332 -22.264 -18.858  0.00  0.00    +0.012 C 
ATOM     17  C   UNL     1      32.941 -22.998 -17.700  0.00  0.00    +0.019 C 
ATOM     18  C   UNL     1      33.996 -23.200 -16.836  0.00  0.00    +0.087 C 
ENDBRANCH  11  15
ENDBRANCH   4  10
ENDBRANCH   1   3
BRANCH   1  21
ATOM     19  O   UNL     1      35.436 -15.109 -22.960  0.00  0.00    -0.277 OA
ATOM     20  N   UNL     1      33.151 -14.844 -23.428  0.00  0.00    -0.284 N 
ATOM     21  C   UNL     1      34.363 -15.527 -23.384  0.00  0.00    +0.205 C 
ATOM     22  H   UNL     1      32.388 -15.335 -23.808  0.00  0.00    +0.155 HD
BRANCH  20  24
ATOM     23  F   UNL     1      34.185 -12.628 -24.766  0.00  0.00    -0.203 F 
ATOM     24  C   UNL     1      32.888 -13.525 -22.988  0.00  0.00    +0.078 C 
ATOM     25  C   UNL     1      33.421 -12.436 -23.680  0.00  0.00    +0.155 C 
ATOM     26  C   UNL     1      32.095 -13.312 -21.860  0.00  0.00    +0.018 C 
ATOM     27  C   UNL     1      32.367 -10.925 -22.119  0.00  0.00    +0.061 C 
ATOM     28  C   UNL     1      33.161 -11.138 -23.246  0.00  0.00    +0.046 C 
ATOM     29  C   UNL     1      31.834 -12.012 -21.426  0.00  0.00    +0.017 C 
BRANCH  27  31
ATOM     30  O   UNL     1      31.204  -8.824 -23.730  0.00  0.00    -0.269 OA
ATOM     31  N   UNL     1      32.097  -9.574 -21.666  0.00  0.00    -0.233 N 
ATOM     32  C   UNL     1      31.558  -8.621 -22.569  0.00  0.00    +0.257 C 
ATOM     33  C   UNL     1      32.341  -9.208 -20.341  0.00  0.00    +0.072 C 
ATOM     34  C   UNL     1      31.353  -7.239 -22.034  0.00  0.00    +0.059 C 
ATOM     35  C   UNL     1      32.118  -7.974 -19.877  0.00  0.00    +0.017 C 
ATOM     36  C   UNL     1      31.615  -6.960 -20.755  0.00  0.00    +0.006 C 
ENDBRANCH  27  31
ENDBRANCH  20  24
ENDBRANCH   1  21
TORSDOF 6
ENDMDL
MODEL 6
REMARK VINA RESULT:     -10.5      3.667      5.065
REMARK  Name = 42628063
REMARK  6 active torsions:
REMARK  status: ('A' for Active; 'I' for Inactive)
REMARK    1  A    between atoms: C_1  and  N_3
REMARK    2  A    between atoms: C_1  and  C_21
REMARK    3  A    between atoms: C_4  and  N_10
REMARK    4  A    between atoms: C_11  and  C_15
REMARK    5  A    between atoms: N_20  and  C_24
REMARK    6  A    between atoms: C_27  and  N_31
REMARK                            x       y       z     vdW  Elec       q    Type
REMARK                         _______ _______ _______ _____ _____    ______ ____
ROOT
ATOM      1  C   UNL     1      34.135 -18.243 -24.163  0.00  0.00    +0.010 C 
ENDROOT
BRANCH   1   3
ATOM      2  F   UNL     1      37.395 -18.678 -21.125  0.00  0.00    -0.238 F 
ATOM      3  N   UNL     1      35.083 -18.799 -23.209  0.00  0.00    +0.396 N 
ATOM      4  C   UNL     1      35.566 -20.127 -21.372  0.00  0.00    +0.082 C 
ATOM      5  C   UNL     1      36.037 -18.709 -21.064  0.00  0.00    +0.156 C 
ATOM      6  C   UNL     1      34.541 -19.949 -22.486  0.00  0.00    -0.054 C 
ATOM      7  C   UNL     1      35.463 -17.834 -22.171  0.00  0.00    -0.039 C 
ATOM      8  H   UNL     1      35.884 -19.062 -23.782  0.00  0.00    -0.079 HD
BRANCH   4  10
ATOM      9  O   UNL     1      36.976 -21.788 -19.503  0.00  0.00    -0.270 OA
ATOM     10  N   UNL     1      35.009 -20.794 -20.228  0.00  0.00    -0.302 N 
ATOM     11  C   UNL     1      35.773 -21.582 -19.373  0.00  0.00    +0.252 C 
ATOM     12  H   UNL     1      34.049 -20.688 -20.040  0.00  0.00    +0.150 HD
BRANCH  11  15
ATOM     13 CL   UNL     1      31.800 -23.818 -16.242  0.00  0.00    -0.075 Cl
ATOM     14  S   UNL     1      33.368 -22.535 -18.411  0.00  0.00    -0.071 S 
ATOM     15  C   UNL     1      35.043 -22.224 -18.249  0.00  0.00    +0.084 C 
ATOM     16  C   UNL     1      35.530 -22.634 -17.027  0.00  0.00    +0.012 C 
ATOM     17  C   UNL     1      34.513 -23.210 -16.212  0.00  0.00    +0.019 C 
ATOM     18  C   UNL     1      33.288 -23.220 -16.844  0.00  0.00    +0.087 C 
ENDBRANCH  11  15
ENDBRANCH   4  10
ENDBRANCH   1   3
BRANCH   1  21
ATOM     19  O   UNL     1      35.311 -16.438 -25.249  0.00  0.00    -0.277 OA
ATOM     20  N   UNL     1      33.703 -15.960 -23.606  0.00  0.00    -0.284 N 
ATOM     21  C   UNL     1      34.474 -16.785 -24.422  0.00  0.00    +0.205 C 
ATOM     22  H   UNL     1      33.073 -16.412 -23.000  0.00  0.00    +0.155 HD
BRANCH  20  24
ATOM     23  F   UNL     1      34.553 -14.607 -21.321  0.00  0.00    -0.203 F 
ATOM     24  C   UNL     1      33.721 -14.546 -23.546  0.00  0.00    +0.078 C 
ATOM     25  C   UNL     1      34.152 -13.899 -22.387  0.00  0.00    +0.155 C 
ATOM     26  C   UNL     1      33.306 -13.798 -24.648  0.00  0.00    +0.018 C 
ATOM     27  C   UNL     1      33.755 -11.759 -23.433  0.00  0.00    +0.061 C 
ATOM     28  C   UNL     1      34.169 -12.506 -22.331  0.00  0.00    +0.046 C 
ATOM     29  C   UNL     1      33.323 -12.405 -24.592  0.00  0.00    +0.017 C 
BRANCH  27  31
ATOM     30  O   UNL     1      31.521 -10.090 -22.665  0.00  0.00    -0.269 OA
ATOM     31  N   UNL     1      33.772 -10.310 -23.375  0.00  0.00    -0.233 N 
ATOM     32  C   UNL     1      32.594  -9.602 -23.020  0.00  0.00    +0.257 C 
ATOM     33  C   UNL     1      34.946  -9.603 -23.644  0.00  0.00    +0.072 C 
ATOM     34  C   UNL     1      32.685  -8.109 -23.030  0.00  0.00    +0.059 C 
ATOM     35  C   UNL     1      35.011  -8.268 -23.614  0.00  0.00    +0.017 C 
ATOM     36  C   UNL     1      33.842  -7.501 -23.304  0.00  0.00    +0.006 C 
ENDBRANCH  27  31
ENDBRANCH  20  24
ENDBRANCH   1  21
TORSDOF 6
ENDMDL
MODEL 7
REMARK VINA RESULT:     -10.4      4.729     11.762
REMARK  Name = 42628063
REMARK  6 active torsions:
REMARK  status: ('A' for Active; 'I' for Inactive)
REMARK    1  A    between atoms: C_1  and  N_3
REMARK    2  A    between atoms: C_1  and  C_21
REMARK    3  A    between atoms: C_4  and  N_10
REMARK    4  A    between atoms: C_11  and  C_15
REMARK    5  A    between atoms: N_20  and  C_24
REMARK    6  A    between atoms: C_27  and  N_31
REMARK                            x       y       z     vdW  Elec       q    Type
REMARK                         _______ _______ _______ _____ _____    ______ ____
ROOT
ATOM      1  C   UNL     1      33.596 -20.824 -20.889  0.00  0.00    +0.010 C 
ENDROOT
BRANCH   1   3
ATOM      2  F   UNL     1      37.331 -18.605 -21.973  0.00  0.00    -0.238 F 
ATOM      3  N   UNL     1      34.630 -19.804 -20.990  0.00  0.00    +0.396 N 
ATOM      4  C   UNL     1      35.285 -17.617 -21.387  0.00  0.00    +0.082 C 
ATOM      5  C   UNL     1      36.032 -18.517 -22.366  0.00  0.00    +0.156 C 
ATOM      6  C   UNL     1      34.082 -18.447 -20.956  0.00  0.00    -0.054 C 
ATOM      7  C   UNL     1      35.377 -19.887 -22.249  0.00  0.00    -0.039 C 
ATOM      8  H   UNL     1      35.232 -19.983 -20.188  0.00  0.00    -0.079 HD
BRANCH   4  10
ATOM      9  O   UNL     1      34.162 -15.366 -20.004  0.00  0.00    -0.270 OA
ATOM     10  N   UNL     1      34.894 -16.362 -21.967  0.00  0.00    -0.302 N 
ATOM     11  C   UNL     1      34.356 -15.322 -21.215  0.00  0.00    +0.252 C 
ATOM     12  H   UNL     1      35.012 -16.231 -22.935  0.00  0.00    +0.150 HD
BRANCH  11  15
ATOM     13 CL   UNL     1      31.879 -10.629 -22.774  0.00  0.00    -0.075 Cl
ATOM     14  S   UNL     1      32.719 -13.105 -21.369  0.00  0.00    -0.071 S 
ATOM     15  C   UNL     1      33.980 -14.097 -21.968  0.00  0.00    +0.084 C 
ATOM     16  C   UNL     1      34.516 -13.603 -23.136  0.00  0.00    +0.012 C 
ATOM     17  C   UNL     1      33.883 -12.394 -23.546  0.00  0.00    +0.019 C 
ATOM     18  C   UNL     1      32.888 -12.010 -22.674  0.00  0.00    +0.087 C 
ENDBRANCH  11  15
ENDBRANCH   4  10
ENDBRANCH   1   3
BRANCH   1  21
ATOM     19  O   UNL     1      32.518 -21.303 -18.785  0.00  0.00    -0.277 OA
ATOM     20  N   UNL     1      34.779 -21.858 -19.088  0.00  0.00    -0.284 N 
ATOM     21  C   UNL     1      33.539 -21.346 -19.463  0.00  0.00    +0.205 C 
ATOM     22  H   UNL     1      35.490 -21.815 -19.766  0.00  0.00    +0.155 HD
BRANCH  20  24
ATOM     23  F   UNL     1      37.187 -21.239 -17.828  0.00  0.00    -0.203 F 
ATOM     24  C   UNL     1      35.133 -22.434 -17.845  0.00  0.00    +0.078 C 
ATOM     25  C   UNL     1      36.347 -22.104 -17.240  0.00  0.00    +0.155 C 
ATOM     26  C   UNL     1      34.268 -23.335 -17.224  0.00  0.00    +0.018 C 
ATOM     27  C   UNL     1      35.828 -23.572 -15.394  0.00  0.00    +0.061 C 
ATOM     28  C   UNL     1      36.694 -22.672 -16.016  0.00  0.00    +0.046 C 
ATOM     29  C   UNL     1      34.615 -23.904 -15.999  0.00  0.00    +0.017 C 
BRANCH  27  31
ATOM     30  O   UNL     1      36.705 -26.301 -15.008  0.00  0.00    -0.269 OA
ATOM     31  N   UNL     1      36.189 -24.164 -14.121  0.00  0.00    -0.233 N 
ATOM     32  C   UNL     1      36.567 -25.531 -14.057  0.00  0.00    +0.257 C 
ATOM     33  C   UNL     1      36.189 -23.394 -12.956  0.00  0.00    +0.072 C 
ATOM     34  C   UNL     1      36.878 -26.074 -12.699  0.00  0.00    +0.059 C 
ATOM     35  C   UNL     1      36.504 -23.895 -11.756  0.00  0.00    +0.017 C 
ATOM     36  C   UNL     1      36.852 -25.278 -11.627  0.00  0.00    +0.006 C 
ENDBRANCH  27  31
ENDBRANCH  20  24
ENDBRANCH   1  21
TORSDOF 6
ENDMDL
MODEL 8
REMARK VINA RESULT:     -10.3      4.516      7.338
REMARK  Name = 42628063
REMARK  6 active torsions:
REMARK  status: ('A' for Active; 'I' for Inactive)
REMARK    1  A    between atoms: C_1  and  N_3
REMARK    2  A    between atoms: C_1  and  C_21
REMARK    3  A    between atoms: C_4  and  N_10
REMARK    4  A    between atoms: C_11  and  C_15
REMARK    5  A    between atoms: N_20  and  C_24
REMARK    6  A    between atoms: C_27  and  N_31
REMARK                            x       y       z     vdW  Elec       q    Type
REMARK                         _______ _______ _______ _____ _____    ______ ____
ROOT
ATOM      1  C   UNL     1      33.815 -15.066 -24.486  0.00  0.00    +0.010 C 
ENDROOT
BRANCH   1   3
ATOM      2  F   UNL     1      35.114 -14.527 -20.235  0.00  0.00    -0.238 F 
ATOM      3  N   UNL     1      34.507 -15.208 -23.214  0.00  0.00    +0.396 N 
ATOM      4  C   UNL     1      35.290 -16.516 -21.469  0.00  0.00    +0.082 C 
ATOM      5  C   UNL     1      34.361 -15.457 -20.883  0.00  0.00    +0.156 C 
ATOM      6  C   UNL     1      34.895 -16.591 -22.938  0.00  0.00    -0.054 C 
ATOM      7  C   UNL     1      33.674 -14.806 -22.075  0.00  0.00    -0.039 C 
ATOM      8  H   UNL     1      35.323 -14.604 -23.308  0.00  0.00    -0.079 HD
BRANCH   4  10
ATOM      9  O   UNL     1      37.109 -18.727 -21.680  0.00  0.00    -0.270 OA
ATOM     10  N   UNL     1      35.173 -17.789 -20.812  0.00  0.00    -0.302 N 
ATOM     11  C   UNL     1      36.108 -18.806 -20.974  0.00  0.00    +0.252 C 
ATOM     12  H   UNL     1      34.401 -17.947 -20.223  0.00  0.00    +0.150 HD
BRANCH  11  15
ATOM     13 CL   UNL     1      33.541 -23.177 -18.761  0.00  0.00    -0.075 Cl
ATOM     14  S   UNL     1      34.224 -20.659 -20.177  0.00  0.00    -0.071 S 
ATOM     15  C   UNL     1      35.831 -20.072 -20.246  0.00  0.00    +0.084 C 
ATOM     16  C   UNL     1      36.712 -20.895 -19.582  0.00  0.00    +0.012 C 
ATOM     17  C   UNL     1      36.059 -22.024 -19.007  0.00  0.00    +0.019 C 
ATOM     18  C   UNL     1      34.704 -22.020 -19.256  0.00  0.00    +0.087 C 
ENDBRANCH  11  15
ENDBRANCH   4  10
ENDBRANCH   1   3
BRANCH   1  21
ATOM     19  O   UNL     1      33.083 -13.168 -25.783  0.00  0.00    -0.277 OA
ATOM     20  N   UNL     1      33.529 -12.912 -23.492  0.00  0.00    -0.284 N 
ATOM     21  C   UNL     1      33.430 -13.610 -24.693  0.00  0.00    +0.205 C 
ATOM     22  H   UNL     1      33.820 -13.431 -22.709  0.00  0.00    +0.155 HD
BRANCH  20  24
ATOM     23  F   UNL     1      31.181 -12.076 -22.242  0.00  0.00    -0.203 F 
ATOM     24  C   UNL     1      33.257 -11.541 -23.267  0.00  0.00    +0.078 C 
ATOM     25  C   UNL     1      32.072 -11.155 -22.638  0.00  0.00    +0.155 C 
ATOM     26  C   UNL     1      34.176 -10.574 -23.675  0.00  0.00    +0.018 C 
ATOM     27  C   UNL     1      32.726  -8.838 -22.826  0.00  0.00    +0.061 C 
ATOM     28  C   UNL     1      31.807  -9.805 -22.418  0.00  0.00    +0.046 C 
ATOM     29  C   UNL     1      33.910  -9.222 -23.454  0.00  0.00    +0.017 C 
BRANCH  27  31
ATOM     30  O   UNL     1      33.292  -7.400 -20.381  0.00  0.00    -0.269 OA
ATOM     31  N   UNL     1      32.450  -7.433 -22.596  0.00  0.00    -0.233 N 
ATOM     32  C   UNL     1      32.739  -6.852 -21.334  0.00  0.00    +0.257 C 
ATOM     33  C   UNL     1      31.922  -6.638 -23.616  0.00  0.00    +0.072 C 
ATOM     34  C   UNL     1      32.381  -5.409 -21.167  0.00  0.00    +0.059 C 
ATOM     35  C   UNL     1      31.641  -5.341 -23.453  0.00  0.00    +0.017 C 
ATOM     36  C   UNL     1      31.873  -4.713 -22.187  0.00  0.00    +0.006 C 
ENDBRANCH  27  31
ENDBRANCH  20  24
ENDBRANCH   1  21
TORSDOF 6
ENDMDL
MODEL 9
REMARK VINA RESULT:     -10.3      4.508      7.362
REMARK  Name = 42628063
REMARK  6 active torsions:
REMARK  status: ('A' for Active; 'I' for Inactive)
REMARK    1  A    between atoms: C_1  and  N_3
REMARK    2  A    between atoms: C_1  and  C_21
REMARK    3  A    between atoms: C_4  and  N_10
REMARK    4  A    between atoms: C_11  and  C_15
REMARK    5  A    between atoms: N_20  and  C_24
REMARK    6  A    between atoms: C_27  and  N_31
REMARK                            x       y       z     vdW  Elec       q    Type
REMARK                         _______ _______ _______ _____ _____    ______ ____
ROOT
ATOM      1  C   UNL     1      33.973 -15.070 -24.480  0.00  0.00    +0.010 C 
ENDROOT
BRANCH   1   3
ATOM      2  F   UNL     1      35.045 -14.496 -20.172  0.00  0.00    -0.238 F 
ATOM      3  N   UNL     1      34.604 -15.193 -23.175  0.00  0.00    +0.396 N 
ATOM      4  C   UNL     1      35.333 -16.480 -21.392  0.00  0.00    +0.082 C 
ATOM      5  C   UNL     1      34.350 -15.445 -20.854  0.00  0.00    +0.156 C 
ATOM      6  C   UNL     1      35.013 -16.566 -22.879  0.00  0.00    -0.054 C 
ATOM      7  C   UNL     1      33.705 -14.813 -22.080  0.00  0.00    -0.039 C 
ATOM      8  H   UNL     1      35.408 -14.568 -23.230  0.00  0.00    -0.079 HD
BRANCH   4  10
ATOM      9  O   UNL     1      37.010 -18.774 -21.802  0.00  0.00    -0.270 OA
ATOM     10  N   UNL     1      35.218 -17.755 -20.740  0.00  0.00    -0.302 N 
ATOM     11  C   UNL     1      36.079 -18.815 -21.003  0.00  0.00    +0.252 C 
ATOM     12  H   UNL     1      34.500 -17.884 -20.079  0.00  0.00    +0.150 HD
BRANCH  11  15
ATOM     13 CL   UNL     1      33.549 -23.201 -18.778  0.00  0.00    -0.075 Cl
ATOM     14  S   UNL     1      34.214 -20.689 -20.214  0.00  0.00    -0.071 S 
ATOM     15  C   UNL     1      35.811 -20.076 -20.264  0.00  0.00    +0.084 C 
ATOM     16  C   UNL     1      36.695 -20.876 -19.574  0.00  0.00    +0.012 C 
ATOM     17  C   UNL     1      36.052 -22.009 -18.996  0.00  0.00    +0.019 C 
ATOM     18  C   UNL     1      34.701 -22.031 -19.268  0.00  0.00    +0.087 C 
ENDBRANCH  11  15
ENDBRANCH   4  10
ENDBRANCH   1   3
BRANCH   1  21
ATOM     19  O   UNL     1      32.763 -13.323 -25.623  0.00  0.00    -0.277 OA
ATOM     20  N   UNL     1      33.740 -12.888 -23.533  0.00  0.00    -0.284 N 
ATOM     21  C   UNL     1      33.412 -13.667 -24.640  0.00  0.00    +0.205 C 
ATOM     22  H   UNL     1      34.266 -13.332 -22.830  0.00  0.00    +0.155 HD
BRANCH  20  24
ATOM     23  F   UNL     1      31.365 -12.171 -22.263  0.00  0.00    -0.203 F 
ATOM     24  C   UNL     1      33.405 -11.533 -23.302  0.00  0.00    +0.078 C 
ATOM     25  C   UNL     1      32.207 -11.207 -22.663  0.00  0.00    +0.155 C 
ATOM     26  C   UNL     1      34.272 -10.521 -23.713  0.00  0.00    +0.018 C 
ATOM     27  C   UNL     1      32.747  -8.860 -22.847  0.00  0.00    +0.061 C 
ATOM     28  C   UNL     1      31.879  -9.871 -22.435  0.00  0.00    +0.046 C 
ATOM     29  C   UNL     1      33.944  -9.185 -23.485  0.00  0.00    +0.017 C 
BRANCH  27  31
ATOM     30  O   UNL     1      31.282  -7.165 -24.675  0.00  0.00    -0.269 OA
ATOM     31  N   UNL     1      32.406  -7.471 -22.610  0.00  0.00    -0.233 N 
ATOM     32  C   UNL     1      31.716  -6.733 -23.607  0.00  0.00    +0.257 C 
ATOM     33  C   UNL     1      32.730  -6.857 -21.399  0.00  0.00    +0.072 C 
ATOM     34  C   UNL     1      31.444  -5.294 -23.302  0.00  0.00    +0.059 C 
ATOM     35  C   UNL     1      32.447  -5.577 -21.136  0.00  0.00    +0.017 C 
ATOM     36  C   UNL     1      31.790  -4.773 -22.122  0.00  0.00    +0.006 C 
ENDBRANCH  27  31
ENDBRANCH  20  24
ENDBRANCH   1  21
TORSDOF 6
ENDMDL
