MODEL 1
REMARK VINA RESULT:     -11.8      0.000      0.000
REMARK  Name = 6914613
REMARK  8 active torsions:
REMARK  status: ('A' for Active; 'I' for Inactive)
REMARK    1  A    between atoms: C_1  and  N_2
REMARK    2  A    between atoms: C_1  and  C_6
REMARK    3  A    between atoms: C_1  and  C_17
REMARK    4  A    between atoms: C_6  and  C_8
REMARK    5  A    between atoms: C_17  and  O_18
REMARK    6  A    between atoms: O_18  and  C_20
REMARK    7  A    between atoms: C_23  and  C_25
REMARK    8  A    between atoms: C_26  and  C_28
REMARK                            x       y       z     vdW  Elec       q    Type
REMARK                         _______ _______ _______ _____ _____    ______ ____
ROOT
ATOM      1  C   UNL     1      33.628 -13.133 -23.110  0.00  0.00    -0.017 C 
ENDROOT
BRANCH   1   2
ATOM      2  N   UNL     1      33.431 -13.486 -24.521  0.00  0.00    +0.384 N 
ATOM      3  H   UNL     1      32.857 -12.774 -24.972  0.00  0.00    -0.089 HD
ATOM      4  H   UNL     1      32.963 -14.390 -24.584  0.00  0.00    -0.089 HD
ATOM      5  H   UNL     1      34.337 -13.539 -24.987  0.00  0.00    -0.089 HD
ENDBRANCH   1   2
BRANCH   1   6
ATOM      6  C   UNL     1      32.277 -12.674 -22.500  0.00  0.00    +0.009 C 
BRANCH   6   8
ATOM      7  N   UNL     1      32.216  -9.025 -22.414  0.00  0.00    -0.312 N 
ATOM      8  C   UNL     1      32.205 -11.233 -22.187  0.00  0.00    -0.008 C 
ATOM      9  C   UNL     1      31.980 -10.653 -20.907  0.00  0.00    +0.011 C 
ATOM     10  C   UNL     1      31.992  -9.267 -21.077  0.00  0.00    +0.048 C 
ATOM     11  C   UNL     1      32.346 -10.207 -23.093  0.00  0.00    +0.058 C 
ATOM     12  C   UNL     1      31.768 -11.176 -19.616  0.00  0.00    +0.001 C 
ATOM     13  C   UNL     1      31.801  -8.374 -20.017  0.00  0.00    +0.015 C 
ATOM     14  C   UNL     1      31.575 -10.295 -18.546  0.00  0.00    +0.000 C 
ATOM     15  C   UNL     1      31.592  -8.917 -18.745  0.00  0.00    +0.001 C 
ATOM     16  H   UNL     1      32.274  -8.131 -22.823  0.00  0.00    +0.152 HD
ENDBRANCH   6   8
ENDBRANCH   1   6
BRANCH   1  17
ATOM     17  C   UNL     1      34.252 -14.334 -22.388  0.00  0.00    +0.184 C 
BRANCH  17  18
ATOM     18  O   UNL     1      35.129 -15.064 -23.236  0.00  0.00    -0.476 OA
BRANCH  18  20
ATOM     19  N   UNL     1      34.094 -18.207 -24.764  0.00  0.00    -0.239 NA
ATOM     20  C   UNL     1      34.877 -16.404 -23.378  0.00  0.00    +0.158 C 
ATOM     21  C   UNL     1      35.128 -17.279 -22.338  0.00  0.00    +0.040 C 
ATOM     22  C   UNL     1      34.367 -16.898 -24.559  0.00  0.00    +0.136 C 
ATOM     23  C   UNL     1      34.860 -18.633 -22.511  0.00  0.00    +0.022 C 
ATOM     24  C   UNL     1      34.348 -19.042 -23.732  0.00  0.00    +0.099 C 
BRANCH  23  25
ATOM     25  C   UNL     1      35.109 -19.588 -21.446  0.00  0.00    +0.002 C 
ATOM     26  C   UNL     1      34.154 -20.196 -20.700  0.00  0.00    +0.000 C 
BRANCH  26  28
ATOM     27  N   UNL     1      34.878 -23.029 -17.617  0.00  0.00    -0.242 NA
ATOM     28  C   UNL     1      34.405 -21.179 -19.632  0.00  0.00    +0.003 C 
ATOM     29  C   UNL     1      35.692 -21.358 -19.163  0.00  0.00    +0.021 C 
ATOM     30  C   UNL     1      33.350 -21.905 -19.115  0.00  0.00    +0.021 C 
ATOM     31  C   UNL     1      35.875 -22.292 -18.157  0.00  0.00    +0.099 C 
ATOM     32  C   UNL     1      33.638 -22.815 -18.112  0.00  0.00    +0.099 C 
ENDBRANCH  26  28
ENDBRANCH  23  25
ENDBRANCH  18  20
ENDBRANCH  17  18
ENDBRANCH   1  17
TORSDOF 8
ENDMDL
MODEL 2
REMARK VINA RESULT:     -11.4      1.056      1.953
REMARK  Name = 6914613
REMARK  8 active torsions:
REMARK  status: ('A' for Active; 'I' for Inactive)
REMARK    1  A    between atoms: C_1  and  N_2
REMARK    2  A    between atoms: C_1  and  C_6
REMARK    3  A    between atoms: C_1  and  C_17
REMARK    4  A    between atoms: C_6  and  C_8
REMARK    5  A    between atoms: C_17  and  O_18
REMARK    6  A    between atoms: O_18  and  C_20
REMARK    7  A    between atoms: C_23  and  C_25
REMARK    8  A    between atoms: C_26  and  C_28
REMARK                            x       y       z     vdW  Elec       q    Type
REMARK                         _______ _______ _______ _____ _____    ______ ____
ROOT
ATOM      1  C   UNL     1      33.344 -12.597 -22.487  0.00  0.00    -0.017 C 
ENDROOT
BRANCH   1   2
ATOM      2  N   UNL     1      33.145 -12.675 -23.938  0.00  0.00    +0.384 N 
ATOM      3  H   UNL     1      32.414 -12.021 -24.216  0.00  0.00    -0.089 HD
ATOM      4  H   UNL     1      32.868 -13.623 -24.194  0.00  0.00    -0.089 HD
ATOM      5  H   UNL     1      34.015 -12.435 -24.414  0.00  0.00    -0.089 HD
ENDBRANCH   1   2
BRANCH   1   6
ATOM      6  C   UNL     1      31.980 -12.347 -21.791  0.00  0.00    +0.009 C 
BRANCH   6   8
ATOM      7  N   UNL     1      31.875  -9.886 -19.096  0.00  0.00    -0.312 N 
ATOM      8  C   UNL     1      31.950 -11.161 -20.912  0.00  0.00    -0.008 C 
ATOM      9  C   UNL     1      31.979  -9.799 -21.324  0.00  0.00    +0.011 C 
ATOM     10  C   UNL     1      31.932  -9.019 -20.166  0.00  0.00    +0.048 C 
ATOM     11  C   UNL     1      31.886 -11.182 -19.538  0.00  0.00    +0.058 C 
ATOM     12  C   UNL     1      32.042  -9.152 -22.574  0.00  0.00    +0.001 C 
ATOM     13  C   UNL     1      31.944  -7.621 -20.196  0.00  0.00    +0.015 C 
ATOM     14  C   UNL     1      32.055  -7.753 -22.619  0.00  0.00    +0.000 C 
ATOM     15  C   UNL     1      32.007  -7.002 -21.448  0.00  0.00    +0.001 C 
ATOM     16  H   UNL     1      31.834  -9.612 -18.152  0.00  0.00    +0.152 HD
ENDBRANCH   6   8
ENDBRANCH   1   6
BRANCH   1  17
ATOM     17  C   UNL     1      34.046 -13.879 -22.019  0.00  0.00    +0.184 C 
BRANCH  17  18
ATOM     18  O   UNL     1      34.875 -14.428 -23.035  0.00  0.00    -0.476 OA
BRANCH  18  20
ATOM     19  N   UNL     1      34.307 -17.590 -24.755  0.00  0.00    -0.239 NA
ATOM     20  C   UNL     1      34.782 -15.779 -23.246  0.00  0.00    +0.158 C 
ATOM     21  C   UNL     1      35.047 -16.669 -22.222  0.00  0.00    +0.040 C 
ATOM     22  C   UNL     1      34.420 -16.271 -24.481  0.00  0.00    +0.136 C 
ATOM     23  C   UNL     1      34.941 -18.035 -22.466  0.00  0.00    +0.022 C 
ATOM     24  C   UNL     1      34.571 -18.439 -23.738  0.00  0.00    +0.099 C 
BRANCH  23  25
ATOM     25  C   UNL     1      35.210 -19.005 -21.420  0.00  0.00    +0.002 C 
ATOM     26  C   UNL     1      34.322 -19.913 -20.946  0.00  0.00    +0.000 C 
BRANCH  26  28
ATOM     27  N   UNL     1      35.126 -22.791 -17.925  0.00  0.00    -0.242 NA
ATOM     28  C   UNL     1      34.601 -20.910 -19.897  0.00  0.00    +0.003 C 
ATOM     29  C   UNL     1      33.561 -21.654 -19.375  0.00  0.00    +0.021 C 
ATOM     30  C   UNL     1      35.897 -21.085 -19.455  0.00  0.00    +0.021 C 
ATOM     31  C   UNL     1      33.875 -22.579 -18.393  0.00  0.00    +0.099 C 
ATOM     32  C   UNL     1      36.107 -22.036 -18.469  0.00  0.00    +0.099 C 
ENDBRANCH  26  28
ENDBRANCH  23  25
ENDBRANCH  18  20
ENDBRANCH  17  18
ENDBRANCH   1  17
TORSDOF 8
ENDMDL
MODEL 3
REMARK VINA RESULT:     -11.4      1.745      2.490
REMARK  Name = 6914613
REMARK  8 active torsions:
REMARK  status: ('A' for Active; 'I' for Inactive)
REMARK    1  A    between atoms: C_1  and  N_2
REMARK    2  A    between atoms: C_1  and  C_6
REMARK    3  A    between atoms: C_1  and  C_17
REMARK    4  A    between atoms: C_6  and  C_8
REMARK    5  A    between atoms: C_17  and  O_18
REMARK    6  A    between atoms: O_18  and  C_20
REMARK    7  A    between atoms: C_23  and  C_25
REMARK    8  A    between atoms: C_26  and  C_28
REMARK                            x       y       z     vdW  Elec       q    Type
REMARK                         _______ _______ _______ _____ _____    ______ ____
ROOT
ATOM      1  C   UNL     1      33.053 -12.852 -23.144  0.00  0.00    -0.017 C 
ENDROOT
BRANCH   1   2
ATOM      2  N   UNL     1      33.047 -13.283 -21.742  0.00  0.00    +0.384 N 
ATOM      3  H   UNL     1      33.677 -12.691 -21.202  0.00  0.00    -0.089 HD
ATOM      4  H   UNL     1      33.357 -14.253 -21.683  0.00  0.00    -0.089 HD
ATOM      5  H   UNL     1      32.101 -13.205 -21.367  0.00  0.00    -0.089 HD
ENDBRANCH   1   2
BRANCH   1   6
ATOM      6  C   UNL     1      33.933 -11.583 -23.290  0.00  0.00    +0.009 C 
BRANCH   6   8
ATOM      7  N   UNL     1      31.566  -8.847 -22.800  0.00  0.00    -0.312 N 
ATOM      8  C   UNL     1      33.199 -10.309 -23.147  0.00  0.00    -0.008 C 
ATOM      9  C   UNL     1      33.735  -8.999 -23.300  0.00  0.00    +0.011 C 
ATOM     10  C   UNL     1      32.690  -8.100 -23.077  0.00  0.00    +0.048 C 
ATOM     11  C   UNL     1      31.864 -10.182 -22.840  0.00  0.00    +0.058 C 
ATOM     12  C   UNL     1      35.012  -8.491 -23.609  0.00  0.00    +0.001 C 
ATOM     13  C   UNL     1      32.858  -6.713 -23.147  0.00  0.00    +0.015 C 
ATOM     14  C   UNL     1      35.196  -7.105 -23.682  0.00  0.00    +0.000 C 
ATOM     15  C   UNL     1      34.135  -6.233 -23.455  0.00  0.00    +0.001 C 
ATOM     16  H   UNL     1      30.677  -8.473 -22.602  0.00  0.00    +0.152 HD
ENDBRANCH   6   8
ENDBRANCH   1   6
BRANCH   1  17
ATOM     17  C   UNL     1      33.519 -14.026 -24.015  0.00  0.00    +0.184 C 
BRANCH  17  18
ATOM     18  O   UNL     1      34.607 -14.724 -23.423  0.00  0.00    -0.476 OA
BRANCH  18  20
ATOM     19  N   UNL     1      34.201 -18.054 -24.849  0.00  0.00    -0.239 NA
ATOM     20  C   UNL     1      34.586 -16.092 -23.512  0.00  0.00    +0.158 C 
ATOM     21  C   UNL     1      34.903 -16.871 -22.415  0.00  0.00    +0.040 C 
ATOM     22  C   UNL     1      34.244 -16.710 -24.694  0.00  0.00    +0.136 C 
ATOM     23  C   UNL     1      34.871 -18.256 -22.535  0.00  0.00    +0.022 C 
ATOM     24  C   UNL     1      34.516 -18.793 -23.762  0.00  0.00    +0.099 C 
BRANCH  23  25
ATOM     25  C   UNL     1      35.197 -19.113 -21.409  0.00  0.00    +0.002 C 
ATOM     26  C   UNL     1      34.454 -20.164 -20.983  0.00  0.00    +0.000 C 
BRANCH  26  28
ATOM     27  N   UNL     1      35.435 -22.703 -17.720  0.00  0.00    -0.242 NA
ATOM     28  C   UNL     1      34.794 -21.045 -19.852  0.00  0.00    +0.003 C 
ATOM     29  C   UNL     1      36.103 -21.120 -19.420  0.00  0.00    +0.021 C 
ATOM     30  C   UNL     1      33.798 -21.782 -19.241  0.00  0.00    +0.021 C 
ATOM     31  C   UNL     1      36.372 -21.961 -18.353  0.00  0.00    +0.099 C 
ATOM     32  C   UNL     1      34.169 -22.593 -18.182  0.00  0.00    +0.099 C 
ENDBRANCH  26  28
ENDBRANCH  23  25
ENDBRANCH  18  20
ENDBRANCH  17  18
ENDBRANCH   1  17
TORSDOF 8
ENDMDL
MODEL 4
REMARK VINA RESULT:     -11.2      3.400      6.933
REMARK  Name = 6914613
REMARK  8 active torsions:
REMARK  status: ('A' for Active; 'I' for Inactive)
REMARK    1  A    between atoms: C_1  and  N_2
REMARK    2  A    between atoms: C_1  and  C_6
REMARK    3  A    between atoms: C_1  and  C_17
REMARK    4  A    between atoms: C_6  and  C_8
REMARK    5  A    between atoms: C_17  and  O_18
REMARK    6  A    between atoms: O_18  and  C_20
REMARK    7  A    between atoms: C_23  and  C_25
REMARK    8  A    between atoms: C_26  and  C_28
REMARK                            x       y       z     vdW  Elec       q    Type
REMARK                         _______ _______ _______ _____ _____    ______ ____
ROOT
ATOM      1  C   UNL     1      35.481 -18.998 -21.108  0.00  0.00    -0.017 C 
ENDROOT
BRANCH   1   2
ATOM      2  N   UNL     1      36.842 -19.027 -20.559  0.00  0.00    +0.384 N 
ATOM      3  H   UNL     1      37.475 -18.543 -21.196  0.00  0.00    -0.089 HD
ATOM      4  H   UNL     1      37.144 -19.995 -20.450  0.00  0.00    -0.089 HD
ATOM      5  H   UNL     1      36.851 -18.563 -19.651  0.00  0.00    -0.089 HD
ENDBRANCH   1   2
BRANCH   1   6
ATOM      6  C   UNL     1      35.550 -18.848 -22.651  0.00  0.00    +0.009 C 
BRANCH   6   8
ATOM      7  N   UNL     1      34.205 -16.032 -24.547  0.00  0.00    -0.312 N 
ATOM      8  C   UNL     1      35.005 -17.576 -23.167  0.00  0.00    -0.008 C 
ATOM      9  C   UNL     1      34.733 -16.401 -22.410  0.00  0.00    +0.011 C 
ATOM     10  C   UNL     1      34.231 -15.448 -23.300  0.00  0.00    +0.048 C 
ATOM     11  C   UNL     1      34.670 -17.318 -24.476  0.00  0.00    +0.058 C 
ATOM     12  C   UNL     1      34.865 -16.056 -21.051  0.00  0.00    +0.001 C 
ATOM     13  C   UNL     1      33.854 -14.163 -22.896  0.00  0.00    +0.015 C 
ATOM     14  C   UNL     1      34.491 -14.774 -20.632  0.00  0.00    +0.000 C 
ATOM     15  C   UNL     1      33.994 -13.844 -21.542  0.00  0.00    +0.001 C 
ATOM     16  H   UNL     1      33.895 -15.590 -25.370  0.00  0.00    +0.152 HD
ENDBRANCH   6   8
ENDBRANCH   1   6
BRANCH   1  17
ATOM     17  C   UNL     1      34.740 -20.260 -20.647  0.00  0.00    +0.184 C 
BRANCH  17  18
ATOM     18  O   UNL     1      35.641 -21.293 -20.267  0.00  0.00    -0.476 OA
BRANCH  18  20
ATOM     19  N   UNL     1      36.328 -22.475 -16.888  0.00  0.00    -0.239 NA
ATOM     20  C   UNL     1      35.439 -21.868 -19.039  0.00  0.00    +0.158 C 
ATOM     21  C   UNL     1      34.209 -22.407 -18.710  0.00  0.00    +0.040 C 
ATOM     22  C   UNL     1      36.459 -21.920 -18.115  0.00  0.00    +0.136 C 
ATOM     23  C   UNL     1      34.035 -22.986 -17.458  0.00  0.00    +0.022 C 
ATOM     24  C   UNL     1      35.116 -22.995 -16.592  0.00  0.00    +0.099 C 
BRANCH  23  25
ATOM     25  C   UNL     1      32.761 -23.565 -17.071  0.00  0.00    +0.002 C 
ATOM     26  C   UNL     1      31.951 -23.093 -16.091  0.00  0.00    +0.000 C 
BRANCH  26  28
ATOM     27  N   UNL     1      28.196 -24.751 -14.993  0.00  0.00    -0.242 NA
ATOM     28  C   UNL     1      30.649 -23.669 -15.711  0.00  0.00    +0.003 C 
ATOM     29  C   UNL     1      30.612 -24.815 -14.942  0.00  0.00    +0.021 C 
ATOM     30  C   UNL     1      29.486 -23.052 -16.130  0.00  0.00    +0.021 C 
ATOM     31  C   UNL     1      29.363 -25.315 -14.610  0.00  0.00    +0.099 C 
ATOM     32  C   UNL     1      28.288 -23.631 -15.745  0.00  0.00    +0.099 C 
ENDBRANCH  26  28
ENDBRANCH  23  25
ENDBRANCH  18  20
ENDBRANCH  17  18
ENDBRANCH   1  17
TORSDOF 8
ENDMDL
MODEL 5
REMARK VINA RESULT:     -11.1      1.506     10.019
REMARK  Name = 6914613
REMARK  8 active torsions:
REMARK  status: ('A' for Active; 'I' for Inactive)
REMARK    1  A    between atoms: C_1  and  N_2
REMARK    2  A    between atoms: C_1  and  C_6
REMARK    3  A    between atoms: C_1  and  C_17
REMARK    4  A    between atoms: C_6  and  C_8
REMARK    5  A    between atoms: C_17  and  O_18
REMARK    6  A    between atoms: O_18  and  C_20
REMARK    7  A    between atoms: C_23  and  C_25
REMARK    8  A    between atoms: C_26  and  C_28
REMARK                            x       y       z     vdW  Elec       q    Type
REMARK                         _______ _______ _______ _____ _____    ______ ____
ROOT
ATOM      1  C   UNL     1      34.761 -19.615 -21.270  0.00  0.00    -0.017 C 
ENDROOT
BRANCH   1   2
ATOM      2  N   UNL     1      34.761 -20.144 -22.639  0.00  0.00    +0.384 N 
ATOM      3  H   UNL     1      33.908 -20.682 -22.796  0.00  0.00    -0.089 HD
ATOM      4  H   UNL     1      35.572 -20.748 -22.771  0.00  0.00    -0.089 HD
ATOM      5  H   UNL     1      34.802 -19.370 -23.302  0.00  0.00    -0.089 HD
ENDBRANCH   1   2
BRANCH   1   6
ATOM      6  C   UNL     1      35.560 -20.573 -20.348  0.00  0.00    +0.009 C 
BRANCH   6   8
ATOM      7  N   UNL     1      32.988 -22.475 -18.587  0.00  0.00    -0.312 N 
ATOM      8  C   UNL     1      34.726 -21.392 -19.446  0.00  0.00    -0.008 C 
ATOM      9  C   UNL     1      35.140 -22.003 -18.228  0.00  0.00    +0.011 C 
ATOM     10  C   UNL     1      34.031 -22.676 -17.710  0.00  0.00    +0.048 C 
ATOM     11  C   UNL     1      33.399 -21.701 -19.640  0.00  0.00    +0.058 C 
ATOM     12  C   UNL     1      36.354 -22.047 -17.516  0.00  0.00    +0.001 C 
ATOM     13  C   UNL     1      34.076 -23.394 -16.510  0.00  0.00    +0.015 C 
ATOM     14  C   UNL     1      36.415 -22.762 -16.314  0.00  0.00    +0.000 C 
ATOM     15  C   UNL     1      35.292 -23.424 -15.821  0.00  0.00    +0.001 C 
ATOM     16  H   UNL     1      32.079 -22.836 -18.474  0.00  0.00    +0.152 HD
ENDBRANCH   6   8
ENDBRANCH   1   6
BRANCH   1  17
ATOM     17  C   UNL     1      35.314 -18.185 -21.298  0.00  0.00    +0.184 C 
BRANCH  17  18
ATOM     18  O   UNL     1      35.742 -17.809 -22.600  0.00  0.00    -0.476 OA
BRANCH  18  20
ATOM     19  N   UNL     1      33.801 -16.200 -25.232  0.00  0.00    -0.239 NA
ATOM     20  C   UNL     1      34.990 -16.865 -23.250  0.00  0.00    +0.158 C 
ATOM     21  C   UNL     1      34.669 -15.673 -22.628  0.00  0.00    +0.040 C 
ATOM     22  C   UNL     1      34.544 -17.089 -24.534  0.00  0.00    +0.136 C 
ATOM     23  C   UNL     1      33.906 -14.733 -23.313  0.00  0.00    +0.022 C 
ATOM     24  C   UNL     1      33.501 -15.043 -24.601  0.00  0.00    +0.099 C 
BRANCH  23  25
ATOM     25  C   UNL     1      33.546 -13.469 -22.698  0.00  0.00    +0.002 C 
ATOM     26  C   UNL     1      32.439 -13.249 -21.948  0.00  0.00    +0.000 C 
BRANCH  26  28
ATOM     27  N   UNL     1      31.416  -9.561 -20.102  0.00  0.00    -0.242 NA
ATOM     28  C   UNL     1      32.083 -11.970 -21.308  0.00  0.00    +0.003 C 
ATOM     29  C   UNL     1      31.922 -11.919 -19.938  0.00  0.00    +0.021 C 
ATOM     30  C   UNL     1      31.917 -10.843 -22.089  0.00  0.00    +0.021 C 
ATOM     31  C   UNL     1      31.590 -10.693 -19.384  0.00  0.00    +0.099 C 
ATOM     32  C   UNL     1      31.585  -9.666 -21.439  0.00  0.00    +0.099 C 
ENDBRANCH  26  28
ENDBRANCH  23  25
ENDBRANCH  18  20
ENDBRANCH  17  18
ENDBRANCH   1  17
TORSDOF 8
ENDMDL
MODEL 6
REMARK VINA RESULT:     -11.0      3.672      7.029
REMARK  Name = 6914613
REMARK  8 active torsions:
REMARK  status: ('A' for Active; 'I' for Inactive)
REMARK    1  A    between atoms: C_1  and  N_2
REMARK    2  A    between atoms: C_1  and  C_6
REMARK    3  A    between atoms: C_1  and  C_17
REMARK    4  A    between atoms: C_6  and  C_8
REMARK    5  A    between atoms: C_17  and  O_18
REMARK    6  A    between atoms: O_18  and  C_20
REMARK    7  A    between atoms: C_23  and  C_25
REMARK    8  A    between atoms: C_26  and  C_28
REMARK                            x       y       z     vdW  Elec       q    Type
REMARK                         _______ _______ _______ _____ _____    ______ ____
ROOT
ATOM      1  C   UNL     1      35.449 -19.025 -21.120  0.00  0.00    -0.017 C 
ENDROOT
BRANCH   1   2
ATOM      2  N   UNL     1      36.759 -19.099 -20.465  0.00  0.00    +0.384 N 
ATOM      3  H   UNL     1      36.831 -19.976 -19.949  0.00  0.00    -0.089 HD
ATOM      4  H   UNL     1      36.862 -18.316 -19.819  0.00  0.00    -0.089 HD
ATOM      5  H   UNL     1      37.495 -19.058 -21.170  0.00  0.00    -0.089 HD
ENDBRANCH   1   2
BRANCH   1   6
ATOM      6  C   UNL     1      35.645 -18.789 -22.641  0.00  0.00    +0.009 C 
BRANCH   6   8
ATOM      7  N   UNL     1      34.179 -16.020 -24.517  0.00  0.00    -0.312 N 
ATOM      8  C   UNL     1      35.050 -17.537 -23.148  0.00  0.00    -0.008 C 
ATOM      9  C   UNL     1      34.743 -16.373 -22.386  0.00  0.00    +0.011 C 
ATOM     10  C   UNL     1      34.198 -15.437 -23.268  0.00  0.00    +0.048 C 
ATOM     11  C   UNL     1      34.692 -17.289 -24.453  0.00  0.00    +0.058 C 
ATOM     12  C   UNL     1      34.878 -16.026 -21.028  0.00  0.00    +0.001 C 
ATOM     13  C   UNL     1      33.779 -14.167 -22.858  0.00  0.00    +0.015 C 
ATOM     14  C   UNL     1      34.463 -14.759 -20.603  0.00  0.00    +0.000 C 
ATOM     15  C   UNL     1      33.923 -13.846 -21.505  0.00  0.00    +0.001 C 
ATOM     16  H   UNL     1      33.845 -15.587 -25.335  0.00  0.00    +0.152 HD
ENDBRANCH   6   8
ENDBRANCH   1   6
BRANCH   1  17
ATOM     17  C   UNL     1      34.664 -20.302 -20.793  0.00  0.00    +0.184 C 
BRANCH  17  18
ATOM     18  O   UNL     1      35.417 -21.191 -19.978  0.00  0.00    -0.476 OA
BRANCH  18  20
ATOM     19  N   UNL     1      32.637 -22.672 -18.145  0.00  0.00    -0.239 NA
ATOM     20  C   UNL     1      34.734 -21.854 -18.992  0.00  0.00    +0.158 C 
ATOM     21  C   UNL     1      35.402 -22.353 -17.889  0.00  0.00    +0.040 C 
ATOM     22  C   UNL     1      33.370 -22.030 -19.083  0.00  0.00    +0.136 C 
ATOM     23  C   UNL     1      34.681 -23.019 -16.904  0.00  0.00    +0.022 C 
ATOM     24  C   UNL     1      33.313 -23.150 -17.078  0.00  0.00    +0.099 C 
BRANCH  23  25
ATOM     25  C   UNL     1      35.342 -23.559 -15.729  0.00  0.00    +0.002 C 
ATOM     26  C   UNL     1      34.741 -24.288 -14.758  0.00  0.00    +0.000 C 
BRANCH  26  28
ATOM     27  N   UNL     1      36.688 -25.914 -11.348  0.00  0.00    -0.242 NA
ATOM     28  C   UNL     1      35.416 -24.853 -13.575  0.00  0.00    +0.003 C 
ATOM     29  C   UNL     1      36.452 -25.748 -13.748  0.00  0.00    +0.021 C 
ATOM     30  C   UNL     1      35.000 -24.477 -12.313  0.00  0.00    +0.021 C 
ATOM     31  C   UNL     1      37.055 -26.249 -12.606  0.00  0.00    +0.099 C 
ATOM     32  C   UNL     1      35.667 -25.034 -11.235  0.00  0.00    +0.099 C 
ENDBRANCH  26  28
ENDBRANCH  23  25
ENDBRANCH  18  20
ENDBRANCH  17  18
ENDBRANCH   1  17
TORSDOF 8
ENDMDL
MODEL 7
REMARK VINA RESULT:     -11.0      3.656      7.018
REMARK  Name = 6914613
REMARK  8 active torsions:
REMARK  status: ('A' for Active; 'I' for Inactive)
REMARK    1  A    between atoms: C_1  and  N_2
REMARK    2  A    between atoms: C_1  and  C_6
REMARK    3  A    between atoms: C_1  and  C_17
REMARK    4  A    between atoms: C_6  and  C_8
REMARK    5  A    between atoms: C_17  and  O_18
REMARK    6  A    between atoms: O_18  and  C_20
REMARK    7  A    between atoms: C_23  and  C_25
REMARK    8  A    between atoms: C_26  and  C_28
REMARK                            x       y       z     vdW  Elec       q    Type
REMARK                         _______ _______ _______ _____ _____    ______ ____
ROOT
ATOM      1  C   UNL     1      35.632 -18.832 -20.948  0.00  0.00    -0.017 C 
ENDROOT
BRANCH   1   2
ATOM      2  N   UNL     1      37.065 -19.055 -20.727  0.00  0.00    +0.384 N 
ATOM      3  H   UNL     1      37.236 -20.050 -20.582  0.00  0.00    -0.089 HD
ATOM      4  H   UNL     1      37.367 -18.536 -19.902  0.00  0.00    -0.089 HD
ATOM      5  H   UNL     1      37.589 -18.735 -21.541  0.00  0.00    -0.089 HD
ENDBRANCH   1   2
BRANCH   1   6
ATOM      6  C   UNL     1      35.426 -18.104 -22.303  0.00  0.00    +0.009 C 
BRANCH   6   8
ATOM      7  N   UNL     1      34.394 -14.740 -21.329  0.00  0.00    -0.312 N 
ATOM      8  C   UNL     1      34.941 -16.715 -22.184  0.00  0.00    -0.008 C 
ATOM      9  C   UNL     1      34.421 -15.905 -23.233  0.00  0.00    +0.011 C 
ATOM     10  C   UNL     1      34.086 -14.671 -22.670  0.00  0.00    +0.048 C 
ATOM     11  C   UNL     1      34.912 -15.971 -21.026  0.00  0.00    +0.058 C 
ATOM     12  C   UNL     1      34.203 -16.104 -24.610  0.00  0.00    +0.001 C 
ATOM     13  C   UNL     1      33.541 -13.622 -23.419  0.00  0.00    +0.015 C 
ATOM     14  C   UNL     1      33.659 -15.063 -25.372  0.00  0.00    +0.000 C 
ATOM     15  C   UNL     1      33.334 -13.843 -24.784  0.00  0.00    +0.001 C 
ATOM     16  H   UNL     1      34.262 -14.009 -20.683  0.00  0.00    +0.152 HD
ENDBRANCH   6   8
ENDBRANCH   1   6
BRANCH   1  17
ATOM     17  C   UNL     1      34.907 -20.181 -20.859  0.00  0.00    +0.184 C 
BRANCH  17  18
ATOM     18  O   UNL     1      35.614 -21.108 -20.046  0.00  0.00    -0.476 OA
BRANCH  18  20
ATOM     19  N   UNL     1      32.765 -22.640 -18.366  0.00  0.00    -0.239 NA
ATOM     20  C   UNL     1      34.887 -21.774 -19.092  0.00  0.00    +0.158 C 
ATOM     21  C   UNL     1      35.497 -22.232 -17.939  0.00  0.00    +0.040 C 
ATOM     22  C   UNL     1      33.539 -21.993 -19.267  0.00  0.00    +0.136 C 
ATOM     23  C   UNL     1      34.734 -22.902 -16.988  0.00  0.00    +0.022 C 
ATOM     24  C   UNL     1      33.384 -23.078 -17.248  0.00  0.00    +0.099 C 
BRANCH  23  25
ATOM     25  C   UNL     1      35.332 -23.399 -15.763  0.00  0.00    +0.002 C 
ATOM     26  C   UNL     1      34.881 -24.456 -15.043  0.00  0.00    +0.000 C 
BRANCH  26  28
ATOM     27  N   UNL     1      36.663 -25.950 -11.487  0.00  0.00    -0.242 NA
ATOM     28  C   UNL     1      35.500 -24.973 -13.810  0.00  0.00    +0.003 C 
ATOM     29  C   UNL     1      35.023 -24.553 -12.584  0.00  0.00    +0.021 C 
ATOM     30  C   UNL     1      36.546 -25.870 -13.900  0.00  0.00    +0.021 C 
ATOM     31  C   UNL     1      35.637 -25.070 -11.455  0.00  0.00    +0.099 C 
ATOM     32  C   UNL     1      37.092 -26.328 -12.712  0.00  0.00    +0.099 C 
ENDBRANCH  26  28
ENDBRANCH  23  25
ENDBRANCH  18  20
ENDBRANCH  17  18
ENDBRANCH   1  17
TORSDOF 8
ENDMDL
MODEL 8
REMARK VINA RESULT:     -10.9      1.586      9.968
REMARK  Name = 6914613
REMARK  8 active torsions:
REMARK  status: ('A' for Active; 'I' for Inactive)
REMARK    1  A    between atoms: C_1  and  N_2
REMARK    2  A    between atoms: C_1  and  C_6
REMARK    3  A    between atoms: C_1  and  C_17
REMARK    4  A    between atoms: C_6  and  C_8
REMARK    5  A    between atoms: C_17  and  O_18
REMARK    6  A    between atoms: O_18  and  C_20
REMARK    7  A    between atoms: C_23  and  C_25
REMARK    8  A    between atoms: C_26  and  C_28
REMARK                            x       y       z     vdW  Elec       q    Type
REMARK                         _______ _______ _______ _____ _____    ______ ____
ROOT
ATOM      1  C   UNL     1      35.451 -19.556 -21.446  0.00  0.00    -0.017 C 
ENDROOT
BRANCH   1   2
ATOM      2  N   UNL     1      35.641 -18.396 -20.568  0.00  0.00    +0.384 N 
ATOM      3  H   UNL     1      36.107 -18.691 -19.710  0.00  0.00    -0.089 HD
ATOM      4  H   UNL     1      34.734 -17.990 -20.340  0.00  0.00    -0.089 HD
ATOM      5  H   UNL     1      36.214 -17.700 -21.045  0.00  0.00    -0.089 HD
ENDBRANCH   1   2
BRANCH   1   6
ATOM      6  C   UNL     1      34.511 -20.578 -20.754  0.00  0.00    +0.009 C 
BRANCH   6   8
ATOM      7  N   UNL     1      36.568 -21.987 -18.087  0.00  0.00    -0.312 N 
ATOM      8  C   UNL     1      35.096 -21.247 -19.575  0.00  0.00    -0.008 C 
ATOM      9  C   UNL     1      34.392 -21.987 -18.583  0.00  0.00    +0.011 C 
ATOM     10  C   UNL     1      35.339 -22.439 -17.661  0.00  0.00    +0.048 C 
ATOM     11  C   UNL     1      36.431 -21.265 -19.243  0.00  0.00    +0.058 C 
ATOM     12  C   UNL     1      33.038 -22.316 -18.380  0.00  0.00    +0.001 C 
ATOM     13  C   UNL     1      34.997 -23.207 -16.542  0.00  0.00    +0.015 C 
ATOM     14  C   UNL     1      32.681 -23.083 -17.265  0.00  0.00    +0.000 C 
ATOM     15  C   UNL     1      33.647 -23.521 -16.362  0.00  0.00    +0.001 C 
ATOM     16  H   UNL     1      37.422 -22.157 -17.626  0.00  0.00    +0.152 HD
ENDBRANCH   6   8
ENDBRANCH   1   6
BRANCH   1  17
ATOM     17  C   UNL     1      34.931 -19.064 -22.803  0.00  0.00    +0.184 C 
BRANCH  17  18
ATOM     18  O   UNL     1      35.602 -17.887 -23.231  0.00  0.00    -0.476 OA
BRANCH  18  20
ATOM     19  N   UNL     1      33.454 -15.935 -25.436  0.00  0.00    -0.239 NA
ATOM     20  C   UNL     1      34.818 -16.857 -23.683  0.00  0.00    +0.158 C 
ATOM     21  C   UNL     1      34.603 -15.741 -22.895  0.00  0.00    +0.040 C 
ATOM     22  C   UNL     1      34.236 -16.916 -24.929  0.00  0.00    +0.136 C 
ATOM     23  C   UNL     1      33.804 -14.712 -23.381  0.00  0.00    +0.022 C 
ATOM     24  C   UNL     1      33.259 -14.856 -24.646  0.00  0.00    +0.099 C 
BRANCH  23  25
ATOM     25  C   UNL     1      33.551 -13.522 -22.587  0.00  0.00    +0.002 C 
ATOM     26  C   UNL     1      32.325 -13.039 -22.268  0.00  0.00    +0.000 C 
BRANCH  26  28
ATOM     27  N   UNL     1      31.587  -9.589 -19.900  0.00  0.00    -0.242 NA
ATOM     28  C   UNL     1      32.068 -11.843 -21.447  0.00  0.00    +0.003 C 
ATOM     29  C   UNL     1      31.951 -11.972 -20.078  0.00  0.00    +0.021 C 
ATOM     30  C   UNL     1      31.950 -10.611 -22.060  0.00  0.00    +0.021 C 
ATOM     31  C   UNL     1      31.711 -10.818 -19.350  0.00  0.00    +0.099 C 
ATOM     32  C   UNL     1      31.710  -9.518 -21.245  0.00  0.00    +0.099 C 
ENDBRANCH  26  28
ENDBRANCH  23  25
ENDBRANCH  18  20
ENDBRANCH  17  18
ENDBRANCH   1  17
TORSDOF 8
ENDMDL
MODEL 9
REMARK VINA RESULT:     -10.8      1.676      2.027
REMARK  Name = 6914613
REMARK  8 active torsions:
REMARK  status: ('A' for Active; 'I' for Inactive)
REMARK    1  A    between atoms: C_1  and  N_2
REMARK    2  A    between atoms: C_1  and  C_6
REMARK    3  A    between atoms: C_1  and  C_17
REMARK    4  A    between atoms: C_6  and  C_8
REMARK    5  A    between atoms: C_17  and  O_18
REMARK    6  A    between atoms: O_18  and  C_20
REMARK    7  A    between atoms: C_23  and  C_25
REMARK    8  A    between atoms: C_26  and  C_28
REMARK                            x       y       z     vdW  Elec       q    Type
REMARK                         _______ _______ _______ _____ _____    ______ ____
ROOT
ATOM      1  C   UNL     1      32.971 -11.944 -23.309  0.00  0.00    -0.017 C 
ENDROOT
BRANCH   1   2
ATOM      2  N   UNL     1      32.514 -12.450 -22.010  0.00  0.00    +0.384 N 
ATOM      3  H   UNL     1      32.624 -11.722 -21.304  0.00  0.00    -0.089 HD
ATOM      4  H   UNL     1      33.069 -13.265 -21.748  0.00  0.00    -0.089 HD
ATOM      5  H   UNL     1      31.531 -12.715 -22.075  0.00  0.00    -0.089 HD
ENDBRANCH   1   2
BRANCH   1   6
ATOM      6  C   UNL     1      33.640 -10.557 -23.116  0.00  0.00    +0.009 C 
BRANCH   6   8
ATOM      7  N   UNL     1      31.229  -7.986 -24.069  0.00  0.00    -0.312 N 
ATOM      8  C   UNL     1      32.718  -9.410 -23.243  0.00  0.00    -0.008 C 
ATOM      9  C   UNL     1      32.476  -8.403 -22.266  0.00  0.00    +0.011 C 
ATOM     10  C   UNL     1      31.538  -7.522 -22.809  0.00  0.00    +0.048 C 
ATOM     11  C   UNL     1      31.937  -9.126 -24.340  0.00  0.00    +0.058 C 
ATOM     12  C   UNL     1      32.967  -8.156 -20.970  0.00  0.00    +0.001 C 
ATOM     13  C   UNL     1      31.064  -6.403 -22.117  0.00  0.00    +0.015 C 
ATOM     14  C   UNL     1      32.502  -7.040 -20.265  0.00  0.00    +0.000 C 
ATOM     15  C   UNL     1      31.566  -6.178 -20.831  0.00  0.00    +0.001 C 
ATOM     16  H   UNL     1      30.590  -7.559 -24.685  0.00  0.00    +0.152 HD
ENDBRANCH   6   8
ENDBRANCH   1   6
BRANCH   1  17
ATOM     17  C   UNL     1      33.897 -12.989 -23.944  0.00  0.00    +0.184 C 
BRANCH  17  18
ATOM     18  O   UNL     1      34.460 -13.858 -22.969  0.00  0.00    -0.476 OA
BRANCH  18  20
ATOM     19  N   UNL     1      34.379 -16.894 -24.984  0.00  0.00    -0.239 NA
ATOM     20  C   UNL     1      34.541 -15.186 -23.298  0.00  0.00    +0.158 C 
ATOM     21  C   UNL     1      34.846 -16.130 -22.336  0.00  0.00    +0.040 C 
ATOM     22  C   UNL     1      34.317 -15.601 -24.593  0.00  0.00    +0.136 C 
ATOM     23  C   UNL     1      34.919 -17.471 -22.700  0.00  0.00    +0.022 C 
ATOM     24  C   UNL     1      34.679 -17.797 -24.024  0.00  0.00    +0.099 C 
BRANCH  23  25
ATOM     25  C   UNL     1      35.237 -18.496 -21.721  0.00  0.00    +0.002 C 
ATOM     26  C   UNL     1      34.386 -19.461 -21.294  0.00  0.00    +0.000 C 
BRANCH  26  28
ATOM     27  N   UNL     1      35.331 -22.492 -18.470  0.00  0.00    -0.242 NA
ATOM     28  C   UNL     1      34.714 -20.513 -20.315  0.00  0.00    +0.003 C 
ATOM     29  C   UNL     1      36.034 -20.738 -19.978  0.00  0.00    +0.021 C 
ATOM     30  C   UNL     1      33.696 -21.256 -19.751  0.00  0.00    +0.021 C 
ATOM     31  C   UNL     1      36.289 -21.737 -19.052  0.00  0.00    +0.099 C 
ATOM     32  C   UNL     1      34.056 -22.231 -18.836  0.00  0.00    +0.099 C 
ENDBRANCH  26  28
ENDBRANCH  23  25
ENDBRANCH  18  20
ENDBRANCH  17  18
ENDBRANCH   1  17
TORSDOF 8
ENDMDL
