MODEL 1
REMARK VINA RESULT:     -11.6      0.000      0.000
REMARK  Name = 447649
REMARK  5 active torsions:
REMARK  status: ('A' for Active; 'I' for Inactive)
REMARK    1  A    between atoms: N_5  and  C_14
REMARK    2  A    between atoms: C_6  and  O_22
REMARK    3  A    between atoms: C_19  and  O_20
REMARK    4  A    between atoms: O_22  and  C_23
REMARK    5  A    between atoms: C_23  and  C_24
REMARK                            x       y       z     vdW  Elec       q    Type
REMARK                         _______ _______ _______ _____ _____    ______ ____
ROOT
ATOM      1  N   UNL     1      33.738 -23.903 -15.286  0.00  0.00    -0.293 NA
ATOM      2  N   UNL     1      37.411 -24.043 -15.180  0.00  0.00    -0.266 NA
ATOM      3  N   UNL     1      34.641 -24.884 -13.243  0.00  0.00    -0.316 NA
ATOM      4  N   UNL     1      37.069 -24.971 -13.183  0.00  0.00    -0.296 N 
ATOM      5  N   UNL     1      32.335 -24.671 -13.575  0.00  0.00    -0.238 N 
ATOM      6  C   UNL     1      34.977 -23.699 -15.786  0.00  0.00    +0.288 C 
ATOM      7  C   UNL     1      36.056 -24.085 -15.019  0.00  0.00    +0.215 C 
ATOM      8  C   UNL     1      35.869 -24.666 -13.772  0.00  0.00    +0.196 C 
ATOM      9  C   UNL     1      33.648 -24.476 -14.062  0.00  0.00    +0.207 C 
ATOM     10  C   UNL     1      37.976 -24.583 -14.056  0.00  0.00    +0.164 C 
ATOM     11  H   UNL     1      37.895 -23.688 -15.962  0.00  0.00    +0.126 HD
ATOM     12  H   UNL     1      37.220 -25.387 -12.304  0.00  0.00    +0.150 HD
ATOM     13  H   UNL     1      32.300 -25.088 -12.684  0.00  0.00    +0.166 HD
ENDROOT
BRANCH   5  14
ATOM     14  C   UNL     1      31.069 -24.388 -14.117  0.00  0.00    +0.059 C 
ATOM     15  C   UNL     1      30.197 -25.429 -14.444  0.00  0.00    +0.018 C 
ATOM     16  C   UNL     1      30.677 -23.065 -14.333  0.00  0.00    +0.018 C 
ATOM     17  C   UNL     1      28.941 -25.148 -14.983  0.00  0.00    +0.038 C 
ATOM     18  C   UNL     1      29.422 -22.784 -14.872  0.00  0.00    +0.038 C 
ATOM     19  C   UNL     1      28.553 -23.825 -15.197  0.00  0.00    +0.134 C 
BRANCH  19  20
ATOM     20  O   UNL     1      27.328 -23.552 -15.721  0.00  0.00    -0.506 OA
ATOM     21  H   UNL     1      27.140 -22.696 -16.052  0.00  0.00    +0.292 HD
ENDBRANCH  19  20
ENDBRANCH   5  14
BRANCH   6  22
ATOM     22  O   UNL     1      35.103 -23.121 -17.026  0.00  0.00    -0.453 OA
BRANCH  22  23
ATOM     23  C   UNL     1      33.923 -22.983 -17.794  0.00  0.00    +0.208 C 
BRANCH  23  24
ATOM     24  C   UNL     1      34.277 -22.271 -19.099  0.00  0.00    +0.044 C 
ATOM     25  C   UNL     1      33.229 -21.201 -19.435  0.00  0.00    +0.004 C 
ATOM     26  C   UNL     1      35.680 -21.655 -19.017  0.00  0.00    +0.004 C 
ATOM     27  C   UNL     1      33.590 -20.440 -20.709  0.00  0.00    +0.000 C 
ATOM     28  C   UNL     1      36.036 -20.892 -20.291  0.00  0.00    +0.000 C 
ATOM     29  C   UNL     1      34.987 -19.836 -20.626  0.00  0.00    +0.000 C 
ENDBRANCH  23  24
ENDBRANCH  22  23
ENDBRANCH   6  22
TORSDOF 5
ENDMDL
MODEL 2
REMARK VINA RESULT:     -11.3      1.047      1.777
REMARK  Name = 447649
REMARK  5 active torsions:
REMARK  status: ('A' for Active; 'I' for Inactive)
REMARK    1  A    between atoms: N_5  and  C_14
REMARK    2  A    between atoms: C_6  and  O_22
REMARK    3  A    between atoms: C_19  and  O_20
REMARK    4  A    between atoms: O_22  and  C_23
REMARK    5  A    between atoms: C_23  and  C_24
REMARK                            x       y       z     vdW  Elec       q    Type
REMARK                         _______ _______ _______ _____ _____    ______ ____
ROOT
ATOM      1  N   UNL     1      33.201 -23.858 -15.050  0.00  0.00    -0.293 NA
ATOM      2  N   UNL     1      36.691 -23.902 -13.889  0.00  0.00    -0.266 NA
ATOM      3  N   UNL     1      33.461 -24.413 -12.689  0.00  0.00    -0.316 NA
ATOM      4  N   UNL     1      35.770 -24.440 -11.932  0.00  0.00    -0.296 N 
ATOM      5  N   UNL     1      31.349 -24.314 -13.690  0.00  0.00    -0.238 N 
ATOM      6  C   UNL     1      34.537 -23.729 -15.209  0.00  0.00    +0.288 C 
ATOM      7  C   UNL     1      35.344 -23.940 -14.111  0.00  0.00    +0.215 C 
ATOM      8  C   UNL     1      34.795 -24.276 -12.881  0.00  0.00    +0.196 C 
ATOM      9  C   UNL     1      32.752 -24.189 -13.816  0.00  0.00    +0.207 C 
ATOM     10  C   UNL     1      36.898 -24.208 -12.571  0.00  0.00    +0.164 C 
ATOM     11  H   UNL     1      37.386 -23.693 -14.556  0.00  0.00    +0.126 HD
ATOM     12  H   UNL     1      35.655 -24.677 -10.984  0.00  0.00    +0.150 HD
ATOM     13  H   UNL     1      31.052 -24.554 -12.783  0.00  0.00    +0.166 HD
ENDROOT
BRANCH   5  14
ATOM     14  C   UNL     1      30.297 -24.164 -14.610  0.00  0.00    +0.059 C 
ATOM     15  C   UNL     1      29.828 -22.889 -14.938  0.00  0.00    +0.018 C 
ATOM     16  C   UNL     1      29.714 -25.287 -15.201  0.00  0.00    +0.018 C 
ATOM     17  C   UNL     1      28.783 -22.740 -15.850  0.00  0.00    +0.038 C 
ATOM     18  C   UNL     1      28.669 -25.138 -16.113  0.00  0.00    +0.038 C 
ATOM     19  C   UNL     1      28.204 -23.864 -16.438  0.00  0.00    +0.134 C 
BRANCH  19  20
ATOM     20  O   UNL     1      27.186 -23.718 -17.329  0.00  0.00    -0.506 OA
ATOM     21  H   UNL     1      27.160 -24.245 -18.103  0.00  0.00    +0.292 HD
ENDBRANCH  19  20
ENDBRANCH   5  14
BRANCH   6  22
ATOM     22  O   UNL     1      35.026 -23.395 -16.449  0.00  0.00    -0.453 OA
BRANCH  22  23
ATOM     23  C   UNL     1      34.093 -23.324 -17.511  0.00  0.00    +0.208 C 
BRANCH  23  24
ATOM     24  C   UNL     1      34.354 -22.042 -18.299  0.00  0.00    +0.044 C 
ATOM     25  C   UNL     1      35.723 -22.100 -18.991  0.00  0.00    +0.004 C 
ATOM     26  C   UNL     1      33.236 -21.796 -19.320  0.00  0.00    +0.004 C 
ATOM     27  C   UNL     1      35.984 -20.850 -19.829  0.00  0.00    +0.000 C 
ATOM     28  C   UNL     1      33.501 -20.547 -20.158  0.00  0.00    +0.000 C 
ATOM     29  C   UNL     1      34.866 -20.605 -20.836  0.00  0.00    +0.000 C 
ENDBRANCH  23  24
ENDBRANCH  22  23
ENDBRANCH   6  22
TORSDOF 5
ENDMDL
MODEL 3
REMARK VINA RESULT:     -11.2      2.026      5.646
REMARK  Name = 447649
REMARK  5 active torsions:
REMARK  status: ('A' for Active; 'I' for Inactive)
REMARK    1  A    between atoms: N_5  and  C_14
REMARK    2  A    between atoms: C_6  and  O_22
REMARK    3  A    between atoms: C_19  and  O_20
REMARK    4  A    between atoms: O_22  and  C_23
REMARK    5  A    between atoms: C_23  and  C_24
REMARK                            x       y       z     vdW  Elec       q    Type
REMARK                         _______ _______ _______ _____ _____    ______ ____
ROOT
ATOM      1  N   UNL     1      32.629 -23.626 -15.615  0.00  0.00    -0.293 NA
ATOM      2  N   UNL     1      29.189 -23.044 -16.778  0.00  0.00    -0.266 NA
ATOM      3  N   UNL     1      30.909 -24.449 -14.094  0.00  0.00    -0.316 NA
ATOM      4  N   UNL     1      28.639 -24.060 -14.872  0.00  0.00    -0.296 N 
ATOM      5  N   UNL     1      33.183 -24.687 -13.602  0.00  0.00    -0.238 N 
ATOM      6  C   UNL     1      31.701 -23.173 -16.487  0.00  0.00    +0.288 C 
ATOM      7  C   UNL     1      30.371 -23.355 -16.169  0.00  0.00    +0.215 C 
ATOM      8  C   UNL     1      30.003 -23.984 -14.988  0.00  0.00    +0.196 C 
ATOM      9  C   UNL     1      32.181 -24.227 -14.487  0.00  0.00    +0.207 C 
ATOM     10  C   UNL     1      28.180 -23.486 -15.965  0.00  0.00    +0.164 C 
ATOM     11  H   UNL     1      29.081 -22.586 -17.644  0.00  0.00    +0.126 HD
ATOM     12  H   UNL     1      28.118 -24.456 -14.136  0.00  0.00    +0.150 HD
ATOM     13  H   UNL     1      32.829 -25.120 -12.792  0.00  0.00    +0.166 HD
ENDROOT
BRANCH   5  14
ATOM     14  C   UNL     1      34.588 -24.644 -13.653  0.00  0.00    +0.059 C 
ATOM     15  C   UNL     1      35.298 -23.848 -12.751  0.00  0.00    +0.018 C 
ATOM     16  C   UNL     1      35.280 -25.396 -14.605  0.00  0.00    +0.018 C 
ATOM     17  C   UNL     1      36.691 -23.804 -12.802  0.00  0.00    +0.038 C 
ATOM     18  C   UNL     1      36.673 -25.352 -14.656  0.00  0.00    +0.038 C 
ATOM     19  C   UNL     1      37.379 -24.557 -13.754  0.00  0.00    +0.134 C 
BRANCH  19  20
ATOM     20  O   UNL     1      38.738 -24.515 -13.803  0.00  0.00    -0.506 OA
ATOM     21  H   UNL     1      39.170 -24.075 -14.508  0.00  0.00    +0.292 HD
ENDBRANCH  19  20
ENDBRANCH   5  14
BRANCH   6  22
ATOM     22  O   UNL     1      32.122 -22.556 -17.640  0.00  0.00    -0.453 OA
BRANCH  22  23
ATOM     23  C   UNL     1      33.367 -22.968 -18.172  0.00  0.00    +0.208 C 
BRANCH  23  24
ATOM     24  C   UNL     1      34.065 -21.747 -18.769  0.00  0.00    +0.044 C 
ATOM     25  C   UNL     1      35.483 -22.104 -19.231  0.00  0.00    +0.004 C 
ATOM     26  C   UNL     1      33.243 -21.166 -19.928  0.00  0.00    +0.004 C 
ATOM     27  C   UNL     1      36.182 -20.912 -19.880  0.00  0.00    +0.000 C 
ATOM     28  C   UNL     1      33.945 -19.976 -20.576  0.00  0.00    +0.000 C 
ATOM     29  C   UNL     1      35.358 -20.333 -21.026  0.00  0.00    +0.000 C 
ENDBRANCH  23  24
ENDBRANCH  22  23
ENDBRANCH   6  22
TORSDOF 5
ENDMDL
MODEL 4
REMARK VINA RESULT:     -11.0      1.967      5.808
REMARK  Name = 447649
REMARK  5 active torsions:
REMARK  status: ('A' for Active; 'I' for Inactive)
REMARK    1  A    between atoms: N_5  and  C_14
REMARK    2  A    between atoms: C_6  and  O_22
REMARK    3  A    between atoms: C_19  and  O_20
REMARK    4  A    between atoms: O_22  and  C_23
REMARK    5  A    between atoms: C_23  and  C_24
REMARK                            x       y       z     vdW  Elec       q    Type
REMARK                         _______ _______ _______ _____ _____    ______ ____
ROOT
ATOM      1  N   UNL     1      34.505 -24.428 -14.987  0.00  0.00    -0.293 NA
ATOM      2  N   UNL     1      31.101 -23.266 -15.757  0.00  0.00    -0.266 NA
ATOM      3  N   UNL     1      33.007 -24.379 -13.062  0.00  0.00    -0.316 NA
ATOM      4  N   UNL     1      30.761 -23.609 -13.581  0.00  0.00    -0.296 N 
ATOM      5  N   UNL     1      35.231 -25.077 -12.857  0.00  0.00    -0.238 N 
ATOM      6  C   UNL     1      33.532 -23.973 -15.808  0.00  0.00    +0.288 C 
ATOM      7  C   UNL     1      32.291 -23.718 -15.263  0.00  0.00    +0.215 C 
ATOM      8  C   UNL     1      32.054 -23.924 -13.910  0.00  0.00    +0.196 C 
ATOM      9  C   UNL     1      34.186 -24.599 -13.682  0.00  0.00    +0.207 C 
ATOM     10  C   UNL     1      30.215 -23.218 -14.714  0.00  0.00    +0.164 C 
ATOM     11  H   UNL     1      30.914 -23.020 -16.692  0.00  0.00    +0.126 HD
ATOM     12  H   UNL     1      30.334 -23.665 -12.696  0.00  0.00    +0.150 HD
ATOM     13  H   UNL     1      34.970 -25.193 -11.915  0.00  0.00    +0.166 HD
ENDROOT
BRANCH   5  14
ATOM     14  C   UNL     1      36.569 -25.416 -13.121  0.00  0.00    +0.059 C 
ATOM     15  C   UNL     1      37.606 -24.650 -12.583  0.00  0.00    +0.018 C 
ATOM     16  C   UNL     1      36.869 -26.520 -13.922  0.00  0.00    +0.018 C 
ATOM     17  C   UNL     1      38.934 -24.986 -12.845  0.00  0.00    +0.038 C 
ATOM     18  C   UNL     1      38.197 -26.856 -14.185  0.00  0.00    +0.038 C 
ATOM     19  C   UNL     1      39.230 -26.090 -13.646  0.00  0.00    +0.134 C 
BRANCH  19  20
ATOM     20  O   UNL     1      40.526 -26.418 -13.900  0.00  0.00    -0.506 OA
ATOM     21  H   UNL     1      41.204 -26.139 -13.318  0.00  0.00    +0.292 HD
ENDBRANCH  19  20
ENDBRANCH   5  14
BRANCH   6  22
ATOM     22  O   UNL     1      33.822 -23.787 -17.138  0.00  0.00    -0.453 OA
BRANCH  22  23
ATOM     23  C   UNL     1      34.898 -22.920 -17.446  0.00  0.00    +0.208 C 
BRANCH  23  24
ATOM     24  C   UNL     1      34.651 -22.316 -18.828  0.00  0.00    +0.044 C 
ATOM     25  C   UNL     1      33.296 -21.598 -18.872  0.00  0.00    +0.004 C 
ATOM     26  C   UNL     1      35.789 -21.361 -19.212  0.00  0.00    +0.004 C 
ATOM     27  C   UNL     1      33.051 -20.941 -20.229  0.00  0.00    +0.000 C 
ATOM     28  C   UNL     1      35.540 -20.704 -20.567  0.00  0.00    +0.000 C 
ATOM     29  C   UNL     1      34.187 -19.999 -20.610  0.00  0.00    +0.000 C 
ENDBRANCH  23  24
ENDBRANCH  22  23
ENDBRANCH   6  22
TORSDOF 5
ENDMDL
MODEL 5
REMARK VINA RESULT:     -11.0      2.529      6.742
REMARK  Name = 447649
REMARK  5 active torsions:
REMARK  status: ('A' for Active; 'I' for Inactive)
REMARK    1  A    between atoms: N_5  and  C_14
REMARK    2  A    between atoms: C_6  and  O_22
REMARK    3  A    between atoms: C_19  and  O_20
REMARK    4  A    between atoms: O_22  and  C_23
REMARK    5  A    between atoms: C_23  and  C_24
REMARK                            x       y       z     vdW  Elec       q    Type
REMARK                         _______ _______ _______ _____ _____    ______ ____
ROOT
ATOM      1  N   UNL     1      35.091 -23.308 -16.644  0.00  0.00    -0.293 NA
ATOM      2  N   UNL     1      34.079 -21.524 -19.697  0.00  0.00    -0.266 NA
ATOM      3  N   UNL     1      36.837 -21.899 -17.602  0.00  0.00    -0.316 NA
ATOM      4  N   UNL     1      36.158 -20.725 -19.619  0.00  0.00    -0.296 N 
ATOM      5  N   UNL     1      37.210 -23.147 -15.659  0.00  0.00    -0.238 N 
ATOM      6  C   UNL     1      34.220 -22.964 -17.619  0.00  0.00    +0.288 C 
ATOM      7  C   UNL     1      34.650 -22.086 -18.591  0.00  0.00    +0.215 C 
ATOM      8  C   UNL     1      35.941 -21.574 -18.565  0.00  0.00    +0.196 C 
ATOM      9  C   UNL     1      36.329 -22.762 -16.696  0.00  0.00    +0.207 C 
ATOM     10  C   UNL     1      35.019 -20.717 -20.280  0.00  0.00    +0.164 C 
ATOM     11  H   UNL     1      33.159 -21.672 -20.017  0.00  0.00    +0.126 HD
ATOM     12  H   UNL     1      36.981 -20.230 -19.834  0.00  0.00    +0.150 HD
ATOM     13  H   UNL     1      38.101 -22.735 -15.722  0.00  0.00    +0.166 HD
ENDROOT
BRANCH   5  14
ATOM     14  C   UNL     1      37.059 -24.006 -14.556  0.00  0.00    +0.059 C 
ATOM     15  C   UNL     1      37.496 -25.331 -14.634  0.00  0.00    +0.018 C 
ATOM     16  C   UNL     1      36.472 -23.540 -13.377  0.00  0.00    +0.018 C 
ATOM     17  C   UNL     1      37.346 -26.183 -13.540  0.00  0.00    +0.038 C 
ATOM     18  C   UNL     1      36.322 -24.393 -12.284  0.00  0.00    +0.038 C 
ATOM     19  C   UNL     1      36.760 -25.714 -12.365  0.00  0.00    +0.134 C 
BRANCH  19  20
ATOM     20  O   UNL     1      36.615 -26.546 -11.298  0.00  0.00    -0.506 OA
ATOM     21  H   UNL     1      36.680 -27.474 -11.413  0.00  0.00    +0.292 HD
ENDBRANCH  19  20
ENDBRANCH   5  14
BRANCH   6  22
ATOM     22  O   UNL     1      32.956 -23.501 -17.596  0.00  0.00    -0.453 OA
BRANCH  22  23
ATOM     23  C   UNL     1      32.046 -22.966 -16.654  0.00  0.00    +0.208 C 
BRANCH  23  24
ATOM     24  C   UNL     1      31.671 -24.067 -15.664  0.00  0.00    +0.044 C 
ATOM     25  C   UNL     1      32.524 -23.967 -14.392  0.00  0.00    +0.004 C 
ATOM     26  C   UNL     1      30.176 -24.005 -15.325  0.00  0.00    +0.004 C 
ATOM     27  C   UNL     1      32.131 -25.027 -13.365  0.00  0.00    +0.000 C 
ATOM     28  C   UNL     1      29.786 -25.064 -14.296  0.00  0.00    +0.000 C 
ATOM     29  C   UNL     1      30.642 -24.967 -13.038  0.00  0.00    +0.000 C 
ENDBRANCH  23  24
ENDBRANCH  22  23
ENDBRANCH   6  22
TORSDOF 5
ENDMDL
MODEL 6
REMARK VINA RESULT:     -10.6      2.476      6.749
REMARK  Name = 447649
REMARK  5 active torsions:
REMARK  status: ('A' for Active; 'I' for Inactive)
REMARK    1  A    between atoms: N_5  and  C_14
REMARK    2  A    between atoms: C_6  and  O_22
REMARK    3  A    between atoms: C_19  and  O_20
REMARK    4  A    between atoms: O_22  and  C_23
REMARK    5  A    between atoms: C_23  and  C_24
REMARK                            x       y       z     vdW  Elec       q    Type
REMARK                         _______ _______ _______ _____ _____    ______ ____
ROOT
ATOM      1  N   UNL     1      33.562 -23.082 -16.019  0.00  0.00    -0.293 NA
ATOM      2  N   UNL     1      32.234 -24.821 -13.063  0.00  0.00    -0.266 NA
ATOM      3  N   UNL     1      31.252 -23.828 -16.255  0.00  0.00    -0.316 NA
ATOM      4  N   UNL     1      30.384 -24.976 -14.296  0.00  0.00    -0.296 N 
ATOM      5  N   UNL     1      32.347 -22.695 -17.984  0.00  0.00    -0.238 N 
ATOM      6  C   UNL     1      33.641 -23.584 -14.767  0.00  0.00    +0.288 C 
ATOM      7  C   UNL     1      32.527 -24.211 -14.249  0.00  0.00    +0.215 C 
ATOM      8  C   UNL     1      31.362 -24.321 -14.997  0.00  0.00    +0.196 C 
ATOM      9  C   UNL     1      32.388 -23.234 -16.677  0.00  0.00    +0.207 C 
ATOM     10  C   UNL     1      30.940 -25.263 -13.137  0.00  0.00    +0.164 C 
ATOM     11  H   UNL     1      32.841 -24.924 -12.294  0.00  0.00    +0.126 HD
ATOM     12  H   UNL     1      29.468 -25.185 -14.591  0.00  0.00    +0.150 HD
ATOM     13  H   UNL     1      31.482 -22.820 -18.437  0.00  0.00    +0.166 HD
ENDROOT
BRANCH   5  14
ATOM     14  C   UNL     1      33.302 -22.018 -18.762  0.00  0.00    +0.059 C 
ATOM     15  C   UNL     1      34.653 -22.363 -18.671  0.00  0.00    +0.018 C 
ATOM     16  C   UNL     1      32.907 -20.998 -19.629  0.00  0.00    +0.018 C 
ATOM     17  C   UNL     1      35.602 -21.690 -19.441  0.00  0.00    +0.038 C 
ATOM     18  C   UNL     1      33.855 -20.325 -20.400  0.00  0.00    +0.038 C 
ATOM     19  C   UNL     1      35.202 -20.672 -20.307  0.00  0.00    +0.134 C 
BRANCH  19  20
ATOM     20  O   UNL     1      36.127 -20.017 -21.060  0.00  0.00    -0.506 OA
ATOM     21  H   UNL     1      36.299 -20.294 -21.938  0.00  0.00    +0.292 HD
ENDBRANCH  19  20
ENDBRANCH   5  14
BRANCH   6  22
ATOM     22  O   UNL     1      34.819 -23.449 -14.072  0.00  0.00    -0.453 OA
BRANCH  22  23
ATOM     23  C   UNL     1      35.990 -23.213 -14.831  0.00  0.00    +0.208 C 
BRANCH  23  24
ATOM     24  C   UNL     1      37.141 -23.992 -14.198  0.00  0.00    +0.044 C 
ATOM     25  C   UNL     1      37.160 -23.791 -12.677  0.00  0.00    +0.004 C 
ATOM     26  C   UNL     1      37.045 -25.483 -14.551  0.00  0.00    +0.004 C 
ATOM     27  C   UNL     1      38.272 -24.603 -12.015  0.00  0.00    +0.000 C 
ATOM     28  C   UNL     1      38.156 -26.292 -13.886  0.00  0.00    +0.000 C 
ATOM     29  C   UNL     1      38.177 -26.082 -12.375  0.00  0.00    +0.000 C 
ENDBRANCH  23  24
ENDBRANCH  22  23
ENDBRANCH   6  22
TORSDOF 5
ENDMDL
MODEL 7
REMARK VINA RESULT:     -10.5      1.928      5.994
REMARK  Name = 447649
REMARK  5 active torsions:
REMARK  status: ('A' for Active; 'I' for Inactive)
REMARK    1  A    between atoms: N_5  and  C_14
REMARK    2  A    between atoms: C_6  and  O_22
REMARK    3  A    between atoms: C_19  and  O_20
REMARK    4  A    between atoms: O_22  and  C_23
REMARK    5  A    between atoms: C_23  and  C_24
REMARK                            x       y       z     vdW  Elec       q    Type
REMARK                         _______ _______ _______ _____ _____    ______ ____
ROOT
ATOM      1  N   UNL     1      35.250 -23.714 -15.537  0.00  0.00    -0.293 NA
ATOM      2  N   UNL     1      35.997 -25.559 -12.445  0.00  0.00    -0.266 NA
ATOM      3  N   UNL     1      37.615 -23.748 -14.941  0.00  0.00    -0.316 NA
ATOM      4  N   UNL     1      38.097 -24.969 -12.896  0.00  0.00    -0.296 N 
ATOM      5  N   UNL     1      36.859 -22.644 -16.861  0.00  0.00    -0.238 N 
ATOM      6  C   UNL     1      34.923 -24.447 -14.451  0.00  0.00    +0.288 C 
ATOM      7  C   UNL     1      35.938 -24.837 -13.602  0.00  0.00    +0.215 C 
ATOM      8  C   UNL     1      37.255 -24.482 -13.861  0.00  0.00    +0.196 C 
ATOM      9  C   UNL     1      36.559 -23.413 -15.712  0.00  0.00    +0.207 C 
ATOM     10  C   UNL     1      37.310 -25.612 -12.060  0.00  0.00    +0.164 C 
ATOM     11  H   UNL     1      35.234 -25.968 -11.973  0.00  0.00    +0.126 HD
ATOM     12  H   UNL     1      39.075 -24.864 -12.841  0.00  0.00    +0.150 HD
ATOM     13  H   UNL     1      37.817 -22.442 -16.963  0.00  0.00    +0.166 HD
ENDROOT
BRANCH   5  14
ATOM     14  C   UNL     1      36.055 -22.112 -17.884  0.00  0.00    +0.059 C 
ATOM     15  C   UNL     1      34.693 -22.418 -17.937  0.00  0.00    +0.018 C 
ATOM     16  C   UNL     1      36.614 -21.276 -18.854  0.00  0.00    +0.018 C 
ATOM     17  C   UNL     1      33.896 -21.892 -18.953  0.00  0.00    +0.038 C 
ATOM     18  C   UNL     1      35.816 -20.749 -19.869  0.00  0.00    +0.038 C 
ATOM     19  C   UNL     1      34.457 -21.056 -19.919  0.00  0.00    +0.134 C 
BRANCH  19  20
ATOM     20  O   UNL     1      33.678 -20.542 -20.909  0.00  0.00    -0.506 OA
ATOM     21  H   UNL     1      33.187 -19.758 -20.760  0.00  0.00    +0.292 HD
ENDBRANCH  19  20
ENDBRANCH   5  14
BRANCH   6  22
ATOM     22  O   UNL     1      33.603 -24.769 -14.242  0.00  0.00    -0.453 OA
BRANCH  22  23
ATOM     23  C   UNL     1      32.888 -23.980 -13.311  0.00  0.00    +0.208 C 
BRANCH  23  24
ATOM     24  C   UNL     1      31.408 -24.009 -13.688  0.00  0.00    +0.044 C 
ATOM     25  C   UNL     1      31.161 -23.215 -14.977  0.00  0.00    +0.004 C 
ATOM     26  C   UNL     1      30.914 -25.455 -13.834  0.00  0.00    +0.004 C 
ATOM     27  C   UNL     1      29.696 -23.274 -15.404  0.00  0.00    +0.000 C 
ATOM     28  C   UNL     1      29.450 -25.511 -14.263  0.00  0.00    +0.000 C 
ATOM     29  C   UNL     1      29.207 -24.712 -15.540  0.00  0.00    +0.000 C 
ENDBRANCH  23  24
ENDBRANCH  22  23
ENDBRANCH   6  22
TORSDOF 5
ENDMDL
MODEL 8
REMARK VINA RESULT:     -10.3      7.916     11.573
REMARK  Name = 447649
REMARK  5 active torsions:
REMARK  status: ('A' for Active; 'I' for Inactive)
REMARK    1  A    between atoms: N_5  and  C_14
REMARK    2  A    between atoms: C_6  and  O_22
REMARK    3  A    between atoms: C_19  and  O_20
REMARK    4  A    between atoms: O_22  and  C_23
REMARK    5  A    between atoms: C_23  and  C_24
REMARK                            x       y       z     vdW  Elec       q    Type
REMARK                         _______ _______ _______ _____ _____    ______ ____
ROOT
ATOM      1  N   UNL     1      34.693 -16.276 -22.321  0.00  0.00    -0.293 NA
ATOM      2  N   UNL     1      33.562 -13.388 -24.298  0.00  0.00    -0.266 NA
ATOM      3  N   UNL     1      34.327 -16.765 -24.682  0.00  0.00    -0.316 NA
ATOM      4  N   UNL     1      33.580 -14.850 -25.980  0.00  0.00    -0.296 N 
ATOM      5  N   UNL     1      35.048 -18.420 -23.194  0.00  0.00    -0.238 N 
ATOM      6  C   UNL     1      34.335 -14.984 -22.490  0.00  0.00    +0.288 C 
ATOM      7  C   UNL     1      33.971 -14.572 -23.755  0.00  0.00    +0.215 C 
ATOM      8  C   UNL     1      33.973 -15.464 -24.819  0.00  0.00    +0.196 C 
ATOM      9  C   UNL     1      34.667 -17.076 -23.413  0.00  0.00    +0.207 C 
ATOM     10  C   UNL     1      33.341 -13.603 -25.632  0.00  0.00    +0.164 C 
ATOM     11  H   UNL     1      33.448 -12.535 -23.819  0.00  0.00    +0.126 HD
ATOM     12  H   UNL     1      33.496 -15.252 -26.875  0.00  0.00    +0.150 HD
ATOM     13  H   UNL     1      35.020 -18.977 -24.005  0.00  0.00    +0.166 HD
ENDROOT
BRANCH   5  14
ATOM     14  C   UNL     1      35.459 -19.114 -22.043  0.00  0.00    +0.059 C 
ATOM     15  C   UNL     1      34.576 -19.985 -21.397  0.00  0.00    +0.018 C 
ATOM     16  C   UNL     1      36.749 -18.938 -21.538  0.00  0.00    +0.018 C 
ATOM     17  C   UNL     1      34.983 -20.674 -20.254  0.00  0.00    +0.038 C 
ATOM     18  C   UNL     1      37.155 -19.627 -20.395  0.00  0.00    +0.038 C 
ATOM     19  C   UNL     1      36.272 -20.495 -19.753  0.00  0.00    +0.134 C 
BRANCH  19  20
ATOM     20  O   UNL     1      36.668 -21.168 -18.639  0.00  0.00    -0.506 OA
ATOM     21  H   UNL     1      36.035 -21.602 -18.102  0.00  0.00    +0.292 HD
ENDBRANCH  19  20
ENDBRANCH   5  14
BRANCH   6  22
ATOM     22  O   UNL     1      34.350 -14.145 -21.401  0.00  0.00    -0.453 OA
BRANCH  22  23
ATOM     23  C   UNL     1      33.152 -14.039 -20.655  0.00  0.00    +0.208 C 
BRANCH  23  24
ATOM     24  C   UNL     1      32.641 -12.603 -20.763  0.00  0.00    +0.044 C 
ATOM     25  C   UNL     1      31.463 -12.519 -21.743  0.00  0.00    +0.004 C 
ATOM     26  C   UNL     1      32.243 -12.065 -19.382  0.00  0.00    +0.004 C 
ATOM     27  C   UNL     1      30.900 -11.101 -21.827  0.00  0.00    +0.000 C 
ATOM     28  C   UNL     1      31.678 -10.649 -19.470  0.00  0.00    +0.000 C 
ATOM     29  C   UNL     1      30.514 -10.568 -20.452  0.00  0.00    +0.000 C 
ENDBRANCH  23  24
ENDBRANCH  22  23
ENDBRANCH   6  22
TORSDOF 5
ENDMDL
MODEL 9
REMARK VINA RESULT:     -10.3      2.419      5.641
REMARK  Name = 447649
REMARK  5 active torsions:
REMARK  status: ('A' for Active; 'I' for Inactive)
REMARK    1  A    between atoms: N_5  and  C_14
REMARK    2  A    between atoms: C_6  and  O_22
REMARK    3  A    between atoms: C_19  and  O_20
REMARK    4  A    between atoms: O_22  and  C_23
REMARK    5  A    between atoms: C_23  and  C_24
REMARK                            x       y       z     vdW  Elec       q    Type
REMARK                         _______ _______ _______ _____ _____    ______ ____
ROOT
ATOM      1  N   UNL     1      33.853 -22.977 -16.757  0.00  0.00    -0.293 NA
ATOM      2  N   UNL     1      36.001 -21.621 -19.417  0.00  0.00    -0.266 NA
ATOM      3  N   UNL     1      32.629 -22.011 -18.634  0.00  0.00    -0.316 NA
ATOM      4  N   UNL     1      34.058 -21.118 -20.385  0.00  0.00    -0.296 N 
ATOM      5  N   UNL     1      31.511 -22.946 -16.803  0.00  0.00    -0.238 N 
ATOM      6  C   UNL     1      35.042 -22.687 -17.330  0.00  0.00    +0.288 C 
ATOM      7  C   UNL     1      35.034 -22.058 -18.557  0.00  0.00    +0.215 C 
ATOM      8  C   UNL     1      33.837 -21.734 -19.181  0.00  0.00    +0.196 C 
ATOM      9  C   UNL     1      32.735 -22.625 -17.436  0.00  0.00    +0.207 C 
ATOM     10  C   UNL     1      35.369 -21.065 -20.497  0.00  0.00    +0.164 C 
ATOM     11  H   UNL     1      36.975 -21.691 -19.285  0.00  0.00    +0.126 HD
ATOM     12  H   UNL     1      33.386 -20.789 -21.026  0.00  0.00    +0.150 HD
ATOM     13  H   UNL     1      30.717 -22.679 -17.319  0.00  0.00    +0.166 HD
ENDROOT
BRANCH   5  14
ATOM     14  C   UNL     1      31.210 -23.570 -15.580  0.00  0.00    +0.059 C 
ATOM     15  C   UNL     1      31.744 -23.073 -14.389  0.00  0.00    +0.018 C 
ATOM     16  C   UNL     1      30.376 -24.690 -15.549  0.00  0.00    +0.018 C 
ATOM     17  C   UNL     1      31.447 -23.692 -13.175  0.00  0.00    +0.038 C 
ATOM     18  C   UNL     1      30.079 -25.309 -14.335  0.00  0.00    +0.038 C 
ATOM     19  C   UNL     1      30.613 -24.810 -13.148  0.00  0.00    +0.134 C 
BRANCH  19  20
ATOM     20  O   UNL     1      30.322 -25.413 -11.964  0.00  0.00    -0.506 OA
ATOM     21  H   UNL     1      29.882 -24.935 -11.289  0.00  0.00    +0.292 HD
ENDBRANCH  19  20
ENDBRANCH   5  14
BRANCH   6  22
ATOM     22  O   UNL     1      36.196 -23.029 -16.667  0.00  0.00    -0.453 OA
BRANCH  22  23
ATOM     23  C   UNL     1      36.129 -23.109 -15.256  0.00  0.00    +0.208 C 
BRANCH  23  24
ATOM     24  C   UNL     1      36.922 -24.333 -14.802  0.00  0.00    +0.044 C 
ATOM     25  C   UNL     1      37.472 -24.128 -13.384  0.00  0.00    +0.004 C 
ATOM     26  C   UNL     1      36.055 -25.597 -14.875  0.00  0.00    +0.004 C 
ATOM     27  C   UNL     1      38.225 -25.361 -12.888  0.00  0.00    +0.000 C 
ATOM     28  C   UNL     1      36.810 -26.827 -14.376  0.00  0.00    +0.000 C 
ATOM     29  C   UNL     1      37.362 -26.616 -12.970  0.00  0.00    +0.000 C 
ENDBRANCH  23  24
ENDBRANCH  22  23
ENDBRANCH   6  22
TORSDOF 5
ENDMDL
