MODEL 1
REMARK VINA RESULT:     -11.1      0.000      0.000
REMARK  Name = 9863827
REMARK  4 active torsions:
REMARK  status: ('A' for Active; 'I' for Inactive)
REMARK    1  A    between atoms: N_2  and  C_23
REMARK    2  A    between atoms: C_7  and  C_27
REMARK    3  A    between atoms: C_9  and  C_15
REMARK    4  A    between atoms: C_27  and  O_28
REMARK                            x       y       z     vdW  Elec       q    Type
REMARK                         _______ _______ _______ _____ _____    ______ ____
ROOT
ATOM      1  O   UNL     1      38.254 -24.338 -13.149  0.00  0.00    -0.286 OA
ATOM      2  N   UNL     1      34.318 -24.321 -14.214  0.00  0.00    -0.287 N 
ATOM      3  C   UNL     1      35.251 -23.670 -15.070  0.00  0.00    +0.051 C 
ATOM      4  C   UNL     1      34.763 -24.934 -13.059  0.00  0.00    +0.075 C 
ATOM      5  C   UNL     1      36.621 -23.662 -14.725  0.00  0.00    +0.053 C 
ATOM      6  C   UNL     1      34.869 -23.027 -16.258  0.00  0.00    -0.008 C 
ATOM      7  C   UNL     1      36.034 -24.985 -12.642  0.00  0.00    +0.129 C 
ATOM      8  C   UNL     1      37.073 -24.329 -13.477  0.00  0.00    +0.204 C 
ATOM      9  C   UNL     1      35.816 -22.399 -17.072  0.00  0.00    -0.001 C 
ATOM     10  C   UNL     1      37.568 -23.031 -15.543  0.00  0.00    +0.004 C 
ATOM     11  C   UNL     1      33.452 -22.960 -16.742  0.00  0.00    +0.032 C 
ATOM     12  C   UNL     1      37.161 -22.402 -16.715  0.00  0.00    -0.000 C 
ENDROOT
BRANCH   9  15
ATOM     13  N   UNL     1      36.112 -20.501 -20.267  0.00  0.00    -0.230 NA
ATOM     14  N   UNL     1      34.477 -19.799 -21.836  0.00  0.00    -0.317 N 
ATOM     15  C   UNL     1      35.439 -21.730 -18.304  0.00  0.00    +0.019 C 
ATOM     16  C   UNL     1      34.112 -21.670 -18.702  0.00  0.00    +0.000 C 
ATOM     17  C   UNL     1      36.395 -21.140 -19.108  0.00  0.00    +0.100 C 
ATOM     18  C   UNL     1      33.782 -21.023 -19.887  0.00  0.00    +0.010 C 
ATOM     19  C   UNL     1      34.810 -20.459 -20.627  0.00  0.00    +0.124 C 
ATOM     20  C   UNL     1      32.356 -20.956 -20.317  0.00  0.00    +0.034 C 
ATOM     21  C   UNL     1      35.369 -19.734 -22.947  0.00  0.00    +0.110 C 
ATOM     22  H   UNL     1      33.596 -19.367 -21.912  0.00  0.00    +0.148 HD
ENDBRANCH   9  15
BRANCH   2  23
ATOM     23  C   UNL     1      32.860 -24.399 -14.466  0.00  0.00    +0.077 C 
ATOM     24  C   UNL     1      31.969 -25.175 -13.555  0.00  0.00    +0.022 C 
ATOM     25  C   UNL     1      31.895 -23.677 -13.587  0.00  0.00    +0.022 C 
ENDBRANCH   2  23
BRANCH   7  27
ATOM     26  O   UNL     1      35.831 -25.404 -10.311  0.00  0.00    -0.245 OA
ATOM     27  C   UNL     1      36.329 -25.681 -11.388  0.00  0.00    +0.342 C 
BRANCH  27  28
ATOM     28  O   UNL     1      37.228 -26.661 -11.614  0.00  0.00    -0.477 OA
ATOM     29  H   UNL     1      37.666 -27.071 -10.895  0.00  0.00    +0.295 HD
ENDBRANCH  27  28
ENDBRANCH   7  27
TORSDOF 4
ENDMDL
MODEL 2
REMARK VINA RESULT:     -10.3      1.327      1.980
REMARK  Name = 9863827
REMARK  4 active torsions:
REMARK  status: ('A' for Active; 'I' for Inactive)
REMARK    1  A    between atoms: N_2  and  C_23
REMARK    2  A    between atoms: C_7  and  C_27
REMARK    3  A    between atoms: C_9  and  C_15
REMARK    4  A    between atoms: C_27  and  O_28
REMARK                            x       y       z     vdW  Elec       q    Type
REMARK                         _______ _______ _______ _____ _____    ______ ____
ROOT
ATOM      1  O   UNL     1      37.532 -23.743 -13.653  0.00  0.00    -0.286 OA
ATOM      2  N   UNL     1      33.887 -23.785 -15.479  0.00  0.00    -0.287 N 
ATOM      3  C   UNL     1      34.959 -23.111 -16.129  0.00  0.00    +0.051 C 
ATOM      4  C   UNL     1      34.105 -24.400 -14.262  0.00  0.00    +0.075 C 
ATOM      5  C   UNL     1      36.233 -23.082 -15.520  0.00  0.00    +0.053 C 
ATOM      6  C   UNL     1      34.809 -22.465 -17.367  0.00  0.00    -0.008 C 
ATOM      7  C   UNL     1      35.268 -24.432 -13.600  0.00  0.00    +0.129 C 
ATOM      8  C   UNL     1      36.440 -23.752 -14.209  0.00  0.00    +0.204 C 
ATOM      9  C   UNL     1      35.887 -21.814 -17.973  0.00  0.00    -0.001 C 
ATOM     10  C   UNL     1      37.312 -22.429 -16.129  0.00  0.00    +0.004 C 
ATOM     11  C   UNL     1      33.515 -22.418 -18.123  0.00  0.00    +0.032 C 
ATOM     12  C   UNL     1      37.134 -21.797 -17.356  0.00  0.00    -0.000 C 
ENDROOT
BRANCH   9  15
ATOM     13  N   UNL     1      34.401 -20.678 -21.198  0.00  0.00    -0.230 NA
ATOM     14  N   UNL     1      35.247 -19.270 -22.909  0.00  0.00    -0.317 N 
ATOM     15  C   UNL     1      35.749 -21.141 -19.253  0.00  0.00    +0.019 C 
ATOM     16  C   UNL     1      36.770 -20.349 -19.752  0.00  0.00    +0.000 C 
ATOM     17  C   UNL     1      34.595 -21.276 -20.000  0.00  0.00    +0.100 C 
ATOM     18  C   UNL     1      36.609 -19.717 -20.980  0.00  0.00    +0.010 C 
ATOM     19  C   UNL     1      35.416 -19.912 -21.658  0.00  0.00    +0.124 C 
ATOM     20  C   UNL     1      37.706 -18.864 -21.519  0.00  0.00    +0.034 C 
ATOM     21  C   UNL     1      33.971 -18.863 -23.400  0.00  0.00    +0.110 C 
ATOM     22  H   UNL     1      36.042 -19.098 -23.464  0.00  0.00    +0.148 HD
ENDBRANCH   9  15
BRANCH   2  23
ATOM     23  C   UNL     1      32.509 -23.886 -16.016  0.00  0.00    +0.077 C 
ATOM     24  C   UNL     1      31.428 -24.540 -15.225  0.00  0.00    +0.022 C 
ATOM     25  C   UNL     1      31.407 -23.057 -15.447  0.00  0.00    +0.022 C 
ENDBRANCH   2  23
BRANCH   7  27
ATOM     26  O   UNL     1      34.680 -24.818 -11.330  0.00  0.00    -0.245 OA
ATOM     27  C   UNL     1      35.321 -25.134 -12.316  0.00  0.00    +0.342 C 
BRANCH  27  28
ATOM     28  O   UNL     1      36.182 -26.169 -12.401  0.00  0.00    -0.477 OA
ATOM     29  H   UNL     1      36.543 -26.412 -13.230  0.00  0.00    +0.295 HD
ENDBRANCH  27  28
ENDBRANCH   7  27
TORSDOF 4
ENDMDL
MODEL 3
REMARK VINA RESULT:      -9.6     10.484     14.346
REMARK  Name = 9863827
REMARK  4 active torsions:
REMARK  status: ('A' for Active; 'I' for Inactive)
REMARK    1  A    between atoms: N_2  and  C_23
REMARK    2  A    between atoms: C_7  and  C_27
REMARK    3  A    between atoms: C_9  and  C_15
REMARK    4  A    between atoms: C_27  and  O_28
REMARK                            x       y       z     vdW  Elec       q    Type
REMARK                         _______ _______ _______ _____ _____    ______ ____
ROOT
ATOM      1  O   UNL     1      33.150  -8.175 -24.219  0.00  0.00    -0.286 OA
ATOM      2  N   UNL     1      31.881 -10.274 -20.963  0.00  0.00    -0.287 N 
ATOM      3  C   UNL     1      32.657 -10.954 -21.943  0.00  0.00    +0.051 C 
ATOM      4  C   UNL     1      31.581  -8.937 -21.137  0.00  0.00    +0.075 C 
ATOM      5  C   UNL     1      33.111 -10.251 -23.081  0.00  0.00    +0.053 C 
ATOM      6  C   UNL     1      32.999 -12.312 -21.831  0.00  0.00    -0.008 C 
ATOM      7  C   UNL     1      31.960  -8.180 -22.174  0.00  0.00    +0.129 C 
ATOM      8  C   UNL     1      32.774  -8.813 -23.243  0.00  0.00    +0.204 C 
ATOM      9  C   UNL     1      33.763 -12.944 -22.815  0.00  0.00    -0.001 C 
ATOM     10  C   UNL     1      33.877 -10.887 -24.066  0.00  0.00    +0.004 C 
ATOM     11  C   UNL     1      32.584 -13.176 -20.678  0.00  0.00    +0.032 C 
ATOM     12  C   UNL     1      34.202 -12.233 -23.929  0.00  0.00    -0.000 C 
ENDROOT
BRANCH   9  15
ATOM     13  N   UNL     1      34.970 -16.161 -21.369  0.00  0.00    -0.230 NA
ATOM     14  N   UNL     1      35.189 -18.325 -22.314  0.00  0.00    -0.317 N 
ATOM     15  C   UNL     1      34.126 -14.346 -22.715  0.00  0.00    +0.019 C 
ATOM     16  C   UNL     1      33.991 -15.195 -23.802  0.00  0.00    +0.000 C 
ATOM     17  C   UNL     1      34.614 -14.866 -21.531  0.00  0.00    +0.100 C 
ATOM     18  C   UNL     1      34.346 -16.533 -23.675  0.00  0.00    +0.010 C 
ATOM     19  C   UNL     1      34.827 -16.962 -22.448  0.00  0.00    +0.124 C 
ATOM     20  C   UNL     1      34.201 -17.448 -24.843  0.00  0.00    +0.034 C 
ATOM     21  C   UNL     1      35.096 -19.029 -21.076  0.00  0.00    +0.110 C 
ATOM     22  H   UNL     1      35.520 -18.807 -23.106  0.00  0.00    +0.148 HD
ENDBRANCH   9  15
BRANCH   2  23
ATOM     23  C   UNL     1      31.348 -10.900 -19.730  0.00  0.00    +0.077 C 
ATOM     24  C   UNL     1      31.939 -10.584 -18.397  0.00  0.00    +0.022 C 
ATOM     25  C   UNL     1      30.563 -10.100 -18.746  0.00  0.00    +0.022 C 
ENDBRANCH   2  23
BRANCH   7  27
ATOM     26  O   UNL     1      30.410  -6.384 -22.035  0.00  0.00    -0.245 OA
ATOM     27  C   UNL     1      31.552  -6.774 -22.196  0.00  0.00    +0.342 C 
BRANCH  27  28
ATOM     28  O   UNL     1      32.629  -5.994 -22.423  0.00  0.00    -0.477 OA
ATOM     29  H   UNL     1      32.720  -5.177 -21.974  0.00  0.00    +0.295 HD
ENDBRANCH  27  28
ENDBRANCH   7  27
TORSDOF 4
ENDMDL
MODEL 4
REMARK VINA RESULT:      -9.5     12.618     17.037
REMARK  Name = 9863827
REMARK  4 active torsions:
REMARK  status: ('A' for Active; 'I' for Inactive)
REMARK    1  A    between atoms: N_2  and  C_23
REMARK    2  A    between atoms: C_7  and  C_27
REMARK    3  A    between atoms: C_9  and  C_15
REMARK    4  A    between atoms: C_27  and  O_28
REMARK                            x       y       z     vdW  Elec       q    Type
REMARK                         _______ _______ _______ _____ _____    ______ ____
ROOT
ATOM      1  O   UNL     1      30.248  -6.347 -21.636  0.00  0.00    -0.286 OA
ATOM      2  N   UNL     1      33.735  -7.126 -23.599  0.00  0.00    -0.287 N 
ATOM      3  C   UNL     1      32.991  -8.225 -23.084  0.00  0.00    +0.051 C 
ATOM      4  C   UNL     1      33.264  -5.840 -23.423  0.00  0.00    +0.075 C 
ATOM      5  C   UNL     1      31.779  -7.984 -22.401  0.00  0.00    +0.053 C 
ATOM      6  C   UNL     1      33.411  -9.558 -23.226  0.00  0.00    -0.008 C 
ATOM      7  C   UNL     1      32.132  -5.502 -22.793  0.00  0.00    +0.129 C 
ATOM      8  C   UNL     1      31.295  -6.590 -22.226  0.00  0.00    +0.204 C 
ATOM      9  C   UNL     1      32.651 -10.610 -22.706  0.00  0.00    -0.001 C 
ATOM     10  C   UNL     1      31.019  -9.040 -21.880  0.00  0.00    +0.004 C 
ATOM     11  C   UNL     1      34.675  -9.956 -23.927  0.00  0.00    +0.032 C 
ATOM     12  C   UNL     1      31.459 -10.351 -22.036  0.00  0.00    -0.000 C 
ENDROOT
BRANCH   9  15
ATOM     13  N   UNL     1      33.449 -13.893 -24.280  0.00  0.00    -0.230 NA
ATOM     14  N   UNL     1      34.244 -15.928 -23.355  0.00  0.00    -0.317 N 
ATOM     15  C   UNL     1      33.070 -11.993 -22.844  0.00  0.00    +0.019 C 
ATOM     16  C   UNL     1      33.478 -12.725 -21.741  0.00  0.00    +0.000 C 
ATOM     17  C   UNL     1      33.072 -12.609 -24.081  0.00  0.00    +0.100 C 
ATOM     18  C   UNL     1      33.874 -14.048 -21.904  0.00  0.00    +0.010 C 
ATOM     19  C   UNL     1      33.841 -14.580 -23.184  0.00  0.00    +0.124 C 
ATOM     20  C   UNL     1      34.312 -14.838 -20.719  0.00  0.00    +0.034 C 
ATOM     21  C   UNL     1      34.842 -16.405 -24.560  0.00  0.00    +0.110 C 
ATOM     22  H   UNL     1      34.106 -16.561 -22.614  0.00  0.00    +0.148 HD
ENDBRANCH   9  15
BRANCH   2  23
ATOM     23  C   UNL     1      35.017  -7.250 -24.331  0.00  0.00    +0.077 C 
ATOM     24  C   UNL     1      35.068  -7.085 -25.813  0.00  0.00    +0.022 C 
ATOM     25  C   UNL     1      35.680  -6.049 -24.917  0.00  0.00    +0.022 C 
ENDBRANCH   2  23
BRANCH   7  27
ATOM     26  O   UNL     1      31.681  -3.333 -23.654  0.00  0.00    -0.245 OA
ATOM     27  C   UNL     1      31.783  -4.084 -22.700  0.00  0.00    +0.342 C 
BRANCH  27  28
ATOM     28  O   UNL     1      31.598  -3.747 -21.406  0.00  0.00    -0.477 OA
ATOM     29  H   UNL     1      31.518  -4.415 -20.755  0.00  0.00    +0.295 HD
ENDBRANCH  27  28
ENDBRANCH   7  27
TORSDOF 4
ENDMDL
MODEL 5
REMARK VINA RESULT:      -9.4      2.152      3.975
REMARK  Name = 9863827
REMARK  4 active torsions:
REMARK  status: ('A' for Active; 'I' for Inactive)
REMARK    1  A    between atoms: N_2  and  C_23
REMARK    2  A    between atoms: C_7  and  C_27
REMARK    3  A    between atoms: C_9  and  C_15
REMARK    4  A    between atoms: C_27  and  O_28
REMARK                            x       y       z     vdW  Elec       q    Type
REMARK                         _______ _______ _______ _____ _____    ______ ____
ROOT
ATOM      1  O   UNL     1      31.455 -24.163 -15.455  0.00  0.00    -0.286 OA
ATOM      2  N   UNL     1      35.429 -23.309 -15.768  0.00  0.00    -0.287 N 
ATOM      3  C   UNL     1      34.552 -22.817 -16.776  0.00  0.00    +0.051 C 
ATOM      4  C   UNL     1      34.919 -24.054 -14.724  0.00  0.00    +0.075 C 
ATOM      5  C   UNL     1      33.170 -23.096 -16.691  0.00  0.00    +0.053 C 
ATOM      6  C   UNL     1      35.001 -22.053 -17.865  0.00  0.00    -0.008 C 
ATOM      7  C   UNL     1      33.631 -24.376 -14.549  0.00  0.00    +0.129 C 
ATOM      8  C   UNL     1      32.648 -23.901 -15.556  0.00  0.00    +0.204 C 
ATOM      9  C   UNL     1      34.108 -21.587 -18.834  0.00  0.00    -0.001 C 
ATOM     10  C   UNL     1      32.276 -22.628 -17.663  0.00  0.00    +0.004 C 
ATOM     11  C   UNL     1      36.439 -21.683 -18.078  0.00  0.00    +0.032 C 
ATOM     12  C   UNL     1      32.750 -21.873 -18.732  0.00  0.00    -0.000 C 
ENDROOT
BRANCH   9  15
ATOM     13  N   UNL     1      34.032 -19.727 -22.063  0.00  0.00    -0.230 NA
ATOM     14  N   UNL     1      35.721 -18.547 -23.238  0.00  0.00    -0.317 N 
ATOM     15  C   UNL     1      34.555 -20.796 -19.966  0.00  0.00    +0.019 C 
ATOM     16  C   UNL     1      35.868 -20.360 -20.053  0.00  0.00    +0.000 C 
ATOM     17  C   UNL     1      33.681 -20.459 -20.982  0.00  0.00    +0.100 C 
ATOM     18  C   UNL     1      36.267 -19.604 -21.150  0.00  0.00    +0.010 C 
ATOM     19  C   UNL     1      35.319 -19.317 -22.119  0.00  0.00    +0.124 C 
ATOM     20  C   UNL     1      37.679 -19.135 -21.246  0.00  0.00    +0.034 C 
ATOM     21  C   UNL     1      34.827 -17.685 -23.940  0.00  0.00    +0.110 C 
ATOM     22  H   UNL     1      36.655 -18.609 -23.544  0.00  0.00    +0.148 HD
ENDBRANCH   9  15
BRANCH   2  23
ATOM     23  C   UNL     1      36.893 -23.083 -15.746  0.00  0.00    +0.077 C 
ATOM     24  C   UNL     1      37.605 -22.818 -14.462  0.00  0.00    +0.022 C 
ATOM     25  C   UNL     1      37.815 -24.114 -15.188  0.00  0.00    +0.022 C 
ENDBRANCH   2  23
BRANCH   7  27
ATOM     26  O   UNL     1      33.769 -25.059 -12.277  0.00  0.00    -0.245 OA
ATOM     27  C   UNL     1      33.264 -25.176 -13.379  0.00  0.00    +0.342 C 
BRANCH  27  28
ATOM     28  O   UNL     1      32.294 -26.051 -13.715  0.00  0.00    -0.477 OA
ATOM     29  H   UNL     1      32.442 -26.677 -14.396  0.00  0.00    +0.295 HD
ENDBRANCH  27  28
ENDBRANCH   7  27
TORSDOF 4
ENDMDL
MODEL 6
REMARK VINA RESULT:      -9.2      2.001      3.393
REMARK  Name = 9863827
REMARK  4 active torsions:
REMARK  status: ('A' for Active; 'I' for Inactive)
REMARK    1  A    between atoms: N_2  and  C_23
REMARK    2  A    between atoms: C_7  and  C_27
REMARK    3  A    between atoms: C_9  and  C_15
REMARK    4  A    between atoms: C_27  and  O_28
REMARK                            x       y       z     vdW  Elec       q    Type
REMARK                         _______ _______ _______ _____ _____    ______ ____
ROOT
ATOM      1  O   UNL     1      38.021 -22.750 -15.809  0.00  0.00    -0.286 OA
ATOM      2  N   UNL     1      34.176 -22.955 -17.146  0.00  0.00    -0.287 N 
ATOM      3  C   UNL     1      35.105 -22.168 -17.884  0.00  0.00    +0.051 C 
ATOM      4  C   UNL     1      34.594 -23.621 -16.011  0.00  0.00    +0.075 C 
ATOM      5  C   UNL     1      36.444 -22.080 -17.443  0.00  0.00    +0.053 C 
ATOM      6  C   UNL     1      34.749 -21.465 -19.046  0.00  0.00    -0.008 C 
ATOM      7  C   UNL     1      35.835 -23.605 -15.509  0.00  0.00    +0.129 C 
ATOM      8  C   UNL     1      36.868 -22.807 -16.218  0.00  0.00    +0.204 C 
ATOM      9  C   UNL     1      35.691 -20.703 -19.742  0.00  0.00    -0.001 C 
ATOM     10  C   UNL     1      37.387 -21.316 -18.143  0.00  0.00    +0.004 C 
ATOM     11  C   UNL     1      33.365 -21.470 -19.623  0.00  0.00    +0.032 C 
ATOM     12  C   UNL     1      37.006 -20.630 -19.292  0.00  0.00    -0.000 C 
ENDROOT
BRANCH   9  15
ATOM     13  N   UNL     1      34.828 -17.859 -21.992  0.00  0.00    -0.230 NA
ATOM     14  N   UNL     1      34.340 -17.781 -24.312  0.00  0.00    -0.317 N 
ATOM     15  C   UNL     1      35.340 -19.970 -20.946  0.00  0.00    +0.019 C 
ATOM     16  C   UNL     1      35.184 -20.626 -22.156  0.00  0.00    +0.000 C 
ATOM     17  C   UNL     1      35.155 -18.602 -20.910  0.00  0.00    +0.100 C 
ATOM     18  C   UNL     1      34.848 -19.897 -23.292  0.00  0.00    +0.010 C 
ATOM     19  C   UNL     1      34.682 -18.528 -23.157  0.00  0.00    +0.124 C 
ATOM     20  C   UNL     1      34.679 -20.601 -24.595  0.00  0.00    +0.034 C 
ATOM     21  C   UNL     1      34.728 -16.420 -24.491  0.00  0.00    +0.110 C 
ATOM     22  H   UNL     1      33.813 -18.218 -25.019  0.00  0.00    +0.148 HD
ENDBRANCH   9  15
BRANCH   2  23
ATOM     23  C   UNL     1      32.748 -23.125 -17.506  0.00  0.00    +0.077 C 
ATOM     24  C   UNL     1      31.869 -24.044 -16.726  0.00  0.00    +0.022 C 
ATOM     25  C   UNL     1      31.672 -22.559 -16.643  0.00  0.00    +0.022 C 
ENDBRANCH   2  23
BRANCH   7  27
ATOM     26  O   UNL     1      35.841 -25.553 -14.147  0.00  0.00    -0.245 OA
ATOM     27  C   UNL     1      36.104 -24.373 -14.292  0.00  0.00    +0.342 C 
BRANCH  27  28
ATOM     28  O   UNL     1      36.680 -23.573 -13.370  0.00  0.00    -0.477 OA
ATOM     29  H   UNL     1      36.210 -22.838 -13.028  0.00  0.00    +0.295 HD
ENDBRANCH  27  28
ENDBRANCH   7  27
TORSDOF 4
ENDMDL
MODEL 7
REMARK VINA RESULT:      -8.7     15.857     20.209
REMARK  Name = 9863827
REMARK  4 active torsions:
REMARK  status: ('A' for Active; 'I' for Inactive)
REMARK    1  A    between atoms: N_2  and  C_23
REMARK    2  A    between atoms: C_7  and  C_27
REMARK    3  A    between atoms: C_9  and  C_15
REMARK    4  A    between atoms: C_27  and  O_28
REMARK                            x       y       z     vdW  Elec       q    Type
REMARK                         _______ _______ _______ _____ _____    ______ ____
ROOT
ATOM      1  O   UNL     1      36.110  -4.724 -26.550  0.00  0.00    -0.286 OA
ATOM      2  N   UNL     1      32.506  -3.940 -24.812  0.00  0.00    -0.287 N 
ATOM      3  C   UNL     1      33.215  -5.104 -24.400  0.00  0.00    +0.051 C 
ATOM      4  C   UNL     1      33.050  -3.116 -25.777  0.00  0.00    +0.075 C 
ATOM      5  C   UNL     1      34.466  -5.399 -24.984  0.00  0.00    +0.053 C 
ATOM      6  C   UNL     1      32.722  -5.986 -23.424  0.00  0.00    -0.008 C 
ATOM      7  C   UNL     1      34.224  -3.303 -26.393  0.00  0.00    +0.129 C 
ATOM      8  C   UNL     1      35.028  -4.495 -26.022  0.00  0.00    +0.204 C 
ATOM      9  C   UNL     1      33.449  -7.118 -23.046  0.00  0.00    -0.001 C 
ATOM     10  C   UNL     1      35.193  -6.535 -24.604  0.00  0.00    +0.004 C 
ATOM     11  C   UNL     1      31.410  -5.794 -22.723  0.00  0.00    +0.032 C 
ATOM     12  C   UNL     1      34.681  -7.391 -23.634  0.00  0.00    -0.000 C 
ENDROOT
BRANCH   9  15
ATOM     13  N   UNL     1      32.814  -8.663 -19.714  0.00  0.00    -0.230 NA
ATOM     14  N   UNL     1      31.598 -10.600 -19.084  0.00  0.00    -0.317 N 
ATOM     15  C   UNL     1      32.955  -8.040 -22.039  0.00  0.00    +0.019 C 
ATOM     16  C   UNL     1      32.184  -9.135 -22.395  0.00  0.00    +0.000 C 
ATOM     17  C   UNL     1      33.241  -7.844 -20.702  0.00  0.00    +0.100 C 
ATOM     18  C   UNL     1      31.724 -10.000 -21.408  0.00  0.00    +0.010 C 
ATOM     19  C   UNL     1      32.064  -9.722 -20.094  0.00  0.00    +0.124 C 
ATOM     20  C   UNL     1      30.895 -11.178 -21.789  0.00  0.00    +0.034 C 
ATOM     21  C   UNL     1      31.321 -10.166 -17.754  0.00  0.00    +0.110 C 
ATOM     22  H   UNL     1      31.460 -11.548 -19.309  0.00  0.00    +0.148 HD
ENDBRANCH   9  15
BRANCH   2  23
ATOM     23  C   UNL     1      31.189  -3.525 -24.274  0.00  0.00    +0.077 C 
ATOM     24  C   UNL     1      31.016  -2.193 -23.625  0.00  0.00    +0.022 C 
ATOM     25  C   UNL     1      30.385  -2.470 -24.957  0.00  0.00    +0.022 C 
ENDBRANCH   2  23
BRANCH   7  27
ATOM     26  O   UNL     1      33.997  -2.015 -28.378  0.00  0.00    -0.245 OA
ATOM     27  C   UNL     1      34.648  -2.324 -27.396  0.00  0.00    +0.342 C 
BRANCH  27  28
ATOM     28  O   UNL     1      35.859  -1.830 -27.063  0.00  0.00    -0.477 OA
ATOM     29  H   UNL     1      36.508  -1.695 -27.724  0.00  0.00    +0.295 HD
ENDBRANCH  27  28
ENDBRANCH   7  27
TORSDOF 4
ENDMDL
MODEL 8
REMARK VINA RESULT:      -8.5      3.095      5.738
REMARK  Name = 9863827
REMARK  4 active torsions:
REMARK  status: ('A' for Active; 'I' for Inactive)
REMARK    1  A    between atoms: N_2  and  C_23
REMARK    2  A    between atoms: C_7  and  C_27
REMARK    3  A    between atoms: C_9  and  C_15
REMARK    4  A    between atoms: C_27  and  O_28
REMARK                            x       y       z     vdW  Elec       q    Type
REMARK                         _______ _______ _______ _____ _____    ______ ____
ROOT
ATOM      1  O   UNL     1      35.811 -25.724 -11.378  0.00  0.00    -0.286 OA
ATOM      2  N   UNL     1      35.592 -23.357 -14.690  0.00  0.00    -0.287 N 
ATOM      3  C   UNL     1      34.382 -23.881 -14.155  0.00  0.00    +0.051 C 
ATOM      4  C   UNL     1      36.795 -23.660 -14.083  0.00  0.00    +0.075 C 
ATOM      5  C   UNL     1      34.428 -24.703 -13.007  0.00  0.00    +0.053 C 
ATOM      6  C   UNL     1      33.125 -23.614 -14.720  0.00  0.00    -0.008 C 
ATOM      7  C   UNL     1      36.950 -24.426 -12.996  0.00  0.00    +0.129 C 
ATOM      8  C   UNL     1      35.736 -25.013 -12.373  0.00  0.00    +0.204 C 
ATOM      9  C   UNL     1      31.958 -24.147 -14.164  0.00  0.00    -0.001 C 
ATOM     10  C   UNL     1      33.258 -25.236 -12.451  0.00  0.00    +0.004 C 
ATOM     11  C   UNL     1      32.931 -22.759 -15.937  0.00  0.00    +0.032 C 
ATOM     12  C   UNL     1      32.025 -24.955 -13.033  0.00  0.00    -0.000 C 
ENDROOT
BRANCH   9  15
ATOM     13  N   UNL     1      28.847 -22.325 -15.109  0.00  0.00    -0.230 NA
ATOM     14  N   UNL     1      26.930 -23.011 -16.326  0.00  0.00    -0.317 N 
ATOM     15  C   UNL     1      30.651 -23.881 -14.736  0.00  0.00    +0.019 C 
ATOM     16  C   UNL     1      29.965 -24.866 -15.430  0.00  0.00    +0.000 C 
ATOM     17  C   UNL     1      30.061 -22.639 -14.602  0.00  0.00    +0.100 C 
ATOM     18  C   UNL     1      28.715 -24.581 -15.967  0.00  0.00    +0.010 C 
ATOM     19  C   UNL     1      28.204 -23.306 -15.780  0.00  0.00    +0.124 C 
ATOM     20  C   UNL     1      27.976 -25.638 -16.714  0.00  0.00    +0.034 C 
ATOM     21  C   UNL     1      26.562 -21.703 -16.759  0.00  0.00    +0.110 C 
ATOM     22  H   UNL     1      26.272 -23.738 -16.410  0.00  0.00    +0.148 HD
ENDBRANCH   9  15
BRANCH   2  23
ATOM     23  C   UNL     1      35.674 -22.486 -15.886  0.00  0.00    +0.077 C 
ATOM     24  C   UNL     1      36.851 -21.595 -16.102  0.00  0.00    +0.022 C 
ATOM     25  C   UNL     1      36.635 -22.788 -16.986  0.00  0.00    +0.022 C 
ENDBRANCH   2  23
BRANCH   7  27
ATOM     26  O   UNL     1      38.939 -23.824 -11.843  0.00  0.00    -0.245 OA
ATOM     27  C   UNL     1      38.304 -24.642 -12.483  0.00  0.00    +0.342 C 
BRANCH  27  28
ATOM     28  O   UNL     1      38.729 -25.875 -12.832  0.00  0.00    -0.477 OA
ATOM     29  H   UNL     1      39.363 -25.978 -13.513  0.00  0.00    +0.295 HD
ENDBRANCH  27  28
ENDBRANCH   7  27
TORSDOF 4
ENDMDL
