MODEL 1
REMARK VINA RESULT:     -12.6      0.000      0.000
REMARK  Name = 25174099
REMARK  5 active torsions:
REMARK  status: ('A' for Active; 'I' for Inactive)
REMARK    1  A    between atoms: C_5  and  C_33
REMARK    2  A    between atoms: C_14  and  C_18
REMARK    3  A    between atoms: N_17  and  C_20
REMARK    4  A    between atoms: C_20  and  C_24
REMARK    5  A    between atoms: C_33  and  C_36
REMARK                            x       y       z     vdW  Elec       q    Type
REMARK                         _______ _______ _______ _____ _____    ______ ____
ROOT
ATOM      1  S   UNL     1      34.434 -24.308 -14.301  0.00  0.00    -0.064 S 
ATOM      2  O   UNL     1      31.582 -22.689 -17.998  0.00  0.00    -0.274 OA
ATOM      3  N   UNL     1      35.394 -22.989 -16.424  0.00  0.00    -0.379 NA
ATOM      4  N   UNL     1      33.854 -22.280 -18.112  0.00  0.00    -0.255 N 
ATOM      5  C   UNL     1      30.569 -24.161 -15.421  0.00  0.00    +0.028 C 
ATOM      6  C   UNL     1      30.031 -25.293 -14.510  0.00  0.00    +0.005 C 
ATOM      7  C   UNL     1      32.071 -24.055 -15.307  0.00  0.00    -0.027 C 
ATOM      8  C   UNL     1      30.622 -25.236 -13.094  0.00  0.00    +0.006 C 
ATOM      9  C   UNL     1      32.150 -25.375 -13.109  0.00  0.00    +0.032 C 
ATOM     10  C   UNL     1      32.757 -24.586 -14.228  0.00  0.00    +0.002 C 
ATOM     11  C   UNL     1      32.977 -23.435 -16.230  0.00  0.00    +0.154 C 
ATOM     12  C   UNL     1      34.294 -23.492 -15.793  0.00  0.00    +0.152 C 
ATOM     13  C   UNL     1      32.703 -22.781 -17.507  0.00  0.00    +0.239 C 
ATOM     14  C   UNL     1      35.116 -22.407 -17.550  0.00  0.00    +0.240 C 
ATOM     15  H   UNL     1      33.769 -21.815 -18.975  0.00  0.00    +0.157 HD
ENDROOT
BRANCH  14  18
ATOM     16  O   UNL     1      37.362 -22.157 -18.079  0.00  0.00    -0.266 OA
ATOM     17  N   UNL     1      35.786 -20.925 -19.302  0.00  0.00    -0.294 N 
ATOM     18  C   UNL     1      36.218 -21.814 -18.342  0.00  0.00    +0.290 C 
ATOM     19  H   UNL     1      34.819 -20.759 -19.385  0.00  0.00    +0.150 HD
BRANCH  17  20
ATOM     20  C   UNL     1      36.684 -20.227 -20.194  0.00  0.00    +0.117 C 
BRANCH  20  24
ATOM     21  O   UNL     1      33.843 -17.600 -24.319  0.00  0.00    -0.464 OA
ATOM     22  O   UNL     1      34.355 -14.158 -23.347  0.00  0.00    -0.271 OA
ATOM     23  N   UNL     1      35.112 -16.067 -22.311  0.00  0.00    -0.279 N 
ATOM     24  C   UNL     1      35.944 -19.513 -21.288  0.00  0.00    -0.001 C 
ATOM     25  C   UNL     1      35.203 -17.461 -22.319  0.00  0.00    +0.085 C 
ATOM     26  C   UNL     1      35.886 -18.119 -21.295  0.00  0.00    +0.015 C 
ATOM     27  C   UNL     1      34.573 -18.191 -23.327  0.00  0.00    +0.153 C 
ATOM     28  C   UNL     1      35.312 -20.245 -22.294  0.00  0.00    +0.001 C 
ATOM     29  C   UNL     1      34.620 -19.585 -23.309  0.00  0.00    +0.038 C 
ATOM     30  C   UNL     1      34.159 -16.239 -24.539  0.00  0.00    +0.290 C 
ATOM     31  C   UNL     1      34.519 -15.376 -23.342  0.00  0.00    +0.271 C 
ATOM     32  H   UNL     1      35.482 -15.565 -21.548  0.00  0.00    +0.155 HD
ENDBRANCH  20  24
ENDBRANCH  17  20
ENDBRANCH  14  18
BRANCH   5  33
ATOM     33  C   UNL     1      29.893 -22.827 -15.085  0.00  0.00    +0.089 C 
BRANCH  33  36
ATOM     34  O   UNL     1      27.528 -22.291 -15.121  0.00  0.00    -0.275 OA
ATOM     35  N   UNL     1      28.513 -23.155 -17.012  0.00  0.00    -0.329 N 
ATOM     36  C   UNL     1      28.521 -22.718 -15.705  0.00  0.00    +0.220 C 
ATOM     37  H   UNL     1      27.677 -23.136 -17.532  0.00  0.00    +0.145 HD
ATOM     38  H   UNL     1      29.343 -23.486 -17.425  0.00  0.00    +0.145 HD
ENDBRANCH  33  36
ENDBRANCH   5  33
TORSDOF 5
ENDMDL
MODEL 2
REMARK VINA RESULT:     -12.2      3.297     10.389
REMARK  Name = 25174099
REMARK  5 active torsions:
REMARK  status: ('A' for Active; 'I' for Inactive)
REMARK    1  A    between atoms: C_5  and  C_33
REMARK    2  A    between atoms: C_14  and  C_18
REMARK    3  A    between atoms: N_17  and  C_20
REMARK    4  A    between atoms: C_20  and  C_24
REMARK    5  A    between atoms: C_33  and  C_36
REMARK                            x       y       z     vdW  Elec       q    Type
REMARK                         _______ _______ _______ _____ _____    ______ ____
ROOT
ATOM      1  S   UNL     1      34.577 -16.871 -24.751  0.00  0.00    -0.064 S 
ATOM      2  O   UNL     1      34.605 -14.824 -20.253  0.00  0.00    -0.274 OA
ATOM      3  N   UNL     1      35.475 -18.136 -22.570  0.00  0.00    -0.379 NA
ATOM      4  N   UNL     1      35.403 -16.982 -20.476  0.00  0.00    -0.255 N 
ATOM      5  C   UNL     1      33.497 -13.483 -22.863  0.00  0.00    +0.028 C 
ATOM      6  C   UNL     1      33.421 -12.553 -24.100  0.00  0.00    +0.005 C 
ATOM      7  C   UNL     1      34.013 -14.847 -23.253  0.00  0.00    -0.027 C 
ATOM      8  C   UNL     1      32.756 -13.234 -25.304  0.00  0.00    +0.006 C 
ATOM      9  C   UNL     1      33.521 -14.488 -25.745  0.00  0.00    +0.032 C 
ATOM     10  C   UNL     1      33.978 -15.289 -24.564  0.00  0.00    +0.002 C 
ATOM     11  C   UNL     1      34.587 -15.844 -22.395  0.00  0.00    +0.154 C 
ATOM     12  C   UNL     1      34.924 -17.000 -23.085  0.00  0.00    +0.152 C 
ATOM     13  C   UNL     1      34.845 -15.799 -20.958  0.00  0.00    +0.239 C 
ATOM     14  C   UNL     1      35.684 -18.069 -21.291  0.00  0.00    +0.240 C 
ATOM     15  H   UNL     1      35.607 -17.049 -19.515  0.00  0.00    +0.157 HD
ENDROOT
BRANCH  14  18
ATOM     16  O   UNL     1      37.437 -19.142 -20.212  0.00  0.00    -0.266 OA
ATOM     17  N   UNL     1      35.414 -20.300 -20.477  0.00  0.00    -0.294 N 
ATOM     18  C   UNL     1      36.279 -19.234 -20.598  0.00  0.00    +0.290 C 
ATOM     19  H   UNL     1      34.506 -20.210 -20.845  0.00  0.00    +0.150 HD
BRANCH  17  20
ATOM     20  C   UNL     1      35.777 -21.543 -19.835  0.00  0.00    +0.117 C 
BRANCH  20  24
ATOM     21  O   UNL     1      31.716 -23.345 -16.335  0.00  0.00    -0.464 OA
ATOM     22  O   UNL     1      33.735 -24.900 -13.772  0.00  0.00    -0.271 OA
ATOM     23  N   UNL     1      34.426 -23.842 -15.694  0.00  0.00    -0.279 N 
ATOM     24  C   UNL     1      34.713 -22.017 -18.889  0.00  0.00    -0.001 C 
ATOM     25  C   UNL     1      34.075 -23.129 -16.844  0.00  0.00    +0.085 C 
ATOM     26  C   UNL     1      35.069 -22.697 -17.724  0.00  0.00    +0.015 C 
ATOM     27  C   UNL     1      32.731 -22.893 -17.130  0.00  0.00    +0.153 C 
ATOM     28  C   UNL     1      33.368 -21.782 -19.178  0.00  0.00    +0.001 C 
ATOM     29  C   UNL     1      32.376 -22.227 -18.304  0.00  0.00    +0.038 C 
ATOM     30  C   UNL     1      32.106 -23.628 -15.004  0.00  0.00    +0.290 C 
ATOM     31  C   UNL     1      33.486 -24.216 -14.762  0.00  0.00    +0.271 C 
ATOM     32  H   UNL     1      35.369 -24.083 -15.546  0.00  0.00    +0.155 HD
ENDBRANCH  20  24
ENDBRANCH  17  20
ENDBRANCH  14  18
BRANCH   5  33
ATOM     33  C   UNL     1      32.131 -13.583 -22.176  0.00  0.00    +0.089 C 
BRANCH  33  36
ATOM     34  O   UNL     1      31.456 -11.380 -21.417  0.00  0.00    -0.275 OA
ATOM     35  N   UNL     1      32.333 -12.871 -19.901  0.00  0.00    -0.329 N 
ATOM     36  C   UNL     1      31.927 -12.485 -21.160  0.00  0.00    +0.220 C 
ATOM     37  H   UNL     1      32.254 -12.246 -19.145  0.00  0.00    +0.145 HD
ATOM     38  H   UNL     1      32.703 -13.772 -19.758  0.00  0.00    +0.145 HD
ENDBRANCH  33  36
ENDBRANCH   5  33
TORSDOF 5
ENDMDL
MODEL 3
REMARK VINA RESULT:     -11.9      1.894      2.900
REMARK  Name = 25174099
REMARK  5 active torsions:
REMARK  status: ('A' for Active; 'I' for Inactive)
REMARK    1  A    between atoms: C_5  and  C_33
REMARK    2  A    between atoms: C_14  and  C_18
REMARK    3  A    between atoms: N_17  and  C_20
REMARK    4  A    between atoms: C_20  and  C_24
REMARK    5  A    between atoms: C_33  and  C_36
REMARK                            x       y       z     vdW  Elec       q    Type
REMARK                         _______ _______ _______ _____ _____    ______ ____
ROOT
ATOM      1  S   UNL     1      37.060 -22.377 -16.019  0.00  0.00    -0.064 S 
ATOM      2  O   UNL     1      32.723 -22.785 -18.352  0.00  0.00    -0.274 OA
ATOM      3  N   UNL     1      36.594 -21.335 -18.440  0.00  0.00    -0.379 NA
ATOM      4  N   UNL     1      34.427 -21.633 -19.406  0.00  0.00    -0.255 N 
ATOM      5  C   UNL     1      33.363 -23.879 -15.483  0.00  0.00    +0.028 C 
ATOM      6  C   UNL     1      33.693 -24.883 -14.350  0.00  0.00    +0.005 C 
ATOM      7  C   UNL     1      34.622 -23.222 -15.996  0.00  0.00    -0.027 C 
ATOM      8  C   UNL     1      34.649 -24.292 -13.305  0.00  0.00    +0.006 C 
ATOM      9  C   UNL     1      35.989 -23.879 -13.926  0.00  0.00    +0.032 C 
ATOM     10  C   UNL     1      35.789 -23.208 -15.251  0.00  0.00    +0.002 C 
ATOM     11  C   UNL     1      34.811 -22.553 -17.251  0.00  0.00    +0.154 C 
ATOM     12  C   UNL     1      36.093 -22.035 -17.382  0.00  0.00    +0.152 C 
ATOM     13  C   UNL     1      33.872 -22.355 -18.351  0.00  0.00    +0.239 C 
ATOM     14  C   UNL     1      35.734 -21.168 -19.397  0.00  0.00    +0.240 C 
ATOM     15  H   UNL     1      33.866 -21.443 -20.193  0.00  0.00    +0.157 HD
ENDROOT
BRANCH  14  18
ATOM     16  O   UNL     1      37.277 -19.965 -20.644  0.00  0.00    -0.266 OA
ATOM     17  N   UNL     1      35.155 -20.348 -21.567  0.00  0.00    -0.294 N 
ATOM     18  C   UNL     1      36.143 -20.424 -20.609  0.00  0.00    +0.290 C 
ATOM     19  H   UNL     1      34.289 -20.777 -21.380  0.00  0.00    +0.150 HD
BRANCH  17  20
ATOM     20  C   UNL     1      35.331 -19.672 -22.831  0.00  0.00    +0.117 C 
BRANCH  20  24
ATOM     21  O   UNL     1      34.244 -14.138 -22.396  0.00  0.00    -0.464 OA
ATOM     22  O   UNL     1      33.184 -13.434 -25.779  0.00  0.00    -0.271 OA
ATOM     23  N   UNL     1      33.865 -15.439 -24.879  0.00  0.00    -0.279 N 
ATOM     24  C   UNL     1      35.025 -18.205 -22.730  0.00  0.00    -0.001 C 
ATOM     25  C   UNL     1      34.284 -16.148 -23.750  0.00  0.00    +0.085 C 
ATOM     26  C   UNL     1      34.573 -17.509 -23.852  0.00  0.00    +0.015 C 
ATOM     27  C   UNL     1      34.455 -15.481 -22.537  0.00  0.00    +0.153 C 
ATOM     28  C   UNL     1      35.200 -17.540 -21.517  0.00  0.00    +0.001 C 
ATOM     29  C   UNL     1      34.922 -16.176 -21.421  0.00  0.00    +0.038 C 
ATOM     30  C   UNL     1      33.403 -13.578 -23.387  0.00  0.00    +0.290 C 
ATOM     31  C   UNL     1      33.493 -14.116 -24.804  0.00  0.00    +0.271 C 
ATOM     32  H   UNL     1      33.834 -15.897 -25.750  0.00  0.00    +0.155 HD
ENDBRANCH  20  24
ENDBRANCH  17  20
ENDBRANCH  14  18
BRANCH   5  33
ATOM     33  C   UNL     1      32.350 -22.834 -15.002  0.00  0.00    +0.089 C 
BRANCH  33  36
ATOM     34  O   UNL     1      30.219 -23.772 -14.322  0.00  0.00    -0.275 OA
ATOM     35  N   UNL     1      30.508 -23.108 -16.505  0.00  0.00    -0.329 N 
ATOM     36  C   UNL     1      30.926 -23.292 -15.204  0.00  0.00    +0.220 C 
ATOM     37  H   UNL     1      29.596 -23.366 -16.770  0.00  0.00    +0.145 HD
ATOM     38  H   UNL     1      31.122 -22.718 -17.168  0.00  0.00    +0.145 HD
ENDBRANCH  33  36
ENDBRANCH   5  33
TORSDOF 5
ENDMDL
MODEL 4
REMARK VINA RESULT:     -11.4      4.332     11.377
REMARK  Name = 25174099
REMARK  5 active torsions:
REMARK  status: ('A' for Active; 'I' for Inactive)
REMARK    1  A    between atoms: C_5  and  C_33
REMARK    2  A    between atoms: C_14  and  C_18
REMARK    3  A    between atoms: N_17  and  C_20
REMARK    4  A    between atoms: C_20  and  C_24
REMARK    5  A    between atoms: C_33  and  C_36
REMARK                            x       y       z     vdW  Elec       q    Type
REMARK                         _______ _______ _______ _____ _____    ______ ____
ROOT
ATOM      1  S   UNL     1      32.568 -13.463 -20.085  0.00  0.00    -0.064 S 
ATOM      2  O   UNL     1      33.761 -12.873 -24.844  0.00  0.00    -0.274 OA
ATOM      3  N   UNL     1      33.824 -15.338 -21.525  0.00  0.00    -0.379 NA
ATOM      4  N   UNL     1      34.322 -14.866 -23.816  0.00  0.00    -0.255 N 
ATOM      5  C   UNL     1      32.376 -10.723 -23.028  0.00  0.00    +0.028 C 
ATOM      6  C   UNL     1      31.266  -9.826 -22.426  0.00  0.00    +0.005 C 
ATOM      7  C   UNL     1      32.594 -11.948 -22.173  0.00  0.00    -0.027 C 
ATOM      8  C   UNL     1      31.448  -9.603 -20.918  0.00  0.00    +0.006 C 
ATOM      9  C   UNL     1      31.415 -10.924 -20.138  0.00  0.00    +0.032 C 
ATOM     10  C   UNL     1      32.178 -11.996 -20.854  0.00  0.00    +0.002 C 
ATOM     11  C   UNL     1      33.221 -13.181 -22.554  0.00  0.00    +0.154 C 
ATOM     12  C   UNL     1      33.283 -14.086 -21.503  0.00  0.00    +0.152 C 
ATOM     13  C   UNL     1      33.778 -13.583 -23.843  0.00  0.00    +0.239 C 
ATOM     14  C   UNL     1      34.317 -15.662 -22.680  0.00  0.00    +0.240 C 
ATOM     15  H   UNL     1      34.728 -15.223 -24.639  0.00  0.00    +0.157 HD
ENDROOT
BRANCH  14  18
ATOM     16  O   UNL     1      35.108 -17.410 -23.986  0.00  0.00    -0.266 OA
ATOM     17  N   UNL     1      35.252 -17.608 -21.653  0.00  0.00    -0.294 N 
ATOM     18  C   UNL     1      34.938 -16.996 -22.847  0.00  0.00    +0.290 C 
ATOM     19  H   UNL     1      35.048 -17.133 -20.816  0.00  0.00    +0.150 HD
BRANCH  17  20
ATOM     20  C   UNL     1      35.867 -18.913 -21.573  0.00  0.00    +0.117 C 
BRANCH  20  24
ATOM     21  O   UNL     1      32.709 -22.549 -18.605  0.00  0.00    -0.464 OA
ATOM     22  O   UNL     1      35.210 -23.866 -16.353  0.00  0.00    -0.271 OA
ATOM     23  N   UNL     1      35.462 -22.288 -18.008  0.00  0.00    -0.279 N 
ATOM     24  C   UNL     1      35.041 -19.873 -20.767  0.00  0.00    -0.001 C 
ATOM     25  C   UNL     1      34.862 -21.509 -19.002  0.00  0.00    +0.085 C 
ATOM     26  C   UNL     1      35.636 -20.623 -19.752  0.00  0.00    +0.015 C 
ATOM     27  C   UNL     1      33.501 -21.654 -19.269  0.00  0.00    +0.153 C 
ATOM     28  C   UNL     1      33.680 -20.020 -21.038  0.00  0.00    +0.001 C 
ATOM     29  C   UNL     1      32.911 -20.915 -20.295  0.00  0.00    +0.038 C 
ATOM     30  C   UNL     1      33.219 -22.951 -17.348  0.00  0.00    +0.290 C 
ATOM     31  C   UNL     1      34.722 -23.113 -17.193  0.00  0.00    +0.271 C 
ATOM     32  H   UNL     1      36.438 -22.245 -17.888  0.00  0.00    +0.155 HD
ENDBRANCH  20  24
ENDBRANCH  17  20
ENDBRANCH  14  18
BRANCH   5  33
ATOM     33  C   UNL     1      33.677  -9.930 -23.202  0.00  0.00    +0.089 C 
BRANCH  33  36
ATOM     34  O   UNL     1      32.746  -8.065 -24.442  0.00  0.00    -0.275 OA
ATOM     35  N   UNL     1      34.021  -7.648 -22.574  0.00  0.00    -0.329 N 
ATOM     36  C   UNL     1      33.416  -8.473 -23.497  0.00  0.00    +0.220 C 
ATOM     37  H   UNL     1      33.929  -6.671 -22.652  0.00  0.00    +0.145 HD
ATOM     38  H   UNL     1      34.546  -8.035 -21.837  0.00  0.00    +0.145 HD
ENDBRANCH  33  36
ENDBRANCH   5  33
TORSDOF 5
ENDMDL
MODEL 5
REMARK VINA RESULT:     -11.4      3.692     10.338
REMARK  Name = 25174099
REMARK  5 active torsions:
REMARK  status: ('A' for Active; 'I' for Inactive)
REMARK    1  A    between atoms: C_5  and  C_33
REMARK    2  A    between atoms: C_14  and  C_18
REMARK    3  A    between atoms: N_17  and  C_20
REMARK    4  A    between atoms: C_20  and  C_24
REMARK    5  A    between atoms: C_33  and  C_36
REMARK                            x       y       z     vdW  Elec       q    Type
REMARK                         _______ _______ _______ _____ _____    ______ ____
ROOT
ATOM      1  S   UNL     1      34.263 -16.063 -24.716  0.00  0.00    -0.064 S 
ATOM      2  O   UNL     1      34.553 -15.360 -19.834  0.00  0.00    -0.274 OA
ATOM      3  N   UNL     1      35.058 -17.963 -23.006  0.00  0.00    -0.379 NA
ATOM      4  N   UNL     1      35.129 -17.435 -20.675  0.00  0.00    -0.255 N 
ATOM      5  C   UNL     1      33.551 -13.249 -21.926  0.00  0.00    +0.028 C 
ATOM      6  C   UNL     1      33.553 -12.010 -22.855  0.00  0.00    +0.005 C 
ATOM      7  C   UNL     1      33.923 -14.493 -22.697  0.00  0.00    -0.027 C 
ATOM      8  C   UNL     1      32.807 -12.264 -24.173  0.00  0.00    +0.006 C 
ATOM      9  C   UNL     1      33.438 -13.411 -24.973  0.00  0.00    +0.032 C 
ATOM     10  C   UNL     1      33.828 -14.547 -24.077  0.00  0.00    +0.002 C 
ATOM     11  C   UNL     1      34.405 -15.738 -22.171  0.00  0.00    +0.154 C 
ATOM     12  C   UNL     1      34.617 -16.683 -23.167  0.00  0.00    +0.152 C 
ATOM     13  C   UNL     1      34.685 -16.118 -20.789  0.00  0.00    +0.239 C 
ATOM     14  C   UNL     1      35.289 -18.273 -21.768  0.00  0.00    +0.240 C 
ATOM     15  H   UNL     1      35.337 -17.785 -19.779  0.00  0.00    +0.157 HD
ENDROOT
BRANCH  14  18
ATOM     16  O   UNL     1      35.636 -20.507 -22.295  0.00  0.00    -0.266 OA
ATOM     17  N   UNL     1      36.331 -19.738 -20.191  0.00  0.00    -0.294 N 
ATOM     18  C   UNL     1      35.773 -19.635 -21.447  0.00  0.00    +0.290 C 
ATOM     19  H   UNL     1      36.365 -18.932 -19.627  0.00  0.00    +0.150 HD
BRANCH  17  20
ATOM     20  C   UNL     1      36.871 -20.970 -19.665  0.00  0.00    +0.117 C 
BRANCH  20  24
ATOM     21  O   UNL     1      33.121 -23.702 -16.429  0.00  0.00    -0.464 OA
ATOM     22  O   UNL     1      35.117 -24.241 -13.466  0.00  0.00    -0.271 OA
ATOM     23  N   UNL     1      35.716 -23.195 -15.425  0.00  0.00    -0.279 N 
ATOM     24  C   UNL     1      35.884 -21.685 -18.788  0.00  0.00    -0.001 C 
ATOM     25  C   UNL     1      35.334 -22.753 -16.695  0.00  0.00    +0.085 C 
ATOM     26  C   UNL     1      36.258 -22.094 -17.508  0.00  0.00    +0.015 C 
ATOM     27  C   UNL     1      34.045 -23.010 -17.160  0.00  0.00    +0.153 C 
ATOM     28  C   UNL     1      34.596 -21.945 -19.257  0.00  0.00    +0.001 C 
ATOM     29  C   UNL     1      33.678 -22.615 -18.447  0.00  0.00    +0.038 C 
ATOM     30  C   UNL     1      33.373 -23.712 -15.037  0.00  0.00    +0.290 C 
ATOM     31  C   UNL     1      34.815 -23.776 -14.563  0.00  0.00    +0.271 C 
ATOM     32  H   UNL     1      36.652 -23.089 -15.141  0.00  0.00    +0.155 HD
ENDBRANCH  20  24
ENDBRANCH  17  20
ENDBRANCH  14  18
BRANCH   5  33
ATOM     33  C   UNL     1      32.191 -13.410 -21.240  0.00  0.00    +0.089 C 
BRANCH  33  36
ATOM     34  O   UNL     1      32.256 -11.612 -19.612  0.00  0.00    -0.275 OA
ATOM     35  N   UNL     1      30.636 -11.592 -21.243  0.00  0.00    -0.329 N 
ATOM     36  C   UNL     1      31.728 -12.126 -20.595  0.00  0.00    +0.220 C 
ATOM     37  H   UNL     1      30.235 -10.752 -20.922  0.00  0.00    +0.145 HD
ATOM     38  H   UNL     1      30.256 -12.050 -22.027  0.00  0.00    +0.145 HD
ENDBRANCH  33  36
ENDBRANCH   5  33
TORSDOF 5
ENDMDL
MODEL 6
REMARK VINA RESULT:     -11.4      2.501      4.197
REMARK  Name = 25174099
REMARK  5 active torsions:
REMARK  status: ('A' for Active; 'I' for Inactive)
REMARK    1  A    between atoms: C_5  and  C_33
REMARK    2  A    between atoms: C_14  and  C_18
REMARK    3  A    between atoms: N_17  and  C_20
REMARK    4  A    between atoms: C_20  and  C_24
REMARK    5  A    between atoms: C_33  and  C_36
REMARK                            x       y       z     vdW  Elec       q    Type
REMARK                         _______ _______ _______ _____ _____    ______ ____
ROOT
ATOM      1  S   UNL     1      31.498 -23.180 -16.573  0.00  0.00    -0.064 S 
ATOM      2  O   UNL     1      36.402 -22.672 -16.904  0.00  0.00    -0.274 OA
ATOM      3  N   UNL     1      32.713 -21.991 -18.641  0.00  0.00    -0.379 NA
ATOM      4  N   UNL     1      35.100 -21.844 -18.625  0.00  0.00    -0.255 N 
ATOM      5  C   UNL     1      34.869 -24.123 -14.584  0.00  0.00    +0.028 C 
ATOM      6  C   UNL     1      34.242 -24.373 -13.190  0.00  0.00    +0.005 C 
ATOM      7  C   UNL     1      33.827 -23.618 -15.554  0.00  0.00    -0.027 C 
ATOM      8  C   UNL     1      32.926 -25.158 -13.273  0.00  0.00    +0.006 C 
ATOM      9  C   UNL     1      31.869 -24.415 -14.100  0.00  0.00    +0.032 C 
ATOM     10  C   UNL     1      32.474 -23.797 -15.323  0.00  0.00    +0.002 C 
ATOM     11  C   UNL     1      34.046 -22.918 -16.786  0.00  0.00    +0.154 C 
ATOM     12  C   UNL     1      32.858 -22.632 -17.446  0.00  0.00    +0.152 C 
ATOM     13  C   UNL     1      35.298 -22.490 -17.406  0.00  0.00    +0.239 C 
ATOM     14  C   UNL     1      33.842 -21.632 -19.170  0.00  0.00    +0.240 C 
ATOM     15  H   UNL     1      35.888 -21.525 -19.122  0.00  0.00    +0.157 HD
ENDROOT
BRANCH  14  18
ATOM     16  O   UNL     1      32.751 -20.615 -20.948  0.00  0.00    -0.266 OA
ATOM     17  N   UNL     1      35.094 -20.706 -20.984  0.00  0.00    -0.294 N 
ATOM     18  C   UNL     1      33.834 -20.925 -20.471  0.00  0.00    +0.290 C 
ATOM     19  H   UNL     1      35.871 -21.022 -20.469  0.00  0.00    +0.150 HD
BRANCH  17  20
ATOM     20  C   UNL     1      35.329 -20.033 -22.241  0.00  0.00    +0.117 C 
BRANCH  20  24
ATOM     21  O   UNL     1      34.529 -14.452 -21.790  0.00  0.00    -0.464 OA
ATOM     22  O   UNL     1      33.540 -13.679 -25.179  0.00  0.00    -0.271 OA
ATOM     23  N   UNL     1      34.106 -15.721 -24.282  0.00  0.00    -0.279 N 
ATOM     24  C   UNL     1      35.100 -18.553 -22.136  0.00  0.00    -0.001 C 
ATOM     25  C   UNL     1      34.477 -16.455 -23.152  0.00  0.00    +0.085 C 
ATOM     26  C   UNL     1      34.695 -17.829 -23.258  0.00  0.00    +0.015 C 
ATOM     27  C   UNL     1      34.671 -15.803 -21.935  0.00  0.00    +0.153 C 
ATOM     28  C   UNL     1      35.297 -17.902 -20.917  0.00  0.00    +0.001 C 
ATOM     29  C   UNL     1      35.090 -16.526 -20.818  0.00  0.00    +0.038 C 
ATOM     30  C   UNL     1      33.728 -13.844 -22.785  0.00  0.00    +0.290 C 
ATOM     31  C   UNL     1      33.804 -14.381 -24.205  0.00  0.00    +0.271 C 
ATOM     32  H   UNL     1      34.060 -16.173 -25.156  0.00  0.00    +0.155 HD
ENDBRANCH  20  24
ENDBRANCH  17  20
ENDBRANCH  14  18
BRANCH   5  33
ATOM     33  C   UNL     1      35.546 -25.394 -15.110  0.00  0.00    +0.089 C 
BRANCH  33  36
ATOM     34  O   UNL     1      37.266 -26.477 -13.787  0.00  0.00    -0.275 OA
ATOM     35  N   UNL     1      37.794 -24.586 -14.986  0.00  0.00    -0.329 N 
ATOM     36  C   UNL     1      36.934 -25.570 -14.546  0.00  0.00    +0.220 C 
ATOM     37  H   UNL     1      38.733 -24.585 -14.691  0.00  0.00    +0.145 HD
ATOM     38  H   UNL     1      37.469 -23.885 -15.595  0.00  0.00    +0.145 HD
ENDBRANCH  33  36
ENDBRANCH   5  33
TORSDOF 5
ENDMDL
MODEL 7
REMARK VINA RESULT:     -11.3      4.966     11.828
REMARK  Name = 25174099
REMARK  5 active torsions:
REMARK  status: ('A' for Active; 'I' for Inactive)
REMARK    1  A    between atoms: C_5  and  C_33
REMARK    2  A    between atoms: C_14  and  C_18
REMARK    3  A    between atoms: N_17  and  C_20
REMARK    4  A    between atoms: C_20  and  C_24
REMARK    5  A    between atoms: C_33  and  C_36
REMARK                            x       y       z     vdW  Elec       q    Type
REMARK                         _______ _______ _______ _____ _____    ______ ____
ROOT
ATOM      1  S   UNL     1      32.249 -12.833 -20.187  0.00  0.00    -0.064 S 
ATOM      2  O   UNL     1      33.086 -10.933 -24.671  0.00  0.00    -0.274 OA
ATOM      3  N   UNL     1      33.105 -14.293 -22.261  0.00  0.00    -0.379 NA
ATOM      4  N   UNL     1      33.459 -13.192 -24.355  0.00  0.00    -0.255 N 
ATOM      5  C   UNL     1      32.172  -9.316 -22.143  0.00  0.00    +0.028 C 
ATOM      6  C   UNL     1      31.251  -8.539 -21.170  0.00  0.00    +0.005 C 
ATOM      7  C   UNL     1      32.296 -10.761 -21.722  0.00  0.00    -0.027 C 
ATOM      8  C   UNL     1      31.594  -8.811 -19.698  0.00  0.00    +0.006 C 
ATOM      9  C   UNL     1      31.451 -10.297 -19.344  0.00  0.00    +0.032 C 
ATOM     10  C   UNL     1      31.995 -11.169 -20.434  0.00  0.00    +0.002 C 
ATOM     11  C   UNL     1      32.713 -11.874 -22.525  0.00  0.00    +0.154 C 
ATOM     12  C   UNL     1      32.744 -13.060 -21.804  0.00  0.00    +0.152 C 
ATOM     13  C   UNL     1      33.094 -11.914 -23.934  0.00  0.00    +0.239 C 
ATOM     14  C   UNL     1      33.446 -14.294 -23.513  0.00  0.00    +0.240 C 
ATOM     15  H   UNL     1      33.738 -13.318 -25.290  0.00  0.00    +0.157 HD
ENDROOT
BRANCH  14  18
ATOM     16  O   UNL     1      33.614 -15.729 -25.329  0.00  0.00    -0.266 OA
ATOM     17  N   UNL     1      34.497 -16.428 -23.272  0.00  0.00    -0.294 N 
ATOM     18  C   UNL     1      33.863 -15.568 -24.142  0.00  0.00    +0.290 C 
ATOM     19  H   UNL     1      34.620 -16.142 -22.338  0.00  0.00    +0.150 HD
BRANCH  17  20
ATOM     20  C   UNL     1      34.992 -17.727 -23.666  0.00  0.00    +0.117 C 
BRANCH  20  24
ATOM     21  O   UNL     1      36.050 -20.991 -19.168  0.00  0.00    -0.464 OA
ATOM     22  O   UNL     1      32.777 -22.432 -18.649  0.00  0.00    -0.271 OA
ATOM     23  N   UNL     1      33.442 -20.931 -20.261  0.00  0.00    -0.279 N 
ATOM     24  C   UNL     1      35.259 -18.609 -22.480  0.00  0.00    -0.001 C 
ATOM     25  C   UNL     1      34.481 -20.193 -20.834  0.00  0.00    +0.085 C 
ATOM     26  C   UNL     1      34.226 -19.371 -21.932  0.00  0.00    +0.015 C 
ATOM     27  C   UNL     1      35.759 -20.249 -20.278  0.00  0.00    +0.153 C 
ATOM     28  C   UNL     1      36.537 -18.660 -21.923  0.00  0.00    +0.001 C 
ATOM     29  C   UNL     1      36.786 -19.474 -20.818  0.00  0.00    +0.038 C 
ATOM     30  C   UNL     1      35.136 -22.042 -18.919  0.00  0.00    +0.290 C 
ATOM     31  C   UNL     1      33.667 -21.814 -19.230  0.00  0.00    +0.271 C 
ATOM     32  H   UNL     1      32.526 -20.816 -20.602  0.00  0.00    +0.155 HD
ENDBRANCH  20  24
ENDBRANCH  17  20
ENDBRANCH  14  18
BRANCH   5  33
ATOM     33  C   UNL     1      33.548  -8.647 -22.238  0.00  0.00    +0.089 C 
BRANCH  33  36
ATOM     34  O   UNL     1      34.233  -6.529 -23.202  0.00  0.00    -0.275 OA
ATOM     35  N   UNL     1      32.783  -7.879 -24.371  0.00  0.00    -0.329 N 
ATOM     36  C   UNL     1      33.579  -7.565 -23.290  0.00  0.00    +0.220 C 
ATOM     37  H   UNL     1      32.715  -7.255 -25.129  0.00  0.00    +0.145 HD
ATOM     38  H   UNL     1      32.282  -8.726 -24.383  0.00  0.00    +0.145 HD
ENDBRANCH  33  36
ENDBRANCH   5  33
TORSDOF 5
ENDMDL
MODEL 8
REMARK VINA RESULT:     -11.1      2.140      3.286
REMARK  Name = 25174099
REMARK  5 active torsions:
REMARK  status: ('A' for Active; 'I' for Inactive)
REMARK    1  A    between atoms: C_5  and  C_33
REMARK    2  A    between atoms: C_14  and  C_18
REMARK    3  A    between atoms: N_17  and  C_20
REMARK    4  A    between atoms: C_20  and  C_24
REMARK    5  A    between atoms: C_33  and  C_36
REMARK                            x       y       z     vdW  Elec       q    Type
REMARK                         _______ _______ _______ _____ _____    ______ ____
ROOT
ATOM      1  S   UNL     1      37.003 -22.069 -16.781  0.00  0.00    -0.064 S 
ATOM      2  O   UNL     1      32.407 -22.712 -18.479  0.00  0.00    -0.274 OA
ATOM      3  N   UNL     1      36.131 -21.021 -19.085  0.00  0.00    -0.379 NA
ATOM      4  N   UNL     1      33.868 -21.439 -19.738  0.00  0.00    -0.255 N 
ATOM      5  C   UNL     1      33.519 -23.808 -15.759  0.00  0.00    +0.028 C 
ATOM      6  C   UNL     1      34.068 -24.807 -14.710  0.00  0.00    +0.005 C 
ATOM      7  C   UNL     1      34.649 -23.066 -16.431  0.00  0.00    -0.027 C 
ATOM      8  C   UNL     1      35.128 -24.174 -13.798  0.00  0.00    +0.006 C 
ATOM      9  C   UNL     1      36.337 -23.667 -14.595  0.00  0.00    +0.032 C 
ATOM     10  C   UNL     1      35.908 -22.990 -15.860  0.00  0.00    +0.002 C 
ATOM     11  C   UNL     1      34.615 -22.367 -17.683  0.00  0.00    +0.154 C 
ATOM     12  C   UNL     1      35.830 -21.767 -17.983  0.00  0.00    +0.152 C 
ATOM     13  C   UNL     1      33.516 -22.211 -18.632  0.00  0.00    +0.239 C 
ATOM     14  C   UNL     1      35.133 -20.894 -19.904  0.00  0.00    +0.240 C 
ATOM     15  H   UNL     1      33.190 -21.272 -20.432  0.00  0.00    +0.157 HD
ENDROOT
BRANCH  14  18
ATOM     16  O   UNL     1      34.561 -20.326 -22.081  0.00  0.00    -0.266 OA
ATOM     17  N   UNL     1      36.354 -19.201 -21.070  0.00  0.00    -0.294 N 
ATOM     18  C   UNL     1      35.318 -20.106 -21.144  0.00  0.00    +0.290 C 
ATOM     19  H   UNL     1      36.871 -19.149 -20.234  0.00  0.00    +0.150 HD
BRANCH  17  20
ATOM     20  C   UNL     1      36.717 -18.325 -22.160  0.00  0.00    +0.117 C 
BRANCH  20  24
ATOM     21  O   UNL     1      32.828 -14.312 -23.038  0.00  0.00    -0.464 OA
ATOM     22  O   UNL     1      32.423 -13.077 -19.666  0.00  0.00    -0.271 OA
ATOM     23  N   UNL     1      33.802 -14.756 -20.420  0.00  0.00    -0.279 N 
ATOM     24  C   UNL     1      35.694 -17.247 -22.377  0.00  0.00    -0.001 C 
ATOM     25  C   UNL     1      34.290 -15.489 -21.506  0.00  0.00    +0.085 C 
ATOM     26  C   UNL     1      35.236 -16.494 -21.296  0.00  0.00    +0.015 C 
ATOM     27  C   UNL     1      33.797 -15.243 -22.786  0.00  0.00    +0.153 C 
ATOM     28  C   UNL     1      35.200 -17.005 -23.659  0.00  0.00    +0.001 C 
ATOM     29  C   UNL     1      34.245 -16.008 -23.863  0.00  0.00    +0.038 C 
ATOM     30  C   UNL     1      32.714 -13.313 -22.044  0.00  0.00    +0.290 C 
ATOM     31  C   UNL     1      32.931 -13.705 -20.592  0.00  0.00    +0.271 C 
ATOM     32  H   UNL     1      34.088 -14.997 -19.509  0.00  0.00    +0.155 HD
ENDBRANCH  20  24
ENDBRANCH  17  20
ENDBRANCH  14  18
BRANCH   5  33
ATOM     33  C   UNL     1      32.525 -22.836 -15.113  0.00  0.00    +0.089 C 
BRANCH  33  36
ATOM     34  O   UNL     1      30.529 -23.928 -14.271  0.00  0.00    -0.275 OA
ATOM     35  N   UNL     1      30.529 -23.082 -16.409  0.00  0.00    -0.329 N 
ATOM     36  C   UNL     1      31.107 -23.347 -15.186  0.00  0.00    +0.220 C 
ATOM     37  H   UNL     1      29.603 -23.364 -16.588  0.00  0.00    +0.145 HD
ATOM     38  H   UNL     1      31.044 -22.612 -17.104  0.00  0.00    +0.145 HD
ENDBRANCH  33  36
ENDBRANCH   5  33
TORSDOF 5
ENDMDL
MODEL 9
REMARK VINA RESULT:     -10.8      9.420     16.099
REMARK  Name = 25174099
REMARK  5 active torsions:
REMARK  status: ('A' for Active; 'I' for Inactive)
REMARK    1  A    between atoms: C_5  and  C_33
REMARK    2  A    between atoms: C_14  and  C_18
REMARK    3  A    between atoms: N_17  and  C_20
REMARK    4  A    between atoms: C_20  and  C_24
REMARK    5  A    between atoms: C_33  and  C_36
REMARK                            x       y       z     vdW  Elec       q    Type
REMARK                         _______ _______ _______ _____ _____    ______ ____
ROOT
ATOM      1  S   UNL     1      31.564  -4.292 -21.669  0.00  0.00    -0.064 S 
ATOM      2  O   UNL     1      33.070  -7.772 -24.836  0.00  0.00    -0.274 OA
ATOM      3  N   UNL     1      31.794  -6.875 -21.007  0.00  0.00    -0.379 NA
ATOM      4  N   UNL     1      32.544  -8.413 -22.679  0.00  0.00    -0.255 N 
ATOM      5  C   UNL     1      32.849  -4.707 -25.462  0.00  0.00    +0.028 C 
ATOM      6  C   UNL     1      32.297  -3.376 -26.031  0.00  0.00    +0.005 C 
ATOM      7  C   UNL     1      32.406  -4.899 -24.031  0.00  0.00    -0.027 C 
ATOM      8  C   UNL     1      32.509  -2.197 -25.070  0.00  0.00    +0.006 C 
ATOM      9  C   UNL     1      31.805  -2.424 -23.726  0.00  0.00    +0.032 C 
ATOM     10  C   UNL     1      31.971  -3.836 -23.257  0.00  0.00    +0.002 C 
ATOM     11  C   UNL     1      32.364  -6.123 -23.285  0.00  0.00    +0.154 C 
ATOM     12  C   UNL     1      31.935  -5.928 -21.978  0.00  0.00    +0.152 C 
ATOM     13  C   UNL     1      32.699  -7.481 -23.704  0.00  0.00    +0.239 C 
ATOM     14  C   UNL     1      32.108  -8.069 -21.408  0.00  0.00    +0.240 C 
ATOM     15  H   UNL     1      32.754  -9.357 -22.864  0.00  0.00    +0.157 HD
ENDROOT
BRANCH  14  18
ATOM     16  O   UNL     1      32.240  -8.975 -19.275  0.00  0.00    -0.266 OA
ATOM     17  N   UNL     1      31.638 -10.385 -21.049  0.00  0.00    -0.294 N 
ATOM     18  C   UNL     1      32.003  -9.197 -20.455  0.00  0.00    +0.290 C 
ATOM     19  H   UNL     1      31.482 -10.394 -22.021  0.00  0.00    +0.150 HD
BRANCH  17  20
ATOM     20  C   UNL     1      31.472 -11.618 -20.314  0.00  0.00    +0.117 C 
BRANCH  20  24
ATOM     21  O   UNL     1      34.545 -15.864 -22.443  0.00  0.00    -0.464 OA
ATOM     22  O   UNL     1      33.617 -15.629 -25.928  0.00  0.00    -0.271 OA
ATOM     23  N   UNL     1      32.907 -14.331 -24.167  0.00  0.00    -0.279 N 
ATOM     24  C   UNL     1      32.291 -12.733 -20.898  0.00  0.00    -0.001 C 
ATOM     25  C   UNL     1      32.995 -14.036 -22.803  0.00  0.00    +0.085 C 
ATOM     26  C   UNL     1      32.227 -13.002 -22.265  0.00  0.00    +0.015 C 
ATOM     27  C   UNL     1      33.817 -14.804 -21.980  0.00  0.00    +0.153 C 
ATOM     28  C   UNL     1      33.110 -13.503 -20.071  0.00  0.00    +0.001 C 
ATOM     29  C   UNL     1      33.868 -14.543 -20.610  0.00  0.00    +0.038 C 
ATOM     30  C   UNL     1      34.789 -15.832 -23.836  0.00  0.00    +0.290 C 
ATOM     31  C   UNL     1      33.705 -15.287 -24.751  0.00  0.00    +0.271 C 
ATOM     32  H   UNL     1      32.257 -13.844 -24.723  0.00  0.00    +0.155 HD
ENDBRANCH  20  24
ENDBRANCH  17  20
ENDBRANCH  14  18
BRANCH   5  33
ATOM     33  C   UNL     1      34.376  -4.756 -25.581  0.00  0.00    +0.089 C 
BRANCH  33  36
ATOM     34  O   UNL     1      35.624  -4.800 -27.660  0.00  0.00    -0.275 OA
ATOM     35  N   UNL     1      34.220  -6.550 -27.155  0.00  0.00    -0.329 N 
ATOM     36  C   UNL     1      34.822  -5.337 -26.900  0.00  0.00    +0.220 C 
ATOM     37  H   UNL     1      34.426  -7.037 -27.986  0.00  0.00    +0.145 HD
ATOM     38  H   UNL     1      33.585  -6.930 -26.506  0.00  0.00    +0.145 HD
ENDBRANCH  33  36
ENDBRANCH   5  33
TORSDOF 5
ENDMDL
