MODEL 1
REMARK VINA RESULT:     -12.2      0.000      0.000
REMARK  Name = 5289179
REMARK  4 active torsions:
REMARK  status: ('A' for Active; 'I' for Inactive)
REMARK    1  A    between atoms: C_3  and  C_14
REMARK    2  A    between atoms: C_6  and  C_22
REMARK    3  A    between atoms: C_14  and  C_15
REMARK    4  A    between atoms: C_22  and  C_25
REMARK                            x       y       z     vdW  Elec       q    Type
REMARK                         _______ _______ _______ _____ _____    ______ ____
ROOT
ATOM      1  N   UNL     1      34.648 -17.330 -22.979  0.00  0.00    -0.249 N 
ATOM      2  N   UNL     1      34.265 -18.506 -24.843  0.00  0.00    -0.375 NA
ATOM      3  C   UNL     1      35.057 -18.614 -22.719  0.00  0.00    +0.208 C 
ATOM      4  C   UNL     1      34.173 -17.314 -24.288  0.00  0.00    +0.189 C 
ATOM      5  C   UNL     1      34.672 -16.209 -22.152  0.00  0.00    +0.071 C 
ATOM      6  C   UNL     1      34.212 -15.042 -22.634  0.00  0.00    +0.054 C 
ATOM      7  C   UNL     1      34.810 -19.313 -23.877  0.00  0.00    +0.182 C 
ATOM      8  C   UNL     1      33.689 -16.070 -24.787  0.00  0.00    +0.048 C 
ATOM      9  C   UNL     1      33.706 -14.979 -23.997  0.00  0.00    +0.008 C 
ATOM     10  N   UNL     1      35.058 -20.626 -24.085  0.00  0.00    -0.335 N 
ATOM     11  H   UNL     1      34.845 -21.035 -24.954  0.00  0.00    +0.144 HD
ATOM     12  H   UNL     1      35.452 -21.172 -23.366  0.00  0.00    +0.144 HD
ENDROOT
BRANCH   3  14
ATOM     13  O   UNL     1      36.689 -18.680 -20.995  0.00  0.00    -0.289 OA
ATOM     14  C   UNL     1      35.612 -19.080 -21.487  0.00  0.00    +0.200 C 
BRANCH  14  15
ATOM     15  C   UNL     1      34.909 -20.109 -20.654  0.00  0.00    +0.037 C 
ATOM     16  C   UNL     1      33.537 -20.091 -20.615  0.00  0.00    +0.003 C 
ATOM     17  C   UNL     1      35.670 -21.022 -19.967  0.00  0.00    +0.003 C 
ATOM     18  C   UNL     1      32.883 -21.049 -19.840  0.00  0.00    +0.000 C 
ATOM     19  C   UNL     1      35.016 -21.980 -19.191  0.00  0.00    +0.000 C 
ATOM     20  C   UNL     1      33.622 -21.993 -19.129  0.00  0.00    +0.000 C 
ENDBRANCH  14  15
ENDBRANCH   3  14
BRANCH   6  22
ATOM     21  O   UNL     1      35.117 -13.716 -20.926  0.00  0.00    -0.286 OA
ATOM     22  C   UNL     1      34.232 -13.863 -21.770  0.00  0.00    +0.201 C 
BRANCH  22  25
ATOM     23  F   UNL     1      34.462 -11.799 -23.656  0.00  0.00    -0.204 F 
ATOM     24  F   UNL     1      31.896 -13.838 -20.217  0.00  0.00    -0.204 F 
ATOM     25  C   UNL     1      33.182 -12.821 -21.935  0.00  0.00    +0.094 C 
ATOM     26  C   UNL     1      33.366 -11.837 -22.884  0.00  0.00    +0.145 C 
ATOM     27  C   UNL     1      32.061 -12.875 -21.134  0.00  0.00    +0.145 C 
ATOM     28  C   UNL     1      32.382 -10.860 -23.038  0.00  0.00    +0.030 C 
ATOM     29  C   UNL     1      31.078 -11.898 -21.290  0.00  0.00    +0.030 C 
ATOM     30  C   UNL     1      31.239 -10.891 -22.241  0.00  0.00    +0.005 C 
ENDBRANCH  22  25
ENDBRANCH   6  22
TORSDOF 4
ENDMDL
MODEL 2
REMARK VINA RESULT:     -11.0      6.878     10.935
REMARK  Name = 5289179
REMARK  4 active torsions:
REMARK  status: ('A' for Active; 'I' for Inactive)
REMARK    1  A    between atoms: C_3  and  C_14
REMARK    2  A    between atoms: C_6  and  C_22
REMARK    3  A    between atoms: C_14  and  C_15
REMARK    4  A    between atoms: C_22  and  C_25
REMARK                            x       y       z     vdW  Elec       q    Type
REMARK                         _______ _______ _______ _____ _____    ______ ____
ROOT
ATOM      1  N   UNL     1      34.398 -23.520 -15.545  0.00  0.00    -0.249 N 
ATOM      2  N   UNL     1      36.476 -22.797 -15.143  0.00  0.00    -0.375 NA
ATOM      3  C   UNL     1      34.934 -23.185 -16.762  0.00  0.00    +0.208 C 
ATOM      4  C   UNL     1      35.376 -23.266 -14.588  0.00  0.00    +0.189 C 
ATOM      5  C   UNL     1      33.134 -24.022 -15.243  0.00  0.00    +0.071 C 
ATOM      6  C   UNL     1      32.831 -24.278 -13.959  0.00  0.00    +0.054 C 
ATOM      7  C   UNL     1      36.207 -22.744 -16.488  0.00  0.00    +0.182 C 
ATOM      8  C   UNL     1      35.043 -23.542 -13.230  0.00  0.00    +0.048 C 
ATOM      9  C   UNL     1      33.824 -24.027 -12.925  0.00  0.00    +0.008 C 
ATOM     10  N   UNL     1      37.114 -22.308 -17.391  0.00  0.00    -0.335 N 
ATOM     11  H   UNL     1      38.003 -22.013 -17.092  0.00  0.00    +0.144 HD
ATOM     12  H   UNL     1      36.883 -22.288 -18.348  0.00  0.00    +0.144 HD
ENDROOT
BRANCH   3  14
ATOM     13  O   UNL     1      33.700 -24.316 -18.448  0.00  0.00    -0.289 OA
ATOM     14  C   UNL     1      34.270 -23.287 -18.024  0.00  0.00    +0.200 C 
BRANCH  14  15
ATOM     15  C   UNL     1      34.190 -22.118 -18.960  0.00  0.00    +0.037 C 
ATOM     16  C   UNL     1      32.962 -21.554 -19.197  0.00  0.00    +0.003 C 
ATOM     17  C   UNL     1      35.351 -21.668 -19.540  0.00  0.00    +0.003 C 
ATOM     18  C   UNL     1      32.889 -20.467 -20.068  0.00  0.00    +0.000 C 
ATOM     19  C   UNL     1      35.278 -20.581 -20.411  0.00  0.00    +0.000 C 
ATOM     20  C   UNL     1      34.046 -19.980 -20.675  0.00  0.00    +0.000 C 
ENDBRANCH  14  15
ENDBRANCH   3  14
BRANCH   6  22
ATOM     21  O   UNL     1      31.346 -25.565 -12.680  0.00  0.00    -0.286 OA
ATOM     22  C   UNL     1      31.505 -24.802 -13.635  0.00  0.00    +0.201 C 
BRANCH  22  25
ATOM     23  F   UNL     1      30.680 -22.128 -13.808  0.00  0.00    -0.204 F 
ATOM     24  F   UNL     1      29.988 -26.643 -15.111  0.00  0.00    -0.204 F 
ATOM     25  C   UNL     1      30.337 -24.387 -14.457  0.00  0.00    +0.094 C 
ATOM     26  C   UNL     1      29.991 -23.052 -14.492  0.00  0.00    +0.145 C 
ATOM     27  C   UNL     1      29.639 -25.349 -15.155  0.00  0.00    +0.145 C 
ATOM     28  C   UNL     1      28.895 -22.662 -15.263  0.00  0.00    +0.030 C 
ATOM     29  C   UNL     1      28.544 -24.958 -15.925  0.00  0.00    +0.030 C 
ATOM     30  C   UNL     1      28.172 -23.615 -15.979  0.00  0.00    +0.005 C 
ENDBRANCH  22  25
ENDBRANCH   6  22
TORSDOF 4
ENDMDL
MODEL 3
REMARK VINA RESULT:     -10.6      6.520      9.790
REMARK  Name = 5289179
REMARK  4 active torsions:
REMARK  status: ('A' for Active; 'I' for Inactive)
REMARK    1  A    between atoms: C_3  and  C_14
REMARK    2  A    between atoms: C_6  and  C_22
REMARK    3  A    between atoms: C_14  and  C_15
REMARK    4  A    between atoms: C_22  and  C_25
REMARK                            x       y       z     vdW  Elec       q    Type
REMARK                         _______ _______ _______ _____ _____    ______ ____
ROOT
ATOM      1  N   UNL     1      34.517 -23.651 -15.058  0.00  0.00    -0.249 N 
ATOM      2  N   UNL     1      35.937 -23.295 -13.367  0.00  0.00    -0.375 NA
ATOM      3  C   UNL     1      33.937 -24.199 -13.942  0.00  0.00    +0.208 C 
ATOM      4  C   UNL     1      35.736 -23.111 -14.656  0.00  0.00    +0.189 C 
ATOM      5  C   UNL     1      34.045 -23.603 -16.368  0.00  0.00    +0.071 C 
ATOM      6  C   UNL     1      34.801 -23.004 -17.304  0.00  0.00    +0.054 C 
ATOM      7  C   UNL     1      34.828 -23.968 -12.921  0.00  0.00    +0.182 C 
ATOM      8  C   UNL     1      36.528 -22.479 -15.659  0.00  0.00    +0.048 C 
ATOM      9  C   UNL     1      36.082 -22.425 -16.929  0.00  0.00    +0.008 C 
ATOM     10  N   UNL     1      34.674 -24.335 -11.629  0.00  0.00    -0.335 N 
ATOM     11  H   UNL     1      35.373 -24.121 -10.970  0.00  0.00    +0.144 HD
ATOM     12  H   UNL     1      33.862 -24.815 -11.347  0.00  0.00    +0.144 HD
ENDROOT
BRANCH   3  14
ATOM     13  O   UNL     1      32.484 -26.007 -13.432  0.00  0.00    -0.289 OA
ATOM     14  C   UNL     1      32.672 -24.864 -13.900  0.00  0.00    +0.200 C 
BRANCH  14  15
ATOM     15  C   UNL     1      31.429 -24.207 -14.419  0.00  0.00    +0.037 C 
ATOM     16  C   UNL     1      31.221 -22.882 -14.130  0.00  0.00    +0.003 C 
ATOM     17  C   UNL     1      30.552 -24.962 -15.159  0.00  0.00    +0.003 C 
ATOM     18  C   UNL     1      30.063 -22.271 -14.613  0.00  0.00    +0.000 C 
ATOM     19  C   UNL     1      29.395 -24.352 -15.642  0.00  0.00    +0.000 C 
ATOM     20  C   UNL     1      29.151 -23.005 -15.368  0.00  0.00    +0.000 C 
ENDBRANCH  14  15
ENDBRANCH   3  14
BRANCH   6  22
ATOM     21  O   UNL     1      33.713 -23.909 -19.173  0.00  0.00    -0.286 OA
ATOM     22  C   UNL     1      34.312 -22.951 -18.681  0.00  0.00    +0.201 C 
BRANCH  22  25
ATOM     23  F   UNL     1      36.845 -22.193 -19.615  0.00  0.00    -0.204 F 
ATOM     24  F   UNL     1      32.200 -21.232 -19.355  0.00  0.00    -0.204 F 
ATOM     25  C   UNL     1      34.522 -21.716 -19.482  0.00  0.00    +0.094 C 
ATOM     26  C   UNL     1      35.798 -21.408 -19.906  0.00  0.00    +0.145 C 
ATOM     27  C   UNL     1      33.434 -20.920 -19.774  0.00  0.00    +0.145 C 
ATOM     28  C   UNL     1      35.995 -20.249 -20.657  0.00  0.00    +0.030 C 
ATOM     29  C   UNL     1      33.633 -19.761 -20.525  0.00  0.00    +0.030 C 
ATOM     30  C   UNL     1      34.913 -19.426 -20.966  0.00  0.00    +0.005 C 
ENDBRANCH  22  25
ENDBRANCH   6  22
TORSDOF 4
ENDMDL
MODEL 4
REMARK VINA RESULT:     -10.4      5.861      8.864
REMARK  Name = 5289179
REMARK  4 active torsions:
REMARK  status: ('A' for Active; 'I' for Inactive)
REMARK    1  A    between atoms: C_3  and  C_14
REMARK    2  A    between atoms: C_6  and  C_22
REMARK    3  A    between atoms: C_14  and  C_15
REMARK    4  A    between atoms: C_22  and  C_25
REMARK                            x       y       z     vdW  Elec       q    Type
REMARK                         _______ _______ _______ _____ _____    ______ ____
ROOT
ATOM      1  N   UNL     1      32.062  -8.907 -21.124  0.00  0.00    -0.249 N 
ATOM      2  N   UNL     1      32.358  -8.361 -18.975  0.00  0.00    -0.375 NA
ATOM      3  C   UNL     1      31.697 -10.007 -20.390  0.00  0.00    +0.208 C 
ATOM      4  C   UNL     1      32.459  -7.929 -20.216  0.00  0.00    +0.189 C 
ATOM      5  C   UNL     1      32.066  -8.725 -22.505  0.00  0.00    +0.071 C 
ATOM      6  C   UNL     1      32.472  -7.543 -22.999  0.00  0.00    +0.054 C 
ATOM      7  C   UNL     1      31.888  -9.646 -19.077  0.00  0.00    +0.182 C 
ATOM      8  C   UNL     1      32.887  -6.680 -20.752  0.00  0.00    +0.048 C 
ATOM      9  C   UNL     1      32.895  -6.491 -22.086  0.00  0.00    +0.008 C 
ATOM     10  N   UNL     1      31.655 -10.421 -17.995  0.00  0.00    -0.335 N 
ATOM     11  H   UNL     1      31.824 -10.068 -17.092  0.00  0.00    +0.144 HD
ATOM     12  H   UNL     1      31.316 -11.338 -18.110  0.00  0.00    +0.144 HD
ENDROOT
BRANCH   3  14
ATOM     13  O   UNL     1      30.029 -11.503 -21.179  0.00  0.00    -0.289 OA
ATOM     14  C   UNL     1      31.225 -11.247 -20.924  0.00  0.00    +0.200 C 
BRANCH  14  15
ATOM     15  C   UNL     1      32.169 -12.367 -21.244  0.00  0.00    +0.037 C 
ATOM     16  C   UNL     1      32.401 -13.319 -20.284  0.00  0.00    +0.003 C 
ATOM     17  C   UNL     1      32.760 -12.387 -22.483  0.00  0.00    +0.003 C 
ATOM     18  C   UNL     1      33.280 -14.361 -20.583  0.00  0.00    +0.000 C 
ATOM     19  C   UNL     1      33.639 -13.428 -22.782  0.00  0.00    +0.000 C 
ATOM     20  C   UNL     1      33.898 -14.416 -21.830  0.00  0.00    +0.000 C 
ENDBRANCH  14  15
ENDBRANCH   3  14
BRANCH   6  22
ATOM     21  O   UNL     1      31.749  -8.018 -25.178  0.00  0.00    -0.286 OA
ATOM     22  C   UNL     1      32.480  -7.347 -24.448  0.00  0.00    +0.201 C 
BRANCH  22  25
ATOM     23  F   UNL     1      31.560  -4.761 -25.025  0.00  0.00    -0.204 F 
ATOM     24  F   UNL     1      35.174  -7.844 -25.052  0.00  0.00    -0.204 F 
ATOM     25  C   UNL     1      33.365  -6.306 -25.037  0.00  0.00    +0.094 C 
ATOM     26  C   UNL     1      32.840  -5.056 -25.294  0.00  0.00    +0.145 C 
ATOM     27  C   UNL     1      34.678  -6.625 -25.307  0.00  0.00    +0.145 C 
ATOM     28  C   UNL     1      33.670  -4.081 -25.847  0.00  0.00    +0.030 C 
ATOM     29  C   UNL     1      35.506  -5.649 -25.860  0.00  0.00    +0.030 C 
ATOM     30  C   UNL     1      35.002  -4.377 -26.130  0.00  0.00    +0.005 C 
ENDBRANCH  22  25
ENDBRANCH   6  22
TORSDOF 4
ENDMDL
MODEL 5
REMARK VINA RESULT:     -10.3      6.549      9.863
REMARK  Name = 5289179
REMARK  4 active torsions:
REMARK  status: ('A' for Active; 'I' for Inactive)
REMARK    1  A    between atoms: C_3  and  C_14
REMARK    2  A    between atoms: C_6  and  C_22
REMARK    3  A    between atoms: C_14  and  C_15
REMARK    4  A    between atoms: C_22  and  C_25
REMARK                            x       y       z     vdW  Elec       q    Type
REMARK                         _______ _______ _______ _____ _____    ______ ____
ROOT
ATOM      1  N   UNL     1      34.362 -23.413 -15.323  0.00  0.00    -0.249 N 
ATOM      2  N   UNL     1      33.001 -23.450 -13.548  0.00  0.00    -0.375 NA
ATOM      3  C   UNL     1      35.166 -23.554 -14.221  0.00  0.00    +0.208 C 
ATOM      4  C   UNL     1      33.049 -23.355 -14.862  0.00  0.00    +0.189 C 
ATOM      5  C   UNL     1      34.711 -23.337 -16.670  0.00  0.00    +0.071 C 
ATOM      6  C   UNL     1      33.734 -23.199 -17.583  0.00  0.00    +0.054 C 
ATOM      7  C   UNL     1      34.307 -23.572 -13.147  0.00  0.00    +0.182 C 
ATOM      8  C   UNL     1      32.023 -23.208 -15.840  0.00  0.00    +0.048 C 
ATOM      9  C   UNL     1      32.348 -23.133 -17.146  0.00  0.00    +0.008 C 
ATOM     10  N   UNL     1      34.657 -23.696 -11.847  0.00  0.00    -0.335 N 
ATOM     11  H   UNL     1      33.964 -23.699 -11.149  0.00  0.00    +0.144 HD
ATOM     12  H   UNL     1      35.606 -23.783 -11.599  0.00  0.00    +0.144 HD
ENDROOT
BRANCH   3  14
ATOM     13  O   UNL     1      37.373 -22.677 -14.212  0.00  0.00    -0.289 OA
ATOM     14  C   UNL     1      36.592 -23.652 -14.235  0.00  0.00    +0.200 C 
BRANCH  14  15
ATOM     15  C   UNL     1      37.281 -24.984 -14.262  0.00  0.00    +0.037 C 
ATOM     16  C   UNL     1      38.623 -25.030 -13.978  0.00  0.00    +0.003 C 
ATOM     17  C   UNL     1      36.538 -26.096 -14.573  0.00  0.00    +0.003 C 
ATOM     18  C   UNL     1      39.263 -26.269 -14.005  0.00  0.00    +0.000 C 
ATOM     19  C   UNL     1      37.178 -27.335 -14.599  0.00  0.00    +0.000 C 
ATOM     20  C   UNL     1      38.542 -27.421 -14.315  0.00  0.00    +0.000 C 
ENDBRANCH  14  15
ENDBRANCH   3  14
BRANCH   6  22
ATOM     21  O   UNL     1      33.995 -24.101 -19.731  0.00  0.00    -0.286 OA
ATOM     22  C   UNL     1      34.095 -23.116 -18.997  0.00  0.00    +0.201 C 
BRANCH  22  25
ATOM     23  F   UNL     1      36.786 -22.334 -18.895  0.00  0.00    -0.204 F 
ATOM     24  F   UNL     1      32.344 -21.297 -20.218  0.00  0.00    -0.204 F 
ATOM     25  C   UNL     1      34.563 -21.819 -19.555  0.00  0.00    +0.094 C 
ATOM     26  C   UNL     1      35.903 -21.503 -19.467  0.00  0.00    +0.145 C 
ATOM     27  C   UNL     1      33.643 -20.976 -20.140  0.00  0.00    +0.145 C 
ATOM     28  C   UNL     1      36.342 -20.287 -19.989  0.00  0.00    +0.030 C 
ATOM     29  C   UNL     1      34.083 -19.760 -20.662  0.00  0.00    +0.030 C 
ATOM     30  C   UNL     1      35.432 -19.415 -20.587  0.00  0.00    +0.005 C 
ENDBRANCH  22  25
ENDBRANCH   6  22
TORSDOF 4
ENDMDL
MODEL 6
REMARK VINA RESULT:     -10.3      6.524      9.836
REMARK  Name = 5289179
REMARK  4 active torsions:
REMARK  status: ('A' for Active; 'I' for Inactive)
REMARK    1  A    between atoms: C_3  and  C_14
REMARK    2  A    between atoms: C_6  and  C_22
REMARK    3  A    between atoms: C_14  and  C_15
REMARK    4  A    between atoms: C_22  and  C_25
REMARK                            x       y       z     vdW  Elec       q    Type
REMARK                         _______ _______ _______ _____ _____    ______ ____
ROOT
ATOM      1  N   UNL     1      34.351 -23.409 -15.357  0.00  0.00    -0.249 N 
ATOM      2  N   UNL     1      32.993 -23.446 -13.580  0.00  0.00    -0.375 NA
ATOM      3  C   UNL     1      35.156 -23.559 -14.256  0.00  0.00    +0.208 C 
ATOM      4  C   UNL     1      33.040 -23.345 -14.894  0.00  0.00    +0.189 C 
ATOM      5  C   UNL     1      34.700 -23.329 -16.703  0.00  0.00    +0.071 C 
ATOM      6  C   UNL     1      33.723 -23.182 -17.614  0.00  0.00    +0.054 C 
ATOM      7  C   UNL     1      34.299 -23.577 -13.181  0.00  0.00    +0.182 C 
ATOM      8  C   UNL     1      32.013 -23.189 -15.870  0.00  0.00    +0.048 C 
ATOM      9  C   UNL     1      32.337 -23.110 -17.175  0.00  0.00    +0.008 C 
ATOM     10  N   UNL     1      34.650 -23.708 -11.882  0.00  0.00    -0.335 N 
ATOM     11  H   UNL     1      33.958 -23.711 -11.183  0.00  0.00    +0.144 HD
ATOM     12  H   UNL     1      35.599 -23.802 -11.636  0.00  0.00    +0.144 HD
ENDROOT
BRANCH   3  14
ATOM     13  O   UNL     1      37.368 -22.694 -14.259  0.00  0.00    -0.289 OA
ATOM     14  C   UNL     1      36.582 -23.665 -14.273  0.00  0.00    +0.200 C 
BRANCH  14  15
ATOM     15  C   UNL     1      37.264 -25.000 -14.291  0.00  0.00    +0.037 C 
ATOM     16  C   UNL     1      36.508 -26.116 -14.554  0.00  0.00    +0.003 C 
ATOM     17  C   UNL     1      38.613 -25.047 -14.041  0.00  0.00    +0.003 C 
ATOM     18  C   UNL     1      37.143 -27.358 -14.570  0.00  0.00    +0.000 C 
ATOM     19  C   UNL     1      39.248 -26.289 -14.057  0.00  0.00    +0.000 C 
ATOM     20  C   UNL     1      38.512 -27.445 -14.321  0.00  0.00    +0.000 C 
ENDBRANCH  14  15
ENDBRANCH   3  14
BRANCH   6  22
ATOM     21  O   UNL     1      33.979 -24.077 -19.766  0.00  0.00    -0.286 OA
ATOM     22  C   UNL     1      34.082 -23.095 -19.029  0.00  0.00    +0.201 C 
BRANCH  22  25
ATOM     23  F   UNL     1      32.332 -21.271 -20.246  0.00  0.00    -0.204 F 
ATOM     24  F   UNL     1      36.774 -22.313 -18.923  0.00  0.00    -0.204 F 
ATOM     25  C   UNL     1      34.552 -21.796 -19.583  0.00  0.00    +0.094 C 
ATOM     26  C   UNL     1      33.632 -20.951 -20.167  0.00  0.00    +0.145 C 
ATOM     27  C   UNL     1      35.891 -21.482 -19.494  0.00  0.00    +0.145 C 
ATOM     28  C   UNL     1      34.073 -19.734 -20.686  0.00  0.00    +0.030 C 
ATOM     29  C   UNL     1      36.331 -20.265 -20.013  0.00  0.00    +0.030 C 
ATOM     30  C   UNL     1      35.422 -19.391 -20.610  0.00  0.00    +0.005 C 
ENDBRANCH  22  25
ENDBRANCH   6  22
TORSDOF 4
ENDMDL
MODEL 7
REMARK VINA RESULT:     -10.1      6.745     10.095
REMARK  Name = 5289179
REMARK  4 active torsions:
REMARK  status: ('A' for Active; 'I' for Inactive)
REMARK    1  A    between atoms: C_3  and  C_14
REMARK    2  A    between atoms: C_6  and  C_22
REMARK    3  A    between atoms: C_14  and  C_15
REMARK    4  A    between atoms: C_22  and  C_25
REMARK                            x       y       z     vdW  Elec       q    Type
REMARK                         _______ _______ _______ _____ _____    ______ ____
ROOT
ATOM      1  N   UNL     1      32.486 -23.856 -15.489  0.00  0.00    -0.249 N 
ATOM      2  N   UNL     1      32.953 -23.575 -13.320  0.00  0.00    -0.375 NA
ATOM      3  C   UNL     1      31.388 -24.297 -14.796  0.00  0.00    +0.208 C 
ATOM      4  C   UNL     1      33.414 -23.425 -14.545  0.00  0.00    +0.189 C 
ATOM      5  C   UNL     1      32.706 -23.814 -16.864  0.00  0.00    +0.071 C 
ATOM      6  C   UNL     1      33.878 -23.333 -17.315  0.00  0.00    +0.054 C 
ATOM      7  C   UNL     1      31.700 -24.114 -13.469  0.00  0.00    +0.182 C 
ATOM      8  C   UNL     1      34.652 -22.916 -15.037  0.00  0.00    +0.048 C 
ATOM      9  C   UNL     1      34.877 -22.871 -16.364  0.00  0.00    +0.008 C 
ATOM     10  N   UNL     1      30.908 -24.410 -12.414  0.00  0.00    -0.335 N 
ATOM     11  H   UNL     1      31.225 -24.240 -11.499  0.00  0.00    +0.144 HD
ATOM     12  H   UNL     1      30.014 -24.795 -12.563  0.00  0.00    +0.144 HD
ENDROOT
BRANCH   3  14
ATOM     13  O   UNL     1      29.993 -26.040 -15.605  0.00  0.00    -0.289 OA
ATOM     14  C   UNL     1      30.193 -24.829 -15.374  0.00  0.00    +0.200 C 
BRANCH  14  15
ATOM     15  C   UNL     1      29.044 -23.940 -15.745  0.00  0.00    +0.037 C 
ATOM     16  C   UNL     1      28.370 -24.198 -16.913  0.00  0.00    +0.003 C 
ATOM     17  C   UNL     1      28.720 -22.907 -14.901  0.00  0.00    +0.003 C 
ATOM     18  C   UNL     1      27.301 -23.370 -17.258  0.00  0.00    +0.000 C 
ATOM     19  C   UNL     1      27.651 -22.080 -15.246  0.00  0.00    +0.000 C 
ATOM     20  C   UNL     1      26.942 -22.312 -16.425  0.00  0.00    +0.000 C 
ENDBRANCH  14  15
ENDBRANCH   3  14
BRANCH   6  22
ATOM     21  O   UNL     1      33.936 -24.287 -19.456  0.00  0.00    -0.286 OA
ATOM     22  C   UNL     1      34.116 -23.288 -18.757  0.00  0.00    +0.201 C 
BRANCH  22  25
ATOM     23  F   UNL     1      36.801 -22.477 -18.758  0.00  0.00    -0.204 F 
ATOM     24  F   UNL     1      32.316 -21.542 -20.014  0.00  0.00    -0.204 F 
ATOM     25  C   UNL     1      34.557 -22.013 -19.384  0.00  0.00    +0.094 C 
ATOM     26  C   UNL     1      35.895 -21.680 -19.344  0.00  0.00    +0.145 C 
ATOM     27  C   UNL     1      33.613 -21.206 -19.983  0.00  0.00    +0.145 C 
ATOM     28  C   UNL     1      36.308 -20.485 -19.931  0.00  0.00    +0.030 C 
ATOM     29  C   UNL     1      34.027 -20.010 -20.569  0.00  0.00    +0.030 C 
ATOM     30  C   UNL     1      35.374 -19.649 -20.543  0.00  0.00    +0.005 C 
ENDBRANCH  22  25
ENDBRANCH   6  22
TORSDOF 4
ENDMDL
MODEL 8
REMARK VINA RESULT:      -9.8      5.348     10.518
REMARK  Name = 5289179
REMARK  4 active torsions:
REMARK  status: ('A' for Active; 'I' for Inactive)
REMARK    1  A    between atoms: C_3  and  C_14
REMARK    2  A    between atoms: C_6  and  C_22
REMARK    3  A    between atoms: C_14  and  C_15
REMARK    4  A    between atoms: C_22  and  C_25
REMARK                            x       y       z     vdW  Elec       q    Type
REMARK                         _______ _______ _______ _____ _____    ______ ____
ROOT
ATOM      1  N   UNL     1      32.106  -8.521 -21.289  0.00  0.00    -0.249 N 
ATOM      2  N   UNL     1      32.529  -7.032 -19.675  0.00  0.00    -0.375 NA
ATOM      3  C   UNL     1      32.185  -7.297 -21.902  0.00  0.00    +0.208 C 
ATOM      4  C   UNL     1      32.323  -8.308 -19.930  0.00  0.00    +0.189 C 
ATOM      5  C   UNL     1      31.862  -9.775 -21.844  0.00  0.00    +0.071 C 
ATOM      6  C   UNL     1      31.831 -10.846 -21.032  0.00  0.00    +0.054 C 
ATOM      7  C   UNL     1      32.443  -6.402 -20.891  0.00  0.00    +0.182 C 
ATOM      8  C   UNL     1      32.288  -9.452 -19.080  0.00  0.00    +0.048 C 
ATOM      9  C   UNL     1      32.053 -10.670 -19.605  0.00  0.00    +0.008 C 
ATOM     10  N   UNL     1      32.603  -5.067 -21.027  0.00  0.00    -0.335 N 
ATOM     11  H   UNL     1      32.788  -4.510 -20.238  0.00  0.00    +0.144 HD
ATOM     12  H   UNL     1      32.537  -4.652 -21.918  0.00  0.00    +0.144 HD
ENDROOT
BRANCH   3  14
ATOM     13  O   UNL     1      30.976  -7.279 -23.946  0.00  0.00    -0.289 OA
ATOM     14  C   UNL     1      32.021  -7.052 -23.301  0.00  0.00    +0.200 C 
BRANCH  14  15
ATOM     15  C   UNL     1      33.129  -6.466 -24.124  0.00  0.00    +0.037 C 
ATOM     16  C   UNL     1      32.800  -5.625 -25.158  0.00  0.00    +0.003 C 
ATOM     17  C   UNL     1      34.423  -6.799 -23.807  0.00  0.00    +0.003 C 
ATOM     18  C   UNL     1      33.832  -5.081 -25.923  0.00  0.00    +0.000 C 
ATOM     19  C   UNL     1      35.454  -6.255 -24.573  0.00  0.00    +0.000 C 
ATOM     20  C   UNL     1      35.158  -5.395 -25.632  0.00  0.00    +0.000 C 
ENDBRANCH  14  15
ENDBRANCH   3  14
BRANCH   6  22
ATOM     21  O   UNL     1      30.463 -12.446 -22.063  0.00  0.00    -0.286 OA
ATOM     22  C   UNL     1      31.573 -12.165 -21.609  0.00  0.00    +0.201 C 
BRANCH  22  25
ATOM     23  F   UNL     1      33.238 -12.417 -23.852  0.00  0.00    -0.204 F 
ATOM     24  F   UNL     1      32.119 -13.912 -19.484  0.00  0.00    -0.204 F 
ATOM     25  C   UNL     1      32.675 -13.162 -21.668  0.00  0.00    +0.094 C 
ATOM     26  C   UNL     1      33.452 -13.228 -22.806  0.00  0.00    +0.145 C 
ATOM     27  C   UNL     1      32.883 -13.988 -20.584  0.00  0.00    +0.145 C 
ATOM     28  C   UNL     1      34.485 -14.163 -22.861  0.00  0.00    +0.030 C 
ATOM     29  C   UNL     1      33.916 -14.923 -20.640  0.00  0.00    +0.030 C 
ATOM     30  C   UNL     1      34.717 -15.011 -21.779  0.00  0.00    +0.005 C 
ENDBRANCH  22  25
ENDBRANCH   6  22
TORSDOF 4
ENDMDL
MODEL 9
REMARK VINA RESULT:      -9.8      5.881     10.922
REMARK  Name = 5289179
REMARK  4 active torsions:
REMARK  status: ('A' for Active; 'I' for Inactive)
REMARK    1  A    between atoms: C_3  and  C_14
REMARK    2  A    between atoms: C_6  and  C_22
REMARK    3  A    between atoms: C_14  and  C_15
REMARK    4  A    between atoms: C_22  and  C_25
REMARK                            x       y       z     vdW  Elec       q    Type
REMARK                         _______ _______ _______ _____ _____    ______ ____
ROOT
ATOM      1  N   UNL     1      34.859 -22.406 -17.771  0.00  0.00    -0.249 N 
ATOM      2  N   UNL     1      32.655 -22.398 -18.157  0.00  0.00    -0.375 NA
ATOM      3  C   UNL     1      34.676 -21.750 -18.962  0.00  0.00    +0.208 C 
ATOM      4  C   UNL     1      33.597 -22.783 -17.319  0.00  0.00    +0.189 C 
ATOM      5  C   UNL     1      36.039 -22.681 -17.085  0.00  0.00    +0.071 C 
ATOM      6  C   UNL     1      35.968 -23.347 -15.919  0.00  0.00    +0.054 C 
ATOM      7  C   UNL     1      33.317 -21.760 -19.175  0.00  0.00    +0.182 C 
ATOM      8  C   UNL     1      33.535 -23.488 -16.082  0.00  0.00    +0.048 C 
ATOM      9  C   UNL     1      34.670 -23.760 -15.408  0.00  0.00    +0.008 C 
ATOM     10  N   UNL     1      32.671 -21.222 -20.234  0.00  0.00    -0.335 N 
ATOM     11  H   UNL     1      31.691 -21.281 -20.294  0.00  0.00    +0.144 HD
ATOM     12  H   UNL     1      33.183 -20.769 -20.944  0.00  0.00    +0.144 HD
ENDROOT
BRANCH   3  14
ATOM     13  O   UNL     1      36.909 -21.544 -19.743  0.00  0.00    -0.289 OA
ATOM     14  C   UNL     1      35.711 -21.192 -19.776  0.00  0.00    +0.200 C 
BRANCH  14  15
ATOM     15  C   UNL     1      35.420 -20.115 -20.777  0.00  0.00    +0.037 C 
ATOM     16  C   UNL     1      34.923 -20.481 -22.003  0.00  0.00    +0.003 C 
ATOM     17  C   UNL     1      35.666 -18.812 -20.423  0.00  0.00    +0.003 C 
ATOM     18  C   UNL     1      34.654 -19.478 -22.935  0.00  0.00    +0.000 C 
ATOM     19  C   UNL     1      35.396 -17.809 -21.354  0.00  0.00    +0.000 C 
ATOM     20  C   UNL     1      34.889 -18.143 -22.611  0.00  0.00    +0.000 C 
ENDBRANCH  14  15
ENDBRANCH   3  14
BRANCH   6  22
ATOM     21  O   UNL     1      38.268 -23.119 -15.530  0.00  0.00    -0.286 OA
ATOM     22  C   UNL     1      37.204 -23.641 -15.195  0.00  0.00    +0.201 C 
BRANCH  22  25
ATOM     23  F   UNL     1      37.174 -22.700 -12.553  0.00  0.00    -0.204 F 
ATOM     24  F   UNL     1      37.149 -26.429 -15.495  0.00  0.00    -0.204 F 
ATOM     25  C   UNL     1      37.162 -24.562 -14.028  0.00  0.00    +0.094 C 
ATOM     26  C   UNL     1      37.150 -24.025 -12.758  0.00  0.00    +0.145 C 
ATOM     27  C   UNL     1      37.137 -25.922 -14.255  0.00  0.00    +0.145 C 
ATOM     28  C   UNL     1      37.112 -24.888 -11.663  0.00  0.00    +0.030 C 
ATOM     29  C   UNL     1      37.099 -26.784 -13.159  0.00  0.00    +0.030 C 
ATOM     30  C   UNL     1      37.087 -26.268 -11.864  0.00  0.00    +0.005 C 
ENDBRANCH  22  25
ENDBRANCH   6  22
TORSDOF 4
ENDMDL
