MODEL 1
REMARK VINA RESULT:     -11.6      0.000      0.000
REMARK  Name = 446346
REMARK  6 active torsions:
REMARK  status: ('A' for Active; 'I' for Inactive)
REMARK    1  A    between atoms: N_1  and  C_20
REMARK    2  A    between atoms: N_2  and  S_8
REMARK    3  A    between atoms: S_8  and  C_11
REMARK    4  A    between atoms: C_12  and  C_14
REMARK    5  A    between atoms: C_20  and  C_22
REMARK    6  A    between atoms: N_21  and  C_28
REMARK                            x       y       z     vdW  Elec       q    Type
REMARK                         _______ _______ _______ _____ _____    ______ ____
ROOT
ATOM      1  N   UNL     1      35.342 -19.365 -20.947  0.00  0.00    +0.389 N 
ATOM      2  N   UNL     1      34.318 -21.734 -19.680  0.00  0.00    -0.160 NA
ATOM      3  C   UNL     1      34.054 -19.943 -21.354  0.00  0.00    -0.058 C 
ATOM      4  C   UNL     1      36.249 -20.414 -20.461  0.00  0.00    -0.058 C 
ATOM      5  C   UNL     1      33.396 -20.679 -20.188  0.00  0.00    +0.073 C 
ATOM      6  C   UNL     1      35.634 -21.159 -19.278  0.00  0.00    +0.073 C 
ATOM      7  H   UNL     1      35.173 -18.707 -20.185  0.00  0.00    -0.080 HD
ENDROOT
BRANCH   2   8
ATOM      8  S   UNL     1      33.630 -22.845 -18.575  0.00  0.00    +0.064 S 
ATOM      9  O   UNL     1      33.725 -24.171 -19.162  0.00  0.00    -0.153 OA
ATOM     10  O   UNL     1      32.336 -22.326 -18.170  0.00  0.00    -0.153 OA
BRANCH   8  11
ATOM     11  C   UNL     1      34.685 -22.788 -17.204  0.00  0.00    +0.141 C 
ATOM     12  C   UNL     1      34.379 -23.573 -16.164  0.00  0.00    +0.021 C 
BRANCH  12  14
ATOM     13 CL   UNL     1      37.551 -23.944 -11.126  0.00  0.00    -0.082 Cl
ATOM     14  C   UNL     1      35.162 -23.664 -14.919  0.00  0.00    +0.001 C 
ATOM     15  C   UNL     1      36.520 -23.387 -14.950  0.00  0.00    +0.001 C 
ATOM     16  C   UNL     1      34.527 -24.026 -13.741  0.00  0.00    +0.001 C 
ATOM     17  C   UNL     1      37.261 -23.475 -13.772  0.00  0.00    +0.011 C 
ATOM     18  C   UNL     1      35.269 -24.112 -12.564  0.00  0.00    +0.011 C 
ATOM     19  C   UNL     1      36.637 -23.836 -12.579  0.00  0.00    +0.058 C 
ENDBRANCH  12  14
ENDBRANCH   8  11
ENDBRANCH   2   8
BRANCH   1  20
ATOM     20  C   UNL     1      35.951 -18.632 -22.057  0.00  0.00    -0.077 C 
BRANCH  20  22
ATOM     21  N   UNL     1      33.939 -14.831 -21.814  0.00  0.00    -0.307 N 
ATOM     22  C   UNL     1      35.691 -17.132 -21.947  0.00  0.00    -0.017 C 
ATOM     23  C   UNL     1      34.880 -16.811 -20.688  0.00  0.00    +0.019 C 
ATOM     24  C   UNL     1      34.945 -16.615 -23.181  0.00  0.00    +0.019 C 
ATOM     25  C   UNL     1      34.579 -15.316 -20.583  0.00  0.00    +0.091 C 
ATOM     26  C   UNL     1      34.640 -15.121 -23.069  0.00  0.00    +0.091 C 
BRANCH  21  28
ATOM     27  N   UNL     1      31.544 -11.368 -21.523  0.00  0.00    -0.242 NA
ATOM     28  C   UNL     1      33.145 -13.683 -21.718  0.00  0.00    +0.051 C 
ATOM     29  C   UNL     1      33.126 -12.726 -22.745  0.00  0.00    +0.035 C 
ATOM     30  C   UNL     1      32.341 -13.450 -20.591  0.00  0.00    +0.035 C 
ATOM     31  C   UNL     1      32.324 -11.607 -22.602  0.00  0.00    +0.100 C 
ATOM     32  C   UNL     1      31.574 -12.298 -20.543  0.00  0.00    +0.100 C 
ENDBRANCH  21  28
ENDBRANCH  20  22
ENDBRANCH   1  20
TORSDOF 6
ENDMDL
MODEL 2
REMARK VINA RESULT:     -10.8      4.864     10.835
REMARK  Name = 446346
REMARK  6 active torsions:
REMARK  status: ('A' for Active; 'I' for Inactive)
REMARK    1  A    between atoms: N_1  and  C_20
REMARK    2  A    between atoms: N_2  and  S_8
REMARK    3  A    between atoms: S_8  and  C_11
REMARK    4  A    between atoms: C_12  and  C_14
REMARK    5  A    between atoms: C_20  and  C_22
REMARK    6  A    between atoms: N_21  and  C_28
REMARK                            x       y       z     vdW  Elec       q    Type
REMARK                         _______ _______ _______ _____ _____    ______ ____
ROOT
ATOM      1  N   UNL     1      35.522 -19.365 -21.258  0.00  0.00    +0.389 N 
ATOM      2  N   UNL     1      34.937 -17.574 -23.429  0.00  0.00    -0.160 NA
ATOM      3  C   UNL     1      36.010 -17.979 -21.247  0.00  0.00    -0.058 C 
ATOM      4  C   UNL     1      35.405 -19.861 -22.635  0.00  0.00    -0.058 C 
ATOM      5  C   UNL     1      35.072 -17.066 -22.034  0.00  0.00    +0.073 C 
ATOM      6  C   UNL     1      34.455 -18.985 -23.450  0.00  0.00    +0.073 C 
ATOM      7  H   UNL     1      34.596 -19.383 -20.829  0.00  0.00    -0.080 HD
ENDROOT
BRANCH   2   8
ATOM      8  S   UNL     1      34.162 -16.514 -24.528  0.00  0.00    +0.064 S 
ATOM      9  O   UNL     1      33.092 -17.254 -25.177  0.00  0.00    -0.153 OA
ATOM     10  O   UNL     1      35.190 -15.877 -25.331  0.00  0.00    -0.153 OA
BRANCH   8  11
ATOM     11  C   UNL     1      33.444 -15.306 -23.517  0.00  0.00    +0.141 C 
ATOM     12  C   UNL     1      33.622 -14.027 -23.872  0.00  0.00    +0.021 C 
BRANCH  12  14
ATOM     13 CL   UNL     1      31.425  -9.336 -20.916  0.00  0.00    -0.082 Cl
ATOM     14  C   UNL     1      33.080 -12.869 -23.142  0.00  0.00    +0.001 C 
ATOM     15  C   UNL     1      32.315 -13.080 -22.006  0.00  0.00    +0.001 C 
ATOM     16  C   UNL     1      33.344 -11.589 -23.605  0.00  0.00    +0.001 C 
ATOM     17  C   UNL     1      31.801 -11.982 -21.315  0.00  0.00    +0.011 C 
ATOM     18  C   UNL     1      32.830 -10.492 -22.914  0.00  0.00    +0.011 C 
ATOM     19  C   UNL     1      32.059 -10.689 -21.768  0.00  0.00    +0.058 C 
ENDBRANCH  12  14
ENDBRANCH   8  11
ENDBRANCH   2   8
BRANCH   1  20
ATOM     20  C   UNL     1      36.405 -20.227 -20.474  0.00  0.00    -0.077 C 
BRANCH  20  22
ATOM     21  N   UNL     1      33.994 -22.456 -17.685  0.00  0.00    -0.307 N 
ATOM     22  C   UNL     1      35.632 -21.363 -19.807  0.00  0.00    -0.017 C 
ATOM     23  C   UNL     1      34.149 -21.005 -19.672  0.00  0.00    +0.019 C 
ATOM     24  C   UNL     1      36.210 -21.678 -18.424  0.00  0.00    +0.019 C 
ATOM     25  C   UNL     1      33.368 -22.117 -18.972  0.00  0.00    +0.091 C 
ATOM     26  C   UNL     1      35.422 -22.786 -17.724  0.00  0.00    +0.091 C 
BRANCH  21  28
ATOM     27  N   UNL     1      31.537 -24.201 -14.731  0.00  0.00    -0.242 NA
ATOM     28  C   UNL     1      33.179 -23.034 -16.705  0.00  0.00    +0.051 C 
ATOM     29  C   UNL     1      33.735 -23.667 -15.582  0.00  0.00    +0.035 C 
ATOM     30  C   UNL     1      31.780 -23.001 -16.814  0.00  0.00    +0.035 C 
ATOM     31  C   UNL     1      32.886 -24.225 -14.641  0.00  0.00    +0.100 C 
ATOM     32  C   UNL     1      31.018 -23.588 -15.818  0.00  0.00    +0.100 C 
ENDBRANCH  21  28
ENDBRANCH  20  22
ENDBRANCH   1  20
TORSDOF 6
ENDMDL
MODEL 3
REMARK VINA RESULT:     -10.7      4.739      8.034
REMARK  Name = 446346
REMARK  6 active torsions:
REMARK  status: ('A' for Active; 'I' for Inactive)
REMARK    1  A    between atoms: N_1  and  C_20
REMARK    2  A    between atoms: N_2  and  S_8
REMARK    3  A    between atoms: S_8  and  C_11
REMARK    4  A    between atoms: C_12  and  C_14
REMARK    5  A    between atoms: C_20  and  C_22
REMARK    6  A    between atoms: N_21  and  C_28
REMARK                            x       y       z     vdW  Elec       q    Type
REMARK                         _______ _______ _______ _____ _____    ______ ____
ROOT
ATOM      1  N   UNL     1      32.877 -12.586 -22.550  0.00  0.00    +0.389 N 
ATOM      2  N   UNL     1      33.573 -15.147 -23.655  0.00  0.00    -0.160 NA
ATOM      3  C   UNL     1      33.023 -13.767 -21.688  0.00  0.00    -0.058 C 
ATOM      4  C   UNL     1      32.424 -12.979 -23.891  0.00  0.00    -0.058 C 
ATOM      5  C   UNL     1      34.019 -14.758 -22.287  0.00  0.00    +0.073 C 
ATOM      6  C   UNL     1      33.408 -13.954 -24.534  0.00  0.00    +0.073 C 
ATOM      7  H   UNL     1      33.789 -12.137 -22.637  0.00  0.00    -0.080 HD
ENDROOT
BRANCH   2   8
ATOM      8  S   UNL     1      34.407 -16.469 -24.355  0.00  0.00    +0.064 S 
ATOM      9  O   UNL     1      35.476 -15.931 -25.178  0.00  0.00    -0.153 OA
ATOM     10  O   UNL     1      33.420 -17.357 -24.942  0.00  0.00    -0.153 OA
BRANCH   8  11
ATOM     11  C   UNL     1      35.124 -17.280 -23.004  0.00  0.00    +0.141 C 
ATOM     12  C   UNL     1      34.663 -18.503 -22.711  0.00  0.00    +0.021 C 
BRANCH  12  14
ATOM     13 CL   UNL     1      36.663 -21.909 -18.241  0.00  0.00    -0.082 Cl
ATOM     14  C   UNL     1      35.157 -19.345 -21.608  0.00  0.00    +0.001 C 
ATOM     15  C   UNL     1      34.294 -20.243 -21.000  0.00  0.00    +0.001 C 
ATOM     16  C   UNL     1      36.475 -19.222 -21.197  0.00  0.00    +0.001 C 
ATOM     17  C   UNL     1      34.762 -21.038 -19.954  0.00  0.00    +0.011 C 
ATOM     18  C   UNL     1      36.942 -20.018 -20.152  0.00  0.00    +0.011 C 
ATOM     19  C   UNL     1      36.086 -20.927 -19.530  0.00  0.00    +0.058 C 
ENDBRANCH  12  14
ENDBRANCH   8  11
ENDBRANCH   2   8
BRANCH   1  20
ATOM     20  C   UNL     1      31.949 -11.626 -21.954  0.00  0.00    -0.077 C 
BRANCH  20  22
ATOM     21  N   UNL     1      31.935  -7.354 -22.513  0.00  0.00    -0.307 N 
ATOM     22  C   UNL     1      32.417 -10.188 -22.169  0.00  0.00    -0.017 C 
ATOM     23  C   UNL     1      31.991  -9.297 -20.998  0.00  0.00    +0.019 C 
ATOM     24  C   UNL     1      31.854  -9.619 -23.475  0.00  0.00    +0.019 C 
ATOM     25  C   UNL     1      32.420  -7.846 -21.216  0.00  0.00    +0.091 C 
ATOM     26  C   UNL     1      32.278  -8.166 -23.685  0.00  0.00    +0.091 C 
BRANCH  21  28
ATOM     27  N   UNL     1      31.434  -3.186 -22.947  0.00  0.00    -0.242 NA
ATOM     28  C   UNL     1      31.769  -5.972 -22.657  0.00  0.00    +0.051 C 
ATOM     29  C   UNL     1      31.540  -5.397 -23.917  0.00  0.00    +0.035 C 
ATOM     30  C   UNL     1      31.825  -5.116 -21.546  0.00  0.00    +0.035 C 
ATOM     31  C   UNL     1      31.383  -4.024 -24.006  0.00  0.00    +0.100 C 
ATOM     32  C   UNL     1      31.655  -3.756 -21.741  0.00  0.00    +0.100 C 
ENDBRANCH  21  28
ENDBRANCH  20  22
ENDBRANCH   1  20
TORSDOF 6
ENDMDL
MODEL 4
REMARK VINA RESULT:     -10.7      4.741     10.956
REMARK  Name = 446346
REMARK  6 active torsions:
REMARK  status: ('A' for Active; 'I' for Inactive)
REMARK    1  A    between atoms: N_1  and  C_20
REMARK    2  A    between atoms: N_2  and  S_8
REMARK    3  A    between atoms: S_8  and  C_11
REMARK    4  A    between atoms: C_12  and  C_14
REMARK    5  A    between atoms: C_20  and  C_22
REMARK    6  A    between atoms: N_21  and  C_28
REMARK                            x       y       z     vdW  Elec       q    Type
REMARK                         _______ _______ _______ _____ _____    ______ ____
ROOT
ATOM      1  N   UNL     1      35.035 -19.826 -21.608  0.00  0.00    +0.389 N 
ATOM      2  N   UNL     1      34.909 -17.669 -23.505  0.00  0.00    -0.160 NA
ATOM      3  C   UNL     1      35.800 -18.589 -21.398  0.00  0.00    -0.058 C 
ATOM      4  C   UNL     1      34.865 -20.091 -23.043  0.00  0.00    -0.058 C 
ATOM      5  C   UNL     1      35.099 -17.399 -22.051  0.00  0.00    +0.073 C 
ATOM      6  C   UNL     1      34.146 -18.930 -23.728  0.00  0.00    +0.073 C 
ATOM      7  H   UNL     1      34.112 -19.707 -21.190  0.00  0.00    -0.080 HD
ENDROOT
BRANCH   2   8
ATOM      8  S   UNL     1      34.409 -16.328 -24.444  0.00  0.00    +0.064 S 
ATOM      9  O   UNL     1      33.173 -16.694 -25.115  0.00  0.00    -0.153 OA
ATOM     10  O   UNL     1      35.549 -15.882 -25.225  0.00  0.00    -0.153 OA
BRANCH   8  11
ATOM     11  C   UNL     1      34.044 -15.104 -23.276  0.00  0.00    +0.141 C 
ATOM     12  C   UNL     1      33.169 -14.157 -23.637  0.00  0.00    +0.021 C 
BRANCH  12  14
ATOM     13 CL   UNL     1      31.397  -9.653 -20.149  0.00  0.00    -0.082 Cl
ATOM     14  C   UNL     1      32.732 -13.045 -22.775  0.00  0.00    +0.001 C 
ATOM     15  C   UNL     1      32.255 -13.318 -21.503  0.00  0.00    +0.001 C 
ATOM     16  C   UNL     1      32.805 -11.746 -23.253  0.00  0.00    +0.001 C 
ATOM     17  C   UNL     1      31.840 -12.265 -20.688  0.00  0.00    +0.011 C 
ATOM     18  C   UNL     1      32.391 -10.693 -22.438  0.00  0.00    +0.011 C 
ATOM     19  C   UNL     1      31.908 -10.953 -21.155  0.00  0.00    +0.058 C 
ENDBRANCH  12  14
ENDBRANCH   8  11
ENDBRANCH   2   8
BRANCH   1  20
ATOM     20  C   UNL     1      35.693 -20.955 -20.951  0.00  0.00    -0.077 C 
BRANCH  20  22
ATOM     21  N   UNL     1      34.455 -22.793 -17.257  0.00  0.00    -0.307 N 
ATOM     22  C   UNL     1      35.183 -21.147 -19.525  0.00  0.00    -0.017 C 
ATOM     23  C   UNL     1      36.242 -21.834 -18.656  0.00  0.00    +0.019 C 
ATOM     24  C   UNL     1      33.896 -21.976 -19.512  0.00  0.00    +0.019 C 
ATOM     25  C   UNL     1      35.733 -22.068 -17.235  0.00  0.00    +0.091 C 
ATOM     26  C   UNL     1      33.393 -22.214 -18.087  0.00  0.00    +0.091 C 
BRANCH  21  28
ATOM     27  N   UNL     1      33.425 -25.020 -13.823  0.00  0.00    -0.242 NA
ATOM     28  C   UNL     1      34.113 -23.532 -16.118  0.00  0.00    +0.051 C 
ATOM     29  C   UNL     1      32.791 -23.564 -15.646  0.00  0.00    +0.035 C 
ATOM     30  C   UNL     1      35.081 -24.263 -15.413  0.00  0.00    +0.035 C 
ATOM     31  C   UNL     1      32.505 -24.310 -14.514  0.00  0.00    +0.100 C 
ATOM     32  C   UNL     1      34.692 -24.978 -14.292  0.00  0.00    +0.100 C 
ENDBRANCH  21  28
ENDBRANCH  20  22
ENDBRANCH   1  20
TORSDOF 6
ENDMDL
MODEL 5
REMARK VINA RESULT:     -10.6      4.315     11.005
REMARK  Name = 446346
REMARK  6 active torsions:
REMARK  status: ('A' for Active; 'I' for Inactive)
REMARK    1  A    between atoms: N_1  and  C_20
REMARK    2  A    between atoms: N_2  and  S_8
REMARK    3  A    between atoms: S_8  and  C_11
REMARK    4  A    between atoms: C_12  and  C_14
REMARK    5  A    between atoms: C_20  and  C_22
REMARK    6  A    between atoms: N_21  and  C_28
REMARK                            x       y       z     vdW  Elec       q    Type
REMARK                         _______ _______ _______ _____ _____    ______ ____
ROOT
ATOM      1  N   UNL     1      34.133 -22.480 -19.177  0.00  0.00    +0.389 N 
ATOM      2  N   UNL     1      35.378 -20.107 -20.217  0.00  0.00    -0.160 NA
ATOM      3  C   UNL     1      33.334 -21.294 -19.518  0.00  0.00    -0.058 C 
ATOM      4  C   UNL     1      35.484 -22.088 -18.754  0.00  0.00    -0.058 C 
ATOM      5  C   UNL     1      34.000 -20.493 -20.635  0.00  0.00    +0.073 C 
ATOM      6  C   UNL     1      36.192 -21.302 -19.856  0.00  0.00    +0.073 C 
ATOM      7  H   UNL     1      34.212 -23.064 -20.010  0.00  0.00    -0.080 HD
ENDROOT
BRANCH   2   8
ATOM      8  S   UNL     1      36.158 -18.959 -21.221  0.00  0.00    +0.064 S 
ATOM      9  O   UNL     1      35.994 -19.393 -22.598  0.00  0.00    -0.153 OA
ATOM     10  O   UNL     1      37.490 -18.735 -20.687  0.00  0.00    -0.153 OA
BRANCH   8  11
ATOM     11  C   UNL     1      35.238 -17.509 -21.001  0.00  0.00    +0.141 C 
ATOM     12  C   UNL     1      35.170 -16.666 -22.039  0.00  0.00    +0.021 C 
BRANCH  12  14
ATOM     13 CL   UNL     1      32.168 -11.512 -22.044  0.00  0.00    -0.082 Cl
ATOM     14  C   UNL     1      34.430 -15.393 -22.040  0.00  0.00    +0.001 C 
ATOM     15  C   UNL     1      33.953 -14.883 -20.842  0.00  0.00    +0.001 C 
ATOM     16  C   UNL     1      34.222 -14.729 -23.239  0.00  0.00    +0.001 C 
ATOM     17  C   UNL     1      33.251 -13.678 -20.844  0.00  0.00    +0.011 C 
ATOM     18  C   UNL     1      33.519 -13.524 -23.239  0.00  0.00    +0.011 C 
ATOM     19  C   UNL     1      33.034 -12.998 -22.042  0.00  0.00    +0.058 C 
ENDBRANCH  12  14
ENDBRANCH   8  11
ENDBRANCH   2   8
BRANCH   1  20
ATOM     20  C   UNL     1      33.473 -23.261 -18.132  0.00  0.00    -0.077 C 
BRANCH  20  22
ATOM     21  N   UNL     1      35.179 -23.589 -14.190  0.00  0.00    -0.307 N 
ATOM     22  C   UNL     1      34.005 -22.904 -16.746  0.00  0.00    -0.017 C 
ATOM     23  C   UNL     1      35.484 -23.282 -16.616  0.00  0.00    +0.019 C 
ATOM     24  C   UNL     1      33.198 -23.611 -15.652  0.00  0.00    +0.019 C 
ATOM     25  C   UNL     1      36.020 -22.965 -15.220  0.00  0.00    +0.091 C 
ATOM     26  C   UNL     1      33.743 -23.298 -14.258  0.00  0.00    +0.091 C 
BRANCH  21  28
ATOM     27  N   UNL     1      36.961 -24.385 -10.447  0.00  0.00    -0.242 NA
ATOM     28  C   UNL     1      35.770 -23.853 -12.948  0.00  0.00    +0.051 C 
ATOM     29  C   UNL     1      37.063 -23.395 -12.650  0.00  0.00    +0.035 C 
ATOM     30  C   UNL     1      35.088 -24.583 -11.962  0.00  0.00    +0.035 C 
ATOM     31  C   UNL     1      37.603 -23.682 -11.407  0.00  0.00    +0.100 C 
ATOM     32  C   UNL     1      35.717 -24.818 -10.751  0.00  0.00    +0.100 C 
ENDBRANCH  21  28
ENDBRANCH  20  22
ENDBRANCH   1  20
TORSDOF 6
ENDMDL
MODEL 6
REMARK VINA RESULT:     -10.5      6.335     12.377
REMARK  Name = 446346
REMARK  6 active torsions:
REMARK  status: ('A' for Active; 'I' for Inactive)
REMARK    1  A    between atoms: N_1  and  C_20
REMARK    2  A    between atoms: N_2  and  S_8
REMARK    3  A    between atoms: S_8  and  C_11
REMARK    4  A    between atoms: C_12  and  C_14
REMARK    5  A    between atoms: C_20  and  C_22
REMARK    6  A    between atoms: N_21  and  C_28
REMARK                            x       y       z     vdW  Elec       q    Type
REMARK                         _______ _______ _______ _____ _____    ______ ____
ROOT
ATOM      1  N   UNL     1      33.861 -15.078 -23.123  0.00  0.00    +0.389 N 
ATOM      2  N   UNL     1      32.749 -12.638 -22.084  0.00  0.00    -0.160 NA
ATOM      3  C   UNL     1      34.547 -14.324 -22.063  0.00  0.00    -0.058 C 
ATOM      4  C   UNL     1      33.090 -14.171 -23.984  0.00  0.00    -0.058 C 
ATOM      5  C   UNL     1      33.545 -13.548 -21.211  0.00  0.00    +0.073 C 
ATOM      6  C   UNL     1      32.059 -13.392 -23.170  0.00  0.00    +0.073 C 
ATOM      7  H   UNL     1      33.213 -15.732 -22.683  0.00  0.00    -0.080 HD
ENDROOT
BRANCH   2   8
ATOM      8  S   UNL     1      31.787 -11.484 -21.262  0.00  0.00    +0.064 S 
ATOM      9  O   UNL     1      32.039 -11.631 -19.839  0.00  0.00    -0.153 OA
ATOM     10  O   UNL     1      30.431 -11.592 -21.771  0.00  0.00    -0.153 OA
BRANCH   8  11
ATOM     11  C   UNL     1      32.431  -9.959 -21.768  0.00  0.00    +0.141 C 
ATOM     12  C   UNL     1      32.726  -9.822 -23.067  0.00  0.00    +0.021 C 
BRANCH  12  14
ATOM     13 CL   UNL     1      34.938  -4.869 -25.550  0.00  0.00    -0.082 Cl
ATOM     14  C   UNL     1      33.272  -8.598 -23.680  0.00  0.00    +0.001 C 
ATOM     15  C   UNL     1      32.483  -7.865 -24.553  0.00  0.00    +0.001 C 
ATOM     16  C   UNL     1      34.565  -8.203 -23.373  0.00  0.00    +0.001 C 
ATOM     17  C   UNL     1      33.001  -6.708 -25.134  0.00  0.00    +0.011 C 
ATOM     18  C   UNL     1      35.082  -7.046 -23.954  0.00  0.00    +0.011 C 
ATOM     19  C   UNL     1      34.300  -6.298 -24.834  0.00  0.00    +0.058 C 
ENDBRANCH  12  14
ENDBRANCH   8  11
ENDBRANCH   2   8
BRANCH   1  20
ATOM     20  C   UNL     1      34.822 -15.846 -23.912  0.00  0.00    -0.077 C 
BRANCH  20  22
ATOM     21  N   UNL     1      34.804 -19.291 -21.326  0.00  0.00    -0.307 N 
ATOM     22  C   UNL     1      35.251 -17.119 -23.188  0.00  0.00    -0.017 C 
ATOM     23  C   UNL     1      34.306 -18.279 -23.517  0.00  0.00    +0.019 C 
ATOM     24  C   UNL     1      35.283 -16.901 -21.672  0.00  0.00    +0.019 C 
ATOM     25  C   UNL     1      34.701 -19.551 -22.769  0.00  0.00    +0.091 C 
ATOM     26  C   UNL     1      35.671 -18.178 -20.926  0.00  0.00    +0.091 C 
BRANCH  21  28
ATOM     27  N   UNL     1      34.300 -22.572 -18.720  0.00  0.00    -0.242 NA
ATOM     28  C   UNL     1      34.637 -20.379 -20.462  0.00  0.00    +0.051 C 
ATOM     29  C   UNL     1      35.744 -21.084 -19.962  0.00  0.00    +0.035 C 
ATOM     30  C   UNL     1      33.358 -20.801 -20.067  0.00  0.00    +0.035 C 
ATOM     31  C   UNL     1      35.525 -22.153 -19.110  0.00  0.00    +0.100 C 
ATOM     32  C   UNL     1      33.246 -21.883 -19.210  0.00  0.00    +0.100 C 
ENDBRANCH  21  28
ENDBRANCH  20  22
ENDBRANCH   1  20
TORSDOF 6
ENDMDL
MODEL 7
REMARK VINA RESULT:     -10.3      2.555      3.265
REMARK  Name = 446346
REMARK  6 active torsions:
REMARK  status: ('A' for Active; 'I' for Inactive)
REMARK    1  A    between atoms: N_1  and  C_20
REMARK    2  A    between atoms: N_2  and  S_8
REMARK    3  A    between atoms: S_8  and  C_11
REMARK    4  A    between atoms: C_12  and  C_14
REMARK    5  A    between atoms: C_20  and  C_22
REMARK    6  A    between atoms: N_21  and  C_28
REMARK                            x       y       z     vdW  Elec       q    Type
REMARK                         _______ _______ _______ _____ _____    ______ ____
ROOT
ATOM      1  N   UNL     1      35.139 -18.333 -22.179  0.00  0.00    +0.389 N 
ATOM      2  N   UNL     1      36.021 -20.427 -20.417  0.00  0.00    -0.160 NA
ATOM      3  C   UNL     1      34.334 -19.548 -21.985  0.00  0.00    -0.058 C 
ATOM      4  C   UNL     1      36.568 -18.630 -22.014  0.00  0.00    -0.058 C 
ATOM      5  C   UNL     1      34.569 -20.140 -20.597  0.00  0.00    +0.073 C 
ATOM      6  C   UNL     1      36.848 -19.204 -20.626  0.00  0.00    +0.073 C 
ATOM      7  H   UNL     1      34.867 -17.651 -21.471  0.00  0.00    -0.080 HD
ENDROOT
BRANCH   2   8
ATOM      8  S   UNL     1      36.423 -21.362 -19.040  0.00  0.00    +0.064 S 
ATOM      9  O   UNL     1      37.128 -20.498 -18.109  0.00  0.00    -0.153 OA
ATOM     10  O   UNL     1      37.048 -22.589 -19.503  0.00  0.00    -0.153 OA
BRANCH   8  11
ATOM     11  C   UNL     1      34.891 -21.768 -18.343  0.00  0.00    +0.141 C 
ATOM     12  C   UNL     1      34.896 -22.640 -17.326  0.00  0.00    +0.021 C 
BRANCH  12  14
ATOM     13 CL   UNL     1      30.032 -24.486 -14.408  0.00  0.00    -0.082 Cl
ATOM     14  C   UNL     1      33.695 -23.095 -16.604  0.00  0.00    +0.001 C 
ATOM     15  C   UNL     1      33.829 -23.641 -15.338  0.00  0.00    +0.001 C 
ATOM     16  C   UNL     1      32.453 -22.970 -17.207  0.00  0.00    +0.001 C 
ATOM     17  C   UNL     1      32.692 -24.073 -14.656  0.00  0.00    +0.011 C 
ATOM     18  C   UNL     1      31.316 -23.402 -16.524  0.00  0.00    +0.011 C 
ATOM     19  C   UNL     1      31.435 -23.953 -15.249  0.00  0.00    +0.058 C 
ENDBRANCH  12  14
ENDBRANCH   8  11
ENDBRANCH   2   8
BRANCH   1  20
ATOM     20  C   UNL     1      34.883 -17.752 -23.496  0.00  0.00    -0.077 C 
BRANCH  20  22
ATOM     21  N   UNL     1      33.348 -13.784 -22.820  0.00  0.00    -0.307 N 
ATOM     22  C   UNL     1      34.773 -16.231 -23.425  0.00  0.00    -0.017 C 
ATOM     23  C   UNL     1      34.545 -15.768 -21.982  0.00  0.00    +0.019 C 
ATOM     24  C   UNL     1      33.630 -15.724 -24.310  0.00  0.00    +0.019 C 
ATOM     25  C   UNL     1      34.395 -14.250 -21.900  0.00  0.00    +0.091 C 
ATOM     26  C   UNL     1      33.477 -14.205 -24.219  0.00  0.00    +0.091 C 
BRANCH  21  28
ATOM     27  N   UNL     1      31.461 -10.117 -21.921  0.00  0.00    -0.242 NA
ATOM     28  C   UNL     1      32.723 -12.568 -22.522  0.00  0.00    +0.051 C 
ATOM     29  C   UNL     1      31.804 -12.466 -21.465  0.00  0.00    +0.035 C 
ATOM     30  C   UNL     1      32.993 -11.412 -23.270  0.00  0.00    +0.035 C 
ATOM     31  C   UNL     1      31.212 -11.240 -21.211  0.00  0.00    +0.100 C 
ATOM     32  C   UNL     1      32.348 -10.233 -22.936  0.00  0.00    +0.100 C 
ENDBRANCH  21  28
ENDBRANCH  20  22
ENDBRANCH   1  20
TORSDOF 6
ENDMDL
MODEL 8
REMARK VINA RESULT:     -10.3      6.914     13.340
REMARK  Name = 446346
REMARK  6 active torsions:
REMARK  status: ('A' for Active; 'I' for Inactive)
REMARK    1  A    between atoms: N_1  and  C_20
REMARK    2  A    between atoms: N_2  and  S_8
REMARK    3  A    between atoms: S_8  and  C_11
REMARK    4  A    between atoms: C_12  and  C_14
REMARK    5  A    between atoms: C_20  and  C_22
REMARK    6  A    between atoms: N_21  and  C_28
REMARK                            x       y       z     vdW  Elec       q    Type
REMARK                         _______ _______ _______ _____ _____    ______ ____
ROOT
ATOM      1  N   UNL     1      33.913 -14.072 -23.450  0.00  0.00    +0.389 N 
ATOM      2  N   UNL     1      32.568 -11.597 -22.870  0.00  0.00    -0.160 NA
ATOM      3  C   UNL     1      34.190 -12.859 -24.233  0.00  0.00    -0.058 C 
ATOM      4  C   UNL     1      32.531 -14.061 -22.954  0.00  0.00    -0.058 C 
ATOM      5  C   UNL     1      33.966 -11.605 -23.391  0.00  0.00    +0.073 C 
ATOM      6  C   UNL     1      32.273 -12.831 -22.086  0.00  0.00    +0.073 C 
ATOM      7  H   UNL     1      34.543 -14.087 -22.648  0.00  0.00    -0.080 HD
ENDROOT
BRANCH   2   8
ATOM      8  S   UNL     1      32.056 -10.129 -22.155  0.00  0.00    +0.064 S 
ATOM      9  O   UNL     1      32.386 -10.186 -20.741  0.00  0.00    -0.153 OA
ATOM     10  O   UNL     1      30.684  -9.889 -22.567  0.00  0.00    -0.153 OA
BRANCH   8  11
ATOM     11  C   UNL     1      33.058  -8.925 -22.893  0.00  0.00    +0.141 C 
ATOM     12  C   UNL     1      32.453  -8.028 -23.682  0.00  0.00    +0.021 C 
BRANCH  12  14
ATOM     13 CL   UNL     1      35.235  -3.584 -26.528  0.00  0.00    -0.082 Cl
ATOM     14  C   UNL     1      33.140  -6.930 -24.384  0.00  0.00    +0.001 C 
ATOM     15  C   UNL     1      32.389  -5.981 -25.060  0.00  0.00    +0.001 C 
ATOM     16  C   UNL     1      34.525  -6.867 -24.357  0.00  0.00    +0.001 C 
ATOM     17  C   UNL     1      33.040  -4.942 -25.726  0.00  0.00    +0.011 C 
ATOM     18  C   UNL     1      35.175  -5.828 -25.023  0.00  0.00    +0.011 C 
ATOM     19  C   UNL     1      34.432  -4.865 -25.707  0.00  0.00    +0.058 C 
ENDBRANCH  12  14
ENDBRANCH   8  11
ENDBRANCH   2   8
BRANCH   1  20
ATOM     20  C   UNL     1      34.163 -15.269 -24.252  0.00  0.00    -0.077 C 
BRANCH  20  22
ATOM     21  N   UNL     1      34.942 -18.599 -21.632  0.00  0.00    -0.307 N 
ATOM     22  C   UNL     1      34.890 -16.341 -23.444  0.00  0.00    -0.017 C 
ATOM     23  C   UNL     1      34.465 -17.743 -23.893  0.00  0.00    +0.019 C 
ATOM     24  C   UNL     1      34.613 -16.179 -21.946  0.00  0.00    +0.019 C 
ATOM     25  C   UNL     1      35.156 -18.828 -23.068  0.00  0.00    +0.091 C 
ATOM     26  C   UNL     1      35.300 -17.270 -21.124  0.00  0.00    +0.091 C 
BRANCH  21  28
ATOM     27  N   UNL     1      35.211 -21.942 -19.069  0.00  0.00    -0.242 NA
ATOM     28  C   UNL     1      35.031 -19.707 -20.782  0.00  0.00    +0.051 C 
ATOM     29  C   UNL     1      33.879 -20.382 -20.348  0.00  0.00    +0.035 C 
ATOM     30  C   UNL     1      36.275 -20.180 -20.336  0.00  0.00    +0.035 C 
ATOM     31  C   UNL     1      34.020 -21.473 -19.508  0.00  0.00    +0.100 C 
ATOM     32  C   UNL     1      36.310 -21.281 -19.497  0.00  0.00    +0.100 C 
ENDBRANCH  21  28
ENDBRANCH  20  22
ENDBRANCH   1  20
TORSDOF 6
ENDMDL
MODEL 9
REMARK VINA RESULT:     -10.2      4.967      8.250
REMARK  Name = 446346
REMARK  6 active torsions:
REMARK  status: ('A' for Active; 'I' for Inactive)
REMARK    1  A    between atoms: N_1  and  C_20
REMARK    2  A    between atoms: N_2  and  S_8
REMARK    3  A    between atoms: S_8  and  C_11
REMARK    4  A    between atoms: C_12  and  C_14
REMARK    5  A    between atoms: C_20  and  C_22
REMARK    6  A    between atoms: N_21  and  C_28
REMARK                            x       y       z     vdW  Elec       q    Type
REMARK                         _______ _______ _______ _____ _____    ______ ____
ROOT
ATOM      1  N   UNL     1      33.119 -12.235 -22.959  0.00  0.00    +0.389 N 
ATOM      2  N   UNL     1      33.573 -14.936 -23.836  0.00  0.00    -0.160 NA
ATOM      3  C   UNL     1      33.172 -13.345 -21.996  0.00  0.00    -0.058 C 
ATOM      4  C   UNL     1      32.617 -12.703 -24.258  0.00  0.00    -0.058 C 
ATOM      5  C   UNL     1      34.069 -14.469 -22.510  0.00  0.00    +0.073 C 
ATOM      6  C   UNL     1      33.503 -13.815 -24.816  0.00  0.00    +0.073 C 
ATOM      7  H   UNL     1      34.066 -11.879 -23.090  0.00  0.00    -0.080 HD
ENDROOT
BRANCH   2   8
ATOM      8  S   UNL     1      34.279 -16.383 -24.419  0.00  0.00    +0.064 S 
ATOM      9  O   UNL     1      35.399 -16.017 -25.270  0.00  0.00    -0.153 OA
ATOM     10  O   UNL     1      33.213 -17.216 -24.947  0.00  0.00    -0.153 OA
BRANCH   8  11
ATOM     11  C   UNL     1      34.909 -17.149 -23.001  0.00  0.00    +0.141 C 
ATOM     12  C   UNL     1      34.713 -18.468 -22.881  0.00  0.00    +0.021 C 
BRANCH  12  14
ATOM     13 CL   UNL     1      36.618 -21.792 -18.309  0.00  0.00    -0.082 Cl
ATOM     14  C   UNL     1      35.183 -19.288 -21.751  0.00  0.00    +0.001 C 
ATOM     15  C   UNL     1      36.494 -19.164 -21.321  0.00  0.00    +0.001 C 
ATOM     16  C   UNL     1      34.305 -20.170 -21.141  0.00  0.00    +0.001 C 
ATOM     17  C   UNL     1      36.940 -19.942 -20.253  0.00  0.00    +0.011 C 
ATOM     18  C   UNL     1      34.751 -20.948 -20.072  0.00  0.00    +0.011 C 
ATOM     19  C   UNL     1      36.069 -20.833 -19.628  0.00  0.00    +0.058 C 
ENDBRANCH  12  14
ENDBRANCH   8  11
ENDBRANCH   2   8
BRANCH   1  20
ATOM     20  C   UNL     1      32.287 -11.148 -22.447  0.00  0.00    -0.077 C 
BRANCH  20  22
ATOM     21  N   UNL     1      33.953  -7.868 -24.688  0.00  0.00    -0.307 N 
ATOM     22  C   UNL     1      32.866  -9.782 -22.807  0.00  0.00    -0.017 C 
ATOM     23  C   UNL     1      31.978  -9.068 -23.832  0.00  0.00    +0.019 C 
ATOM     24  C   UNL     1      34.284  -9.921 -23.369  0.00  0.00    +0.019 C 
ATOM     25  C   UNL     1      32.565  -7.715 -24.232  0.00  0.00    +0.091 C 
ATOM     26  C   UNL     1      34.864  -8.566 -23.775  0.00  0.00    +0.091 C 
BRANCH  21  28
ATOM     27  N   UNL     1      35.478  -4.920 -27.294  0.00  0.00    -0.242 NA
ATOM     28  C   UNL     1      34.459  -6.891 -25.552  0.00  0.00    +0.051 C 
ATOM     29  C   UNL     1      35.460  -6.000 -25.133  0.00  0.00    +0.035 C 
ATOM     30  C   UNL     1      33.981  -6.769 -26.867  0.00  0.00    +0.035 C 
ATOM     31  C   UNL     1      35.927  -5.051 -26.026  0.00  0.00    +0.100 C 
ATOM     32  C   UNL     1      34.514  -5.785 -27.683  0.00  0.00    +0.100 C 
ENDBRANCH  21  28
ENDBRANCH  20  22
ENDBRANCH   1  20
TORSDOF 6
ENDMDL
