MODEL 1
REMARK VINA RESULT:     -11.6      0.000      0.000
REMARK  Name = 4823
REMARK  3 active torsions:
REMARK  status: ('A' for Active; 'I' for Inactive)
REMARK    1  A    between atoms: C_3  and  C_16
REMARK    2  A    between atoms: C_9  and  C_21
REMARK    3  A    between atoms: C_26  and  O_27
REMARK                            x       y       z     vdW  Elec       q    Type
REMARK                         _______ _______ _______ _____ _____    ______ ____
ROOT
ATOM      1  N   UNL     1      35.685 -20.488 -19.850  0.00  0.00    -0.315 N 
ATOM      2  N   UNL     1      33.537 -20.893 -20.250  0.00  0.00    -0.315 N 
ATOM      3  C   UNL     1      35.260 -22.887 -17.050  0.00  0.00    +0.016 C 
ATOM      4  C   UNL     1      35.299 -21.389 -18.893  0.00  0.00    +0.059 C 
ATOM      5  C   UNL     1      35.989 -22.000 -17.845  0.00  0.00    +0.017 C 
ATOM      6  C   UNL     1      33.954 -21.628 -19.164  0.00  0.00    +0.059 C 
ATOM      7  C   UNL     1      33.913 -23.149 -17.293  0.00  0.00    +0.003 C 
ATOM      8  C   UNL     1      33.241 -22.524 -18.351  0.00  0.00    +0.016 C 
ATOM      9  C   UNL     1      34.599 -20.223 -20.636  0.00  0.00    +0.168 C 
ATOM     10  H   UNL     1      36.585 -20.100 -19.953  0.00  0.00    +0.149 HD
ATOM     11  H   UNL     1      32.638 -20.875 -20.651  0.00  0.00    +0.149 HD
ENDROOT
BRANCH   3  16
ATOM     12  O   UNL     1      38.037 -25.645 -13.163  0.00  0.00    -0.273 OA
ATOM     13  N   UNL     1      37.176 -23.256 -15.637  0.00  0.00    -0.184 NA
ATOM     14  N   UNL     1      37.818 -23.903 -14.638  0.00  0.00    -0.206 N 
ATOM     15  C   UNL     1      35.183 -24.600 -15.078  0.00  0.00    +0.051 C 
ATOM     16  C   UNL     1      35.947 -23.577 -15.908  0.00  0.00    +0.076 C 
ATOM     17  C   UNL     1      36.157 -25.681 -14.638  0.00  0.00    +0.093 C 
ATOM     18  C   UNL     1      34.517 -23.919 -13.881  0.00  0.00    +0.007 C 
ATOM     19  C   UNL     1      37.405 -25.079 -14.055  0.00  0.00    +0.241 C 
ATOM     20  H   UNL     1      38.650 -23.499 -14.299  0.00  0.00    +0.177 HD
ENDBRANCH   3  16
BRANCH   9  21
ATOM     21  C   UNL     1      34.666 -19.305 -21.749  0.00  0.00    +0.015 C 
ATOM     22  C   UNL     1      35.227 -18.041 -21.576  0.00  0.00    +0.002 C 
ATOM     23  C   UNL     1      34.166 -19.684 -22.995  0.00  0.00    +0.002 C 
ATOM     24  C   UNL     1      35.292 -17.155 -22.652  0.00  0.00    +0.037 C 
ATOM     25  C   UNL     1      34.231 -18.798 -24.070  0.00  0.00    +0.037 C 
ATOM     26  C   UNL     1      34.794 -17.533 -23.898  0.00  0.00    +0.139 C 
BRANCH  26  27
ATOM     27  O   UNL     1      34.857 -16.668 -24.947  0.00  0.00    -0.471 OA
ATOM     28  C   UNL     1      33.856 -15.653 -25.014  0.00  0.00    +0.252 C 
ENDBRANCH  26  27
ENDBRANCH   9  21
TORSDOF 3
ENDMDL
MODEL 2
REMARK VINA RESULT:     -11.5      2.850      9.390
REMARK  Name = 4823
REMARK  3 active torsions:
REMARK  status: ('A' for Active; 'I' for Inactive)
REMARK    1  A    between atoms: C_3  and  C_16
REMARK    2  A    between atoms: C_9  and  C_21
REMARK    3  A    between atoms: C_26  and  O_27
REMARK                            x       y       z     vdW  Elec       q    Type
REMARK                         _______ _______ _______ _____ _____    ______ ____
ROOT
ATOM      1  N   UNL     1      32.652 -21.813 -18.507  0.00  0.00    -0.315 N 
ATOM      2  N   UNL     1      34.540 -22.679 -17.718  0.00  0.00    -0.315 N 
ATOM      3  C   UNL     1      34.849 -20.205 -21.030  0.00  0.00    +0.016 C 
ATOM      4  C   UNL     1      33.643 -21.332 -19.323  0.00  0.00    +0.059 C 
ATOM      5  C   UNL     1      33.619 -20.486 -20.431  0.00  0.00    +0.017 C 
ATOM      6  C   UNL     1      34.812 -21.888 -18.810  0.00  0.00    +0.059 C 
ATOM      7  C   UNL     1      36.039 -20.744 -20.543  0.00  0.00    +0.003 C 
ATOM      8  C   UNL     1      36.039 -21.592 -19.428  0.00  0.00    +0.016 C 
ATOM      9  C   UNL     1      33.237 -22.612 -17.565  0.00  0.00    +0.168 C 
ATOM     10  H   UNL     1      31.690 -21.616 -18.585  0.00  0.00    +0.149 HD
ATOM     11  H   UNL     1      35.182 -23.187 -17.171  0.00  0.00    +0.149 HD
ENDROOT
BRANCH   3  16
ATOM     12  O   UNL     1      34.710 -16.603 -25.205  0.00  0.00    -0.273 OA
ATOM     13  N   UNL     1      35.527 -18.174 -22.133  0.00  0.00    -0.184 NA
ATOM     14  N   UNL     1      35.531 -17.333 -23.192  0.00  0.00    -0.206 N 
ATOM     15  C   UNL     1      34.218 -19.738 -23.522  0.00  0.00    +0.051 C 
ATOM     16  C   UNL     1      34.889 -19.301 -22.227  0.00  0.00    +0.076 C 
ATOM     17  C   UNL     1      33.657 -18.504 -24.210  0.00  0.00    +0.093 C 
ATOM     18  C   UNL     1      35.219 -20.476 -24.413  0.00  0.00    +0.007 C 
ATOM     19  C   UNL     1      34.685 -17.408 -24.274  0.00  0.00    +0.241 C 
ATOM     20  H   UNL     1      36.196 -16.606 -23.189  0.00  0.00    +0.177 HD
ENDBRANCH   3  16
BRANCH   9  21
ATOM     21  C   UNL     1      32.466 -23.281 -16.544  0.00  0.00    +0.015 C 
ATOM     22  C   UNL     1      31.075 -23.308 -16.627  0.00  0.00    +0.002 C 
ATOM     23  C   UNL     1      33.114 -23.898 -15.474  0.00  0.00    +0.002 C 
ATOM     24  C   UNL     1      30.330 -23.954 -15.641  0.00  0.00    +0.037 C 
ATOM     25  C   UNL     1      32.369 -24.544 -14.488  0.00  0.00    +0.037 C 
ATOM     26  C   UNL     1      30.977 -24.573 -14.572  0.00  0.00    +0.139 C 
BRANCH  26  27
ATOM     27  O   UNL     1      30.250 -25.203 -13.609  0.00  0.00    -0.471 OA
ATOM     28  C   UNL     1      29.053 -25.861 -14.025  0.00  0.00    +0.252 C 
ENDBRANCH  26  27
ENDBRANCH   9  21
TORSDOF 3
ENDMDL
MODEL 3
REMARK VINA RESULT:     -10.8      2.028      2.633
REMARK  Name = 4823
REMARK  3 active torsions:
REMARK  status: ('A' for Active; 'I' for Inactive)
REMARK    1  A    between atoms: C_3  and  C_16
REMARK    2  A    between atoms: C_9  and  C_21
REMARK    3  A    between atoms: C_26  and  O_27
REMARK                            x       y       z     vdW  Elec       q    Type
REMARK                         _______ _______ _______ _____ _____    ______ ____
ROOT
ATOM      1  N   UNL     1      33.891 -20.685 -20.051  0.00  0.00    -0.315 N 
ATOM      2  N   UNL     1      36.104 -20.497 -20.112  0.00  0.00    -0.315 N 
ATOM      3  C   UNL     1      34.499 -22.807 -17.067  0.00  0.00    +0.016 C 
ATOM      4  C   UNL     1      34.349 -21.423 -18.991  0.00  0.00    +0.059 C 
ATOM      5  C   UNL     1      33.693 -22.173 -18.015  0.00  0.00    +0.017 C 
ATOM      6  C   UNL     1      35.734 -21.290 -19.050  0.00  0.00    +0.059 C 
ATOM      7  C   UNL     1      35.888 -22.696 -17.096  0.00  0.00    +0.003 C 
ATOM      8  C   UNL     1      36.526 -21.937 -18.086  0.00  0.00    +0.016 C 
ATOM      9  C   UNL     1      34.976 -20.152 -20.689  0.00  0.00    +0.168 C 
ATOM     10  H   UNL     1      32.948 -20.561 -20.307  0.00  0.00    +0.149 HD
ATOM     11  H   UNL     1      37.017 -20.243 -20.380  0.00  0.00    +0.149 HD
ENDROOT
BRANCH   3  16
ATOM     12  O   UNL     1      31.898 -25.443 -12.979  0.00  0.00    -0.273 OA
ATOM     13  N   UNL     1      32.591 -23.918 -16.104  0.00  0.00    -0.184 NA
ATOM     14  N   UNL     1      31.988 -24.620 -15.117  0.00  0.00    -0.206 N 
ATOM     15  C   UNL     1      34.688 -24.127 -14.819  0.00  0.00    +0.051 C 
ATOM     16  C   UNL     1      33.852 -23.628 -15.990  0.00  0.00    +0.076 C 
ATOM     17  C   UNL     1      33.811 -24.142 -13.578  0.00  0.00    +0.093 C 
ATOM     18  C   UNL     1      35.254 -25.514 -15.127  0.00  0.00    +0.007 C 
ATOM     19  C   UNL     1      32.496 -24.817 -13.854  0.00  0.00    +0.241 C 
ATOM     20  H   UNL     1      31.113 -25.023 -15.320  0.00  0.00    +0.177 HD
ENDBRANCH   3  16
BRANCH   9  21
ATOM     21  C   UNL     1      34.841 -19.313 -21.856  0.00  0.00    +0.015 C 
ATOM     22  C   UNL     1      35.305 -17.999 -21.827  0.00  0.00    +0.002 C 
ATOM     23  C   UNL     1      34.244 -19.818 -23.012  0.00  0.00    +0.002 C 
ATOM     24  C   UNL     1      35.175 -17.188 -22.955  0.00  0.00    +0.037 C 
ATOM     25  C   UNL     1      34.114 -19.008 -24.139  0.00  0.00    +0.037 C 
ATOM     26  C   UNL     1      34.580 -17.693 -24.111  0.00  0.00    +0.139 C 
BRANCH  26  27
ATOM     27  O   UNL     1      34.452 -16.902 -25.211  0.00  0.00    -0.471 OA
ATOM     28  C   UNL     1      33.753 -15.668 -25.048  0.00  0.00    +0.252 C 
ENDBRANCH  26  27
ENDBRANCH   9  21
TORSDOF 3
ENDMDL
MODEL 4
REMARK VINA RESULT:     -10.6      1.411      2.122
REMARK  Name = 4823
REMARK  3 active torsions:
REMARK  status: ('A' for Active; 'I' for Inactive)
REMARK    1  A    between atoms: C_3  and  C_16
REMARK    2  A    between atoms: C_9  and  C_21
REMARK    3  A    between atoms: C_26  and  O_27
REMARK                            x       y       z     vdW  Elec       q    Type
REMARK                         _______ _______ _______ _____ _____    ______ ____
ROOT
ATOM      1  N   UNL     1      36.026 -21.222 -18.559  0.00  0.00    -0.315 N 
ATOM      2  N   UNL     1      33.994 -21.892 -19.159  0.00  0.00    -0.315 N 
ATOM      3  C   UNL     1      35.560 -23.526 -15.686  0.00  0.00    +0.016 C 
ATOM      4  C   UNL     1      35.638 -22.118 -17.597  0.00  0.00    +0.059 C 
ATOM      5  C   UNL     1      36.270 -22.596 -16.449  0.00  0.00    +0.017 C 
ATOM      6  C   UNL     1      34.366 -22.523 -17.995  0.00  0.00    +0.059 C 
ATOM      7  C   UNL     1      34.285 -23.953 -16.054  0.00  0.00    +0.003 C 
ATOM      8  C   UNL     1      33.670 -23.459 -17.211  0.00  0.00    +0.016 C 
ATOM      9  C   UNL     1      35.011 -21.121 -19.469  0.00  0.00    +0.168 C 
ATOM     10  H   UNL     1      36.882 -20.737 -18.588  0.00  0.00    +0.149 HD
ATOM     11  H   UNL     1      33.148 -21.997 -19.653  0.00  0.00    +0.149 HD
ENDROOT
BRANCH   3  16
ATOM     12  O   UNL     1      38.062 -25.145 -11.045  0.00  0.00    -0.273 OA
ATOM     13  N   UNL     1      35.751 -23.664 -13.289  0.00  0.00    -0.184 NA
ATOM     14  N   UNL     1      36.340 -24.122 -12.161  0.00  0.00    -0.206 N 
ATOM     15  C   UNL     1      37.285 -25.128 -14.552  0.00  0.00    +0.051 C 
ATOM     16  C   UNL     1      36.187 -24.078 -14.440  0.00  0.00    +0.076 C 
ATOM     17  C   UNL     1      38.270 -24.912 -13.414  0.00  0.00    +0.093 C 
ATOM     18  C   UNL     1      36.679 -26.532 -14.516  0.00  0.00    +0.007 C 
ATOM     19  C   UNL     1      37.553 -24.767 -12.100  0.00  0.00    +0.241 C 
ATOM     20  H   UNL     1      35.860 -23.983 -11.312  0.00  0.00    +0.177 HD
ENDBRANCH   3  16
BRANCH   9  21
ATOM     21  C   UNL     1      35.099 -20.253 -20.619  0.00  0.00    +0.015 C 
ATOM     22  C   UNL     1      34.063 -20.225 -21.552  0.00  0.00    +0.002 C 
ATOM     23  C   UNL     1      36.222 -19.445 -20.799  0.00  0.00    +0.002 C 
ATOM     24  C   UNL     1      34.148 -19.386 -22.664  0.00  0.00    +0.037 C 
ATOM     25  C   UNL     1      36.307 -18.607 -21.910  0.00  0.00    +0.037 C 
ATOM     26  C   UNL     1      35.270 -18.577 -22.842  0.00  0.00    +0.139 C 
BRANCH  26  27
ATOM     27  O   UNL     1      35.353 -17.760 -23.927  0.00  0.00    -0.471 OA
ATOM     28  C   UNL     1      34.811 -16.446 -23.794  0.00  0.00    +0.252 C 
ENDBRANCH  26  27
ENDBRANCH   9  21
TORSDOF 3
ENDMDL
MODEL 5
REMARK VINA RESULT:     -10.3      7.842     14.058
REMARK  Name = 4823
REMARK  3 active torsions:
REMARK  status: ('A' for Active; 'I' for Inactive)
REMARK    1  A    between atoms: C_3  and  C_16
REMARK    2  A    between atoms: C_9  and  C_21
REMARK    3  A    between atoms: C_26  and  O_27
REMARK                            x       y       z     vdW  Elec       q    Type
REMARK                         _______ _______ _______ _____ _____    ______ ____
ROOT
ATOM      1  N   UNL     1      33.447 -12.221 -23.492  0.00  0.00    -0.315 N 
ATOM      2  N   UNL     1      32.456 -13.007 -21.665  0.00  0.00    -0.315 N 
ATOM      3  C   UNL     1      31.949  -8.976 -22.488  0.00  0.00    +0.016 C 
ATOM      4  C   UNL     1      32.803 -11.147 -22.934  0.00  0.00    +0.059 C 
ATOM      5  C   UNL     1      32.706  -9.808 -23.315  0.00  0.00    +0.017 C 
ATOM      6  C   UNL     1      32.192 -11.663 -21.794  0.00  0.00    +0.059 C 
ATOM      7  C   UNL     1      31.324  -9.459 -21.340  0.00  0.00    +0.003 C 
ATOM      8  C   UNL     1      31.435 -10.807 -20.976  0.00  0.00    +0.016 C 
ATOM      9  C   UNL     1      33.209 -13.308 -22.698  0.00  0.00    +0.168 C 
ATOM     10  H   UNL     1      33.984 -12.210 -24.317  0.00  0.00    +0.149 HD
ATOM     11  H   UNL     1      32.146 -13.612 -20.952  0.00  0.00    +0.149 HD
ENDROOT
BRANCH   3  16
ATOM     12  O   UNL     1      31.009  -3.743 -23.954  0.00  0.00    -0.273 OA
ATOM     13  N   UNL     1      31.005  -6.788 -22.139  0.00  0.00    -0.184 NA
ATOM     14  N   UNL     1      30.837  -5.490 -22.479  0.00  0.00    -0.206 N 
ATOM     15  C   UNL     1      32.628  -6.949 -23.991  0.00  0.00    +0.051 C 
ATOM     16  C   UNL     1      31.808  -7.525 -22.844  0.00  0.00    +0.076 C 
ATOM     17  C   UNL     1      31.798  -5.878 -24.680  0.00  0.00    +0.093 C 
ATOM     18  C   UNL     1      33.950  -6.387 -23.464  0.00  0.00    +0.007 C 
ATOM     19  C   UNL     1      31.205  -4.926 -23.679  0.00  0.00    +0.241 C 
ATOM     20  H   UNL     1      30.416  -4.899 -21.813  0.00  0.00    +0.177 HD
ENDBRANCH   3  16
BRANCH   9  21
ATOM     21  C   UNL     1      33.749 -14.611 -23.005  0.00  0.00    +0.015 C 
ATOM     22  C   UNL     1      33.530 -15.178 -24.259  0.00  0.00    +0.002 C 
ATOM     23  C   UNL     1      34.489 -15.303 -22.045  0.00  0.00    +0.002 C 
ATOM     24  C   UNL     1      34.052 -16.438 -24.556  0.00  0.00    +0.037 C 
ATOM     25  C   UNL     1      35.010 -16.562 -22.341  0.00  0.00    +0.037 C 
ATOM     26  C   UNL     1      34.792 -17.129 -23.597  0.00  0.00    +0.139 C 
BRANCH  26  27
ATOM     27  O   UNL     1      35.301 -18.357 -23.886  0.00  0.00    -0.471 OA
ATOM     28  C   UNL     1      34.866 -19.449 -23.075  0.00  0.00    +0.252 C 
ENDBRANCH  26  27
ENDBRANCH   9  21
TORSDOF 3
ENDMDL
MODEL 6
REMARK VINA RESULT:     -10.2      7.640     13.869
REMARK  Name = 4823
REMARK  3 active torsions:
REMARK  status: ('A' for Active; 'I' for Inactive)
REMARK    1  A    between atoms: C_3  and  C_16
REMARK    2  A    between atoms: C_9  and  C_21
REMARK    3  A    between atoms: C_26  and  O_27
REMARK                            x       y       z     vdW  Elec       q    Type
REMARK                         _______ _______ _______ _____ _____    ______ ____
ROOT
ATOM      1  N   UNL     1      34.157 -12.515 -23.184  0.00  0.00    -0.315 N 
ATOM      2  N   UNL     1      32.385 -13.246 -22.059  0.00  0.00    -0.315 N 
ATOM      3  C   UNL     1      32.434  -9.228 -23.080  0.00  0.00    +0.016 C 
ATOM      4  C   UNL     1      33.348 -11.420 -23.024  0.00  0.00    +0.059 C 
ATOM      5  C   UNL     1      33.479 -10.089 -23.423  0.00  0.00    +0.017 C 
ATOM      6  C   UNL     1      32.249 -11.902 -22.318  0.00  0.00    +0.059 C 
ATOM      7  C   UNL     1      31.319  -9.677 -22.374  0.00  0.00    +0.003 C 
ATOM      8  C   UNL     1      31.209 -11.017 -21.984  0.00  0.00    +0.016 C 
ATOM      9  C   UNL     1      33.539 -13.580 -22.591  0.00  0.00    +0.168 C 
ATOM     10  H   UNL     1      35.027 -12.531 -23.644  0.00  0.00    +0.149 HD
ATOM     11  H   UNL     1      31.755 -13.830 -21.578  0.00  0.00    +0.149 HD
ENDROOT
BRANCH   3  16
ATOM     12  O   UNL     1      32.922  -4.062 -24.948  0.00  0.00    -0.273 OA
ATOM     13  N   UNL     1      31.709  -7.347 -24.398  0.00  0.00    -0.184 NA
ATOM     14  N   UNL     1      31.805  -6.058 -24.797  0.00  0.00    -0.206 N 
ATOM     15  C   UNL     1      33.512  -6.866 -22.783  0.00  0.00    +0.051 C 
ATOM     16  C   UNL     1      32.517  -7.785 -23.480  0.00  0.00    +0.076 C 
ATOM     17  C   UNL     1      34.012  -5.848 -23.794  0.00  0.00    +0.093 C 
ATOM     18  C   UNL     1      32.853  -6.190 -21.579  0.00  0.00    +0.007 C 
ATOM     19  C   UNL     1      32.867  -5.223 -24.543  0.00  0.00    +0.241 C 
ATOM     20  H   UNL     1      31.053  -5.688 -25.312  0.00  0.00    +0.177 HD
ENDBRANCH   3  16
BRANCH   9  21
ATOM     21  C   UNL     1      34.130 -14.897 -22.578  0.00  0.00    +0.015 C 
ATOM     22  C   UNL     1      34.554 -15.459 -21.375  0.00  0.00    +0.002 C 
ATOM     23  C   UNL     1      34.280 -15.605 -23.771  0.00  0.00    +0.002 C 
ATOM     24  C   UNL     1      35.125 -16.732 -21.362  0.00  0.00    +0.037 C 
ATOM     25  C   UNL     1      34.851 -16.877 -23.759  0.00  0.00    +0.037 C 
ATOM     26  C   UNL     1      35.273 -17.441 -22.554  0.00  0.00    +0.139 C 
BRANCH  26  27
ATOM     27  O   UNL     1      35.831 -18.682 -22.542  0.00  0.00    -0.471 OA
ATOM     28  C   UNL     1      35.080 -19.726 -21.924  0.00  0.00    +0.252 C 
ENDBRANCH  26  27
ENDBRANCH   9  21
TORSDOF 3
ENDMDL
MODEL 7
REMARK VINA RESULT:     -10.1      2.723      3.570
REMARK  Name = 4823
REMARK  3 active torsions:
REMARK  status: ('A' for Active; 'I' for Inactive)
REMARK    1  A    between atoms: C_3  and  C_16
REMARK    2  A    between atoms: C_9  and  C_21
REMARK    3  A    between atoms: C_26  and  O_27
REMARK                            x       y       z     vdW  Elec       q    Type
REMARK                         _______ _______ _______ _____ _____    ______ ____
ROOT
ATOM      1  N   UNL     1      33.131 -20.579 -20.068  0.00  0.00    -0.315 N 
ATOM      2  N   UNL     1      35.318 -20.966 -20.097  0.00  0.00    -0.315 N 
ATOM      3  C   UNL     1      33.106 -22.910 -17.179  0.00  0.00    +0.016 C 
ATOM      4  C   UNL     1      33.360 -21.455 -19.039  0.00  0.00    +0.059 C 
ATOM      5  C   UNL     1      32.511 -22.050 -18.105  0.00  0.00    +0.017 C 
ATOM      6  C   UNL     1      34.734 -21.680 -19.076  0.00  0.00    +0.059 C 
ATOM      7  C   UNL     1      34.477 -23.159 -17.188  0.00  0.00    +0.003 C 
ATOM      8  C   UNL     1      35.310 -22.549 -18.135  0.00  0.00    +0.016 C 
ATOM      9  C   UNL     1      34.330 -20.318 -20.669  0.00  0.00    +0.168 C 
ATOM     10  H   UNL     1      32.257 -20.206 -20.329  0.00  0.00    +0.149 HD
ATOM     11  H   UNL     1      36.272 -20.945 -20.343  0.00  0.00    +0.149 HD
ENDROOT
BRANCH   3  16
ATOM     12  O   UNL     1      30.132 -25.773 -13.521  0.00  0.00    -0.273 OA
ATOM     13  N   UNL     1      32.811 -24.049 -15.077  0.00  0.00    -0.184 NA
ATOM     14  N   UNL     1      32.051 -24.695 -14.164  0.00  0.00    -0.206 N 
ATOM     15  C   UNL     1      30.740 -23.663 -16.363  0.00  0.00    +0.051 C 
ATOM     16  C   UNL     1      32.246 -23.580 -16.149  0.00  0.00    +0.076 C 
ATOM     17  C   UNL     1      30.244 -24.970 -15.769  0.00  0.00    +0.093 C 
ATOM     18  C   UNL     1      30.049 -22.455 -15.727  0.00  0.00    +0.007 C 
ATOM     19  C   UNL     1      30.778 -25.168 -14.377  0.00  0.00    +0.241 C 
ATOM     20  H   UNL     1      32.442 -24.837 -13.271  0.00  0.00    +0.177 HD
ENDBRANCH   3  16
BRANCH   9  21
ATOM     21  C   UNL     1      34.441 -19.425 -21.798  0.00  0.00    +0.015 C 
ATOM     22  C   UNL     1      33.950 -19.813 -23.044  0.00  0.00    +0.002 C 
ATOM     23  C   UNL     1      35.041 -18.175 -21.642  0.00  0.00    +0.002 C 
ATOM     24  C   UNL     1      34.057 -18.949 -24.135  0.00  0.00    +0.037 C 
ATOM     25  C   UNL     1      35.148 -17.313 -22.732  0.00  0.00    +0.037 C 
ATOM     26  C   UNL     1      34.656 -17.700 -23.979  0.00  0.00    +0.139 C 
BRANCH  26  27
ATOM     27  O   UNL     1      34.761 -16.858 -25.043  0.00  0.00    -0.471 OA
ATOM     28  C   UNL     1      33.961 -15.676 -25.019  0.00  0.00    +0.252 C 
ENDBRANCH  26  27
ENDBRANCH   9  21
TORSDOF 3
ENDMDL
MODEL 8
REMARK VINA RESULT:      -9.9      9.127     15.281
REMARK  Name = 4823
REMARK  3 active torsions:
REMARK  status: ('A' for Active; 'I' for Inactive)
REMARK    1  A    between atoms: C_3  and  C_16
REMARK    2  A    between atoms: C_9  and  C_21
REMARK    3  A    between atoms: C_26  and  O_27
REMARK                            x       y       z     vdW  Elec       q    Type
REMARK                         _______ _______ _______ _____ _____    ______ ____
ROOT
ATOM      1  N   UNL     1      32.731 -10.854 -23.488  0.00  0.00    -0.315 N 
ATOM      2  N   UNL     1      34.947 -10.725 -23.594  0.00  0.00    -0.315 N 
ATOM      3  C   UNL     1      32.875  -7.157 -23.193  0.00  0.00    +0.016 C 
ATOM      4  C   UNL     1      33.024  -9.518 -23.394  0.00  0.00    +0.059 C 
ATOM      5  C   UNL     1      32.219  -8.388 -23.259  0.00  0.00    +0.017 C 
ATOM      6  C   UNL     1      34.414  -9.463 -23.463  0.00  0.00    +0.059 C 
ATOM      7  C   UNL     1      34.264  -7.065 -23.258  0.00  0.00    +0.003 C 
ATOM      8  C   UNL     1      35.053  -8.214 -23.394  0.00  0.00    +0.016 C 
ATOM      9  C   UNL     1      33.912 -11.533 -23.606  0.00  0.00    +0.168 C 
ATOM     10  H   UNL     1      31.831 -11.253 -23.473  0.00  0.00    +0.149 HD
ATOM     11  H   UNL     1      35.899 -10.968 -23.664  0.00  0.00    +0.149 HD
ENDROOT
BRANCH   3  16
ATOM     12  O   UNL     1      30.244  -2.321 -22.850  0.00  0.00    -0.273 OA
ATOM     13  N   UNL     1      31.576  -5.352 -24.119  0.00  0.00    -0.184 NA
ATOM     14  N   UNL     1      30.881  -4.198 -24.004  0.00  0.00    -0.206 N 
ATOM     15  C   UNL     1      31.802  -5.331 -21.661  0.00  0.00    +0.051 C 
ATOM     16  C   UNL     1      32.063  -5.903 -23.048  0.00  0.00    +0.076 C 
ATOM     17  C   UNL     1      31.763  -3.816 -21.769  0.00  0.00    +0.093 C 
ATOM     18  C   UNL     1      30.495  -5.891 -21.097  0.00  0.00    +0.007 C 
ATOM     19  C   UNL     1      30.874  -3.377 -22.900  0.00  0.00    +0.241 C 
ATOM     20  H   UNL     1      30.333  -3.922 -24.774  0.00  0.00    +0.177 HD
ENDBRANCH   3  16
BRANCH   9  21
ATOM     21  C   UNL     1      33.958 -12.971 -23.727  0.00  0.00    +0.015 C 
ATOM     22  C   UNL     1      33.483 -13.588 -24.883  0.00  0.00    +0.002 C 
ATOM     23  C   UNL     1      34.477 -13.742 -22.687  0.00  0.00    +0.002 C 
ATOM     24  C   UNL     1      33.528 -14.977 -25.001  0.00  0.00    +0.037 C 
ATOM     25  C   UNL     1      34.522 -15.131 -22.804  0.00  0.00    +0.037 C 
ATOM     26  C   UNL     1      34.047 -15.748 -23.962  0.00  0.00    +0.139 C 
BRANCH  26  27
ATOM     27  O   UNL     1      34.091 -17.103 -24.077  0.00  0.00    -0.471 OA
ATOM     28  C   UNL     1      34.931 -17.807 -23.162  0.00  0.00    +0.252 C 
ENDBRANCH  26  27
ENDBRANCH   9  21
TORSDOF 3
ENDMDL
MODEL 9
REMARK VINA RESULT:      -9.9      5.483     11.369
REMARK  Name = 4823
REMARK  3 active torsions:
REMARK  status: ('A' for Active; 'I' for Inactive)
REMARK    1  A    between atoms: C_3  and  C_16
REMARK    2  A    between atoms: C_9  and  C_21
REMARK    3  A    between atoms: C_26  and  O_27
REMARK                            x       y       z     vdW  Elec       q    Type
REMARK                         _______ _______ _______ _____ _____    ______ ____
ROOT
ATOM      1  N   UNL     1      34.401 -15.870 -21.180  0.00  0.00    -0.315 N 
ATOM      2  N   UNL     1      34.783 -16.630 -23.233  0.00  0.00    -0.315 N 
ATOM      3  C   UNL     1      33.206 -12.810 -22.908  0.00  0.00    +0.016 C 
ATOM      4  C   UNL     1      34.016 -14.859 -22.021  0.00  0.00    +0.059 C 
ATOM      5  C   UNL     1      33.488 -13.590 -21.784  0.00  0.00    +0.017 C 
ATOM      6  C   UNL     1      34.263 -15.358 -23.298  0.00  0.00    +0.059 C 
ATOM      7  C   UNL     1      33.442 -13.278 -24.200  0.00  0.00    +0.003 C 
ATOM      8  C   UNL     1      33.973 -14.556 -24.414  0.00  0.00    +0.016 C 
ATOM      9  C   UNL     1      34.852 -16.905 -21.950  0.00  0.00    +0.168 C 
ATOM     10  H   UNL     1      34.361 -15.853 -20.196  0.00  0.00    +0.149 HD
ATOM     11  H   UNL     1      35.046 -17.209 -23.985  0.00  0.00    +0.149 HD
ENDROOT
BRANCH   3  16
ATOM     12  O   UNL     1      31.537  -7.597 -22.231  0.00  0.00    -0.273 OA
ATOM     13  N   UNL     1      32.641 -10.616 -23.726  0.00  0.00    -0.184 NA
ATOM     14  N   UNL     1      32.169  -9.360 -23.553  0.00  0.00    -0.206 N 
ATOM     15  C   UNL     1      32.035 -11.049 -21.373  0.00  0.00    +0.051 C 
ATOM     16  C   UNL     1      32.635 -11.436 -22.719  0.00  0.00    +0.076 C 
ATOM     17  C   UNL     1      32.310  -9.573 -21.133  0.00  0.00    +0.093 C 
ATOM     18  C   UNL     1      30.536 -11.354 -21.356  0.00  0.00    +0.007 C 
ATOM     19  C   UNL     1      31.945  -8.753 -22.340  0.00  0.00    +0.241 C 
ATOM     20  H   UNL     1      31.969  -8.837 -24.363  0.00  0.00    +0.177 HD
ENDBRANCH   3  16
BRANCH   9  21
ATOM     21  C   UNL     1      35.335 -18.136 -21.370  0.00  0.00    +0.015 C 
ATOM     22  C   UNL     1      36.700 -18.312 -21.148  0.00  0.00    +0.002 C 
ATOM     23  C   UNL     1      34.436 -19.149 -21.035  0.00  0.00    +0.002 C 
ATOM     24  C   UNL     1      37.167 -19.501 -20.587  0.00  0.00    +0.037 C 
ATOM     25  C   UNL     1      34.903 -20.337 -20.475  0.00  0.00    +0.037 C 
ATOM     26  C   UNL     1      36.269 -20.513 -20.251  0.00  0.00    +0.139 C 
BRANCH  26  27
ATOM     27  O   UNL     1      36.724 -21.673 -19.704  0.00  0.00    -0.471 OA
ATOM     28  C   UNL     1      36.376 -21.932 -18.345  0.00  0.00    +0.252 C 
ENDBRANCH  26  27
ENDBRANCH   9  21
TORSDOF 3
ENDMDL
