MODEL 1
REMARK VINA RESULT:     -12.4      0.000      0.000
REMARK  Name = 25114442
REMARK  7 active torsions:
REMARK  status: ('A' for Active; 'I' for Inactive)
REMARK    1  A    between atoms: C_3  and  C_15
REMARK    2  A    between atoms: C_3  and  C_18
REMARK    3  A    between atoms: C_6  and  C_8
REMARK    4  A    between atoms: C_15  and  O_16
REMARK    5  A    between atoms: C_18  and  O_19
REMARK    6  A    between atoms: O_19  and  C_20
REMARK    7  A    between atoms: C_28  and  O_30
REMARK                            x       y       z     vdW  Elec       q    Type
REMARK                         _______ _______ _______ _____ _____    ______ ____
ROOT
ATOM      1  O   UNL     1      32.155 -23.193 -12.271  0.00  0.00    -0.270 OA
ATOM      2  N   UNL     1      33.538 -24.089 -13.877  0.00  0.00    -0.275 N 
ATOM      3  C   UNL     1      35.345 -24.071 -14.837  0.00  0.00    +0.166 C 
ATOM      4  C   UNL     1      33.984 -24.727 -15.101  0.00  0.00    +0.110 C 
ATOM      5  C   UNL     1      34.877 -23.790 -13.404  0.00  0.00    +0.110 C 
ATOM      6  C   UNL     1      32.319 -23.743 -13.356  0.00  0.00    +0.249 C 
ENDROOT
BRANCH   6   8
ATOM      7  F   UNL     1      27.804 -24.858 -16.484  0.00  0.00    -0.204 F 
ATOM      8  C   UNL     1      31.131 -24.037 -14.180  0.00  0.00    +0.054 C 
ATOM      9  C   UNL     1      30.416 -25.217 -13.977  0.00  0.00    +0.007 C 
ATOM     10  C   UNL     1      30.722 -23.134 -15.162  0.00  0.00    +0.007 C 
ATOM     11  C   UNL     1      29.292 -25.494 -14.755  0.00  0.00    +0.030 C 
ATOM     12  C   UNL     1      29.598 -23.412 -15.940  0.00  0.00    +0.030 C 
ATOM     13  C   UNL     1      28.883 -24.591 -15.737  0.00  0.00    +0.140 C 
ENDBRANCH   6   8
BRANCH   3  15
ATOM     14  O   UNL     1      36.579 -26.212 -15.022  0.00  0.00    -0.250 OA
ATOM     15  C   UNL     1      36.588 -24.984 -14.989  0.00  0.00    +0.320 C 
BRANCH  15  16
ATOM     16  O   UNL     1      37.744 -24.272 -15.088  0.00  0.00    -0.480 OA
ATOM     17  H   UNL     1      37.717 -23.336 -15.117  0.00  0.00    +0.295 HD
ENDBRANCH  15  16
ENDBRANCH   3  15
BRANCH   3  18
ATOM     18  C   UNL     1      35.518 -22.791 -15.631  0.00  0.00    +0.219 C 
BRANCH  18  19
ATOM     19  O   UNL     1      36.004 -23.124 -16.931  0.00  0.00    -0.475 OA
BRANCH  19  20
ATOM     20  C   UNL     1      35.578 -22.352 -17.968  0.00  0.00    +0.139 C 
ATOM     21  C   UNL     1      36.473 -21.496 -18.611  0.00  0.00    +0.037 C 
ATOM     22  C   UNL     1      34.252 -22.416 -18.385  0.00  0.00    +0.037 C 
ATOM     23  C   UNL     1      36.049 -20.692 -19.683  0.00  0.00    +0.003 C 
ATOM     24  C   UNL     1      34.701 -20.757 -20.107  0.00  0.00    +0.003 C 
ATOM     25  C   UNL     1      33.814 -21.625 -19.447  0.00  0.00    +0.003 C 
ATOM     26  C   UNL     1      36.936 -19.825 -20.343  0.00  0.00    +0.003 C 
ATOM     27  C   UNL     1      34.278 -19.953 -21.179  0.00  0.00    +0.037 C 
ATOM     28  C   UNL     1      35.172 -19.098 -21.822  0.00  0.00    +0.139 C 
ATOM     29  C   UNL     1      36.498 -19.033 -21.405  0.00  0.00    +0.037 C 
BRANCH  28  30
ATOM     30  O   UNL     1      34.745 -18.324 -22.858  0.00  0.00    -0.471 OA
ATOM     31  C   UNL     1      34.159 -18.996 -23.971  0.00  0.00    +0.252 C 
ENDBRANCH  28  30
ENDBRANCH  19  20
ENDBRANCH  18  19
ENDBRANCH   3  18
TORSDOF 7
ENDMDL
MODEL 2
REMARK VINA RESULT:     -10.2      4.551      9.872
REMARK  Name = 25114442
REMARK  7 active torsions:
REMARK  status: ('A' for Active; 'I' for Inactive)
REMARK    1  A    between atoms: C_3  and  C_15
REMARK    2  A    between atoms: C_3  and  C_18
REMARK    3  A    between atoms: C_6  and  C_8
REMARK    4  A    between atoms: C_15  and  O_16
REMARK    5  A    between atoms: C_18  and  O_19
REMARK    6  A    between atoms: O_19  and  C_20
REMARK    7  A    between atoms: C_28  and  O_30
REMARK                            x       y       z     vdW  Elec       q    Type
REMARK                         _______ _______ _______ _____ _____    ______ ____
ROOT
ATOM      1  O   UNL     1      34.054 -16.960 -25.145  0.00  0.00    -0.270 OA
ATOM      2  N   UNL     1      35.188 -17.192 -23.156  0.00  0.00    -0.275 N 
ATOM      3  C   UNL     1      35.899 -18.418 -21.681  0.00  0.00    +0.166 C 
ATOM      4  C   UNL     1      35.707 -16.904 -21.832  0.00  0.00    +0.110 C 
ATOM      5  C   UNL     1      35.710 -18.545 -23.197  0.00  0.00    +0.110 C 
ATOM      6  C   UNL     1      34.383 -16.527 -24.044  0.00  0.00    +0.249 C 
ENDROOT
BRANCH   6   8
ATOM      7  F   UNL     1      32.419 -11.528 -22.445  0.00  0.00    -0.204 F 
ATOM      8  C   UNL     1      33.865 -15.212 -23.623  0.00  0.00    +0.054 C 
ATOM      9  C   UNL     1      33.800 -14.889 -22.268  0.00  0.00    +0.007 C 
ATOM     10  C   UNL     1      33.442 -14.290 -24.580  0.00  0.00    +0.007 C 
ATOM     11  C   UNL     1      33.312 -13.645 -21.869  0.00  0.00    +0.030 C 
ATOM     12  C   UNL     1      32.953 -13.045 -24.182  0.00  0.00    +0.030 C 
ATOM     13  C   UNL     1      32.888 -12.723 -22.827  0.00  0.00    +0.140 C 
ENDBRANCH   6   8
BRANCH   3  15
ATOM     14  O   UNL     1      38.306 -19.003 -21.758  0.00  0.00    -0.250 OA
ATOM     15  C   UNL     1      37.265 -18.884 -21.116  0.00  0.00    +0.320 C 
BRANCH  15  16
ATOM     16  O   UNL     1      37.207 -19.160 -19.784  0.00  0.00    -0.480 OA
ATOM     17  H   UNL     1      37.179 -18.461 -19.161  0.00  0.00    +0.295 HD
ENDBRANCH  15  16
ENDBRANCH   3  15
BRANCH   3  18
ATOM     18  C   UNL     1      34.756 -19.057 -20.918  0.00  0.00    +0.219 C 
BRANCH  18  19
ATOM     19  O   UNL     1      34.883 -20.476 -21.011  0.00  0.00    -0.475 OA
BRANCH  19  20
ATOM     20  C   UNL     1      34.668 -21.192 -19.873  0.00  0.00    +0.139 C 
ATOM     21  C   UNL     1      35.725 -21.438 -18.996  0.00  0.00    +0.037 C 
ATOM     22  C   UNL     1      33.396 -21.680 -19.587  0.00  0.00    +0.037 C 
ATOM     23  C   UNL     1      35.521 -22.176 -17.818  0.00  0.00    +0.003 C 
ATOM     24  C   UNL     1      34.228 -22.672 -17.527  0.00  0.00    +0.003 C 
ATOM     25  C   UNL     1      33.176 -22.415 -18.421  0.00  0.00    +0.003 C 
ATOM     26  C   UNL     1      36.573 -22.433 -16.924  0.00  0.00    +0.003 C 
ATOM     27  C   UNL     1      34.025 -23.410 -16.349  0.00  0.00    +0.037 C 
ATOM     28  C   UNL     1      35.081 -23.655 -15.472  0.00  0.00    +0.139 C 
ATOM     29  C   UNL     1      36.353 -23.169 -15.758  0.00  0.00    +0.037 C 
BRANCH  28  30
ATOM     30  O   UNL     1      34.868 -24.374 -14.336  0.00  0.00    -0.471 OA
ATOM     31  C   UNL     1      33.511 -24.597 -13.954  0.00  0.00    +0.252 C 
ENDBRANCH  28  30
ENDBRANCH  19  20
ENDBRANCH  18  19
ENDBRANCH   3  18
TORSDOF 7
ENDMDL
MODEL 3
REMARK VINA RESULT:     -10.0      6.005      9.803
REMARK  Name = 25114442
REMARK  7 active torsions:
REMARK  status: ('A' for Active; 'I' for Inactive)
REMARK    1  A    between atoms: C_3  and  C_15
REMARK    2  A    between atoms: C_3  and  C_18
REMARK    3  A    between atoms: C_6  and  C_8
REMARK    4  A    between atoms: C_15  and  O_16
REMARK    5  A    between atoms: C_18  and  O_19
REMARK    6  A    between atoms: O_19  and  C_20
REMARK    7  A    between atoms: C_28  and  O_30
REMARK                            x       y       z     vdW  Elec       q    Type
REMARK                         _______ _______ _______ _____ _____    ______ ____
ROOT
ATOM      1  O   UNL     1      37.565 -19.410 -20.354  0.00  0.00    -0.270 OA
ATOM      2  N   UNL     1      35.860 -18.820 -21.783  0.00  0.00    -0.275 N 
ATOM      3  C   UNL     1      34.949 -17.384 -22.919  0.00  0.00    +0.166 C 
ATOM      4  C   UNL     1      34.557 -18.779 -22.420  0.00  0.00    +0.110 C 
ATOM      5  C   UNL     1      36.399 -17.709 -22.544  0.00  0.00    +0.110 C 
ATOM      6  C   UNL     1      36.408 -19.531 -20.747  0.00  0.00    +0.249 C 
ENDROOT
BRANCH   6   8
ATOM      7  F   UNL     1      33.057 -23.163 -18.103  0.00  0.00    -0.204 F 
ATOM      8  C   UNL     1      35.526 -20.486 -20.050  0.00  0.00    +0.054 C 
ATOM      9  C   UNL     1      34.145 -20.421 -20.233  0.00  0.00    +0.007 C 
ATOM     10  C   UNL     1      36.073 -21.456 -19.210  0.00  0.00    +0.007 C 
ATOM     11  C   UNL     1      33.311 -21.325 -19.576  0.00  0.00    +0.030 C 
ATOM     12  C   UNL     1      35.239 -22.360 -18.552  0.00  0.00    +0.030 C 
ATOM     13  C   UNL     1      33.858 -22.295 -18.735  0.00  0.00    +0.140 C 
ENDBRANCH   6   8
BRANCH   3  15
ATOM     14  O   UNL     1      33.875 -17.687 -25.132  0.00  0.00    -0.250 OA
ATOM     15  C   UNL     1      34.673 -17.088 -24.415  0.00  0.00    +0.320 C 
BRANCH  15  16
ATOM     16  O   UNL     1      35.428 -16.057 -24.887  0.00  0.00    -0.480 OA
ATOM     17  H   UNL     1      36.004 -15.596 -24.310  0.00  0.00    +0.295 HD
ENDBRANCH  15  16
ENDBRANCH   3  15
BRANCH   3  18
ATOM     18  C   UNL     1      34.375 -16.289 -22.040  0.00  0.00    +0.219 C 
BRANCH  18  19
ATOM     19  O   UNL     1      33.798 -15.288 -22.878  0.00  0.00    -0.475 OA
BRANCH  19  20
ATOM     20  C   UNL     1      33.310 -14.174 -22.266  0.00  0.00    +0.139 C 
ATOM     21  C   UNL     1      33.262 -12.964 -22.958  0.00  0.00    +0.037 C 
ATOM     22  C   UNL     1      32.862 -14.243 -20.950  0.00  0.00    +0.037 C 
ATOM     23  C   UNL     1      32.762 -11.805 -22.341  0.00  0.00    +0.003 C 
ATOM     24  C   UNL     1      32.305 -11.875 -21.004  0.00  0.00    +0.003 C 
ATOM     25  C   UNL     1      32.362 -13.102 -20.322  0.00  0.00    +0.003 C 
ATOM     26  C   UNL     1      32.705 -10.579 -23.024  0.00  0.00    +0.003 C 
ATOM     27  C   UNL     1      31.805 -10.716 -20.388  0.00  0.00    +0.037 C 
ATOM     28  C   UNL     1      31.757  -9.507 -21.080  0.00  0.00    +0.139 C 
ATOM     29  C   UNL     1      32.206  -9.437 -22.395  0.00  0.00    +0.037 C 
BRANCH  28  30
ATOM     30  O   UNL     1      31.271  -8.392 -20.467  0.00  0.00    -0.471 OA
ATOM     31  C   UNL     1      31.962  -7.167 -20.707  0.00  0.00    +0.252 C 
ENDBRANCH  28  30
ENDBRANCH  19  20
ENDBRANCH  18  19
ENDBRANCH   3  18
TORSDOF 7
ENDMDL
MODEL 4
REMARK VINA RESULT:      -9.6      5.422      9.140
REMARK  Name = 25114442
REMARK  7 active torsions:
REMARK  status: ('A' for Active; 'I' for Inactive)
REMARK    1  A    between atoms: C_3  and  C_15
REMARK    2  A    between atoms: C_3  and  C_18
REMARK    3  A    between atoms: C_6  and  C_8
REMARK    4  A    between atoms: C_15  and  O_16
REMARK    5  A    between atoms: C_18  and  O_19
REMARK    6  A    between atoms: O_19  and  C_20
REMARK    7  A    between atoms: C_28  and  O_30
REMARK                            x       y       z     vdW  Elec       q    Type
REMARK                         _______ _______ _______ _____ _____    ______ ____
ROOT
ATOM      1  O   UNL     1      37.340 -20.112 -19.936  0.00  0.00    -0.270 OA
ATOM      2  N   UNL     1      35.683 -19.460 -21.395  0.00  0.00    -0.275 N 
ATOM      3  C   UNL     1      34.883 -18.011 -22.597  0.00  0.00    +0.166 C 
ATOM      4  C   UNL     1      34.387 -19.349 -22.037  0.00  0.00    +0.110 C 
ATOM      5  C   UNL     1      36.305 -18.428 -22.204  0.00  0.00    +0.110 C 
ATOM      6  C   UNL     1      36.176 -20.162 -20.326  0.00  0.00    +0.249 C 
ENDROOT
BRANCH   6   8
ATOM      7  F   UNL     1      32.560 -23.399 -17.525  0.00  0.00    -0.204 F 
ATOM      8  C   UNL     1      35.225 -21.015 -19.590  0.00  0.00    +0.054 C 
ATOM      9  C   UNL     1      35.692 -21.915 -18.632  0.00  0.00    +0.007 C 
ATOM     10  C   UNL     1      33.857 -20.919 -19.849  0.00  0.00    +0.007 C 
ATOM     11  C   UNL     1      34.792 -22.721 -17.935  0.00  0.00    +0.030 C 
ATOM     12  C   UNL     1      32.957 -21.726 -19.152  0.00  0.00    +0.030 C 
ATOM     13  C   UNL     1      33.424 -22.626 -18.194  0.00  0.00    +0.140 C 
ENDBRANCH   6   8
BRANCH   3  15
ATOM     14  O   UNL     1      33.833 -18.377 -24.813  0.00  0.00    -0.250 OA
ATOM     15  C   UNL     1      34.630 -17.763 -24.106  0.00  0.00    +0.320 C 
BRANCH  15  16
ATOM     16  O   UNL     1      35.403 -16.758 -24.603  0.00  0.00    -0.480 OA
ATOM     17  H   UNL     1      35.452 -15.939 -24.152  0.00  0.00    +0.295 HD
ENDBRANCH  15  16
ENDBRANCH   3  15
BRANCH   3  18
ATOM     18  C   UNL     1      34.394 -16.838 -21.771  0.00  0.00    +0.219 C 
BRANCH  18  19
ATOM     19  O   UNL     1      35.116 -15.671 -22.163  0.00  0.00    -0.475 OA
BRANCH  19  20
ATOM     20  C   UNL     1      34.399 -14.528 -22.337  0.00  0.00    +0.139 C 
ATOM     21  C   UNL     1      33.586 -14.053 -21.307  0.00  0.00    +0.037 C 
ATOM     22  C   UNL     1      34.475 -13.834 -23.541  0.00  0.00    +0.037 C 
ATOM     23  C   UNL     1      32.839 -12.874 -21.470  0.00  0.00    +0.003 C 
ATOM     24  C   UNL     1      32.916 -12.169 -22.694  0.00  0.00    +0.003 C 
ATOM     25  C   UNL     1      33.739 -12.662 -23.720  0.00  0.00    +0.003 C 
ATOM     26  C   UNL     1      32.017 -12.381 -20.443  0.00  0.00    +0.003 C 
ATOM     27  C   UNL     1      32.169 -10.991 -22.856  0.00  0.00    +0.037 C 
ATOM     28  C   UNL     1      31.357 -10.516 -21.827  0.00  0.00    +0.139 C 
ATOM     29  C   UNL     1      31.280 -11.209 -20.622  0.00  0.00    +0.037 C 
BRANCH  28  30
ATOM     30  O   UNL     1      30.637  -9.373 -22.001  0.00  0.00    -0.471 OA
ATOM     31  C   UNL     1      31.173  -8.400 -22.896  0.00  0.00    +0.252 C 
ENDBRANCH  28  30
ENDBRANCH  19  20
ENDBRANCH  18  19
ENDBRANCH   3  18
TORSDOF 7
ENDMDL
MODEL 5
REMARK VINA RESULT:      -9.5      1.341      1.755
REMARK  Name = 25114442
REMARK  7 active torsions:
REMARK  status: ('A' for Active; 'I' for Inactive)
REMARK    1  A    between atoms: C_3  and  C_15
REMARK    2  A    between atoms: C_3  and  C_18
REMARK    3  A    between atoms: C_6  and  C_8
REMARK    4  A    between atoms: C_15  and  O_16
REMARK    5  A    between atoms: C_18  and  O_19
REMARK    6  A    between atoms: O_19  and  C_20
REMARK    7  A    between atoms: C_28  and  O_30
REMARK                            x       y       z     vdW  Elec       q    Type
REMARK                         _______ _______ _______ _____ _____    ______ ____
ROOT
ATOM      1  O   UNL     1      34.067 -23.847 -11.621  0.00  0.00    -0.270 OA
ATOM      2  N   UNL     1      34.963 -25.014 -13.391  0.00  0.00    -0.275 N 
ATOM      3  C   UNL     1      36.585 -25.441 -14.562  0.00  0.00    +0.166 C 
ATOM      4  C   UNL     1      35.077 -25.698 -14.665  0.00  0.00    +0.110 C 
ATOM      5  C   UNL     1      36.378 -25.103 -13.081  0.00  0.00    +0.110 C 
ATOM      6  C   UNL     1      33.951 -24.376 -12.723  0.00  0.00    +0.249 C 
ENDROOT
BRANCH   6   8
ATOM      7  F   UNL     1      28.974 -24.119 -15.288  0.00  0.00    -0.204 F 
ATOM      8  C   UNL     1      32.641 -24.310 -13.399  0.00  0.00    +0.054 C 
ATOM      9  C   UNL     1      31.707 -25.328 -13.212  0.00  0.00    +0.007 C 
ATOM     10  C   UNL     1      32.336 -23.226 -14.223  0.00  0.00    +0.007 C 
ATOM     11  C   UNL     1      30.468 -25.264 -13.850  0.00  0.00    +0.030 C 
ATOM     12  C   UNL     1      31.097 -23.162 -14.861  0.00  0.00    +0.030 C 
ATOM     13  C   UNL     1      30.163 -24.181 -14.675  0.00  0.00    +0.140 C 
ENDBRANCH   6   8
BRANCH   3  15
ATOM     14  O   UNL     1      38.577 -26.895 -14.316  0.00  0.00    -0.250 OA
ATOM     15  C   UNL     1      37.509 -26.646 -14.872  0.00  0.00    +0.320 C 
BRANCH  15  16
ATOM     16  O   UNL     1      37.011 -27.441 -15.859  0.00  0.00    -0.480 OA
ATOM     17  H   UNL     1      36.674 -28.290 -15.651  0.00  0.00    +0.295 HD
ENDBRANCH  15  16
ENDBRANCH   3  15
BRANCH   3  18
ATOM     18  C   UNL     1      37.004 -24.223 -15.362  0.00  0.00    +0.219 C 
BRANCH  18  19
ATOM     19  O   UNL     1      35.905 -23.314 -15.420  0.00  0.00    -0.475 OA
BRANCH  19  20
ATOM     20  C   UNL     1      35.620 -22.763 -16.631  0.00  0.00    +0.139 C 
ATOM     21  C   UNL     1      36.549 -21.926 -17.250  0.00  0.00    +0.037 C 
ATOM     22  C   UNL     1      34.403 -23.032 -17.250  0.00  0.00    +0.037 C 
ATOM     23  C   UNL     1      36.271 -21.349 -18.500  0.00  0.00    +0.003 C 
ATOM     24  C   UNL     1      35.033 -21.623 -19.130  0.00  0.00    +0.003 C 
ATOM     25  C   UNL     1      34.110 -22.467 -18.491  0.00  0.00    +0.003 C 
ATOM     26  C   UNL     1      37.195 -20.505 -19.139  0.00  0.00    +0.003 C 
ATOM     27  C   UNL     1      34.756 -21.045 -20.379  0.00  0.00    +0.037 C 
ATOM     28  C   UNL     1      35.685 -20.209 -20.999  0.00  0.00    +0.139 C 
ATOM     29  C   UNL     1      36.902 -19.938 -20.380  0.00  0.00    +0.037 C 
BRANCH  28  30
ATOM     30  O   UNL     1      35.399 -19.655 -22.210  0.00  0.00    -0.471 OA
ATOM     31  C   UNL     1      34.021 -19.462 -22.525  0.00  0.00    +0.252 C 
ENDBRANCH  28  30
ENDBRANCH  19  20
ENDBRANCH  18  19
ENDBRANCH   3  18
TORSDOF 7
ENDMDL
