MODEL 1
REMARK VINA RESULT:     -10.8      0.000      0.000
REMARK  Name = 10113978
REMARK  4 active torsions:
REMARK  status: ('A' for Active; 'I' for Inactive)
REMARK    1  A    between atoms: N_1  and  C_16
REMARK    2  A    between atoms: N_2  and  C_24
REMARK    3  A    between atoms: C_22  and  S_29
REMARK    4  A    between atoms: S_29  and  N_32
REMARK                            x       y       z     vdW  Elec       q    Type
REMARK                         _______ _______ _______ _____ _____    ______ ____
ROOT
ATOM      1  N   UNL     1      33.683 -13.335 -23.072  0.00  0.00    -0.260 N 
ATOM      2  N   UNL     1      31.440  -9.439 -21.613  0.00  0.00    -0.247 N 
ATOM      3  N   UNL     1      32.561 -11.361 -22.354  0.00  0.00    -0.322 NA
ATOM      4  N   UNL     1      31.149 -11.428 -20.403  0.00  0.00    -0.170 NA
ATOM      5  C   UNL     1      32.819 -12.672 -22.167  0.00  0.00    +0.201 C 
ATOM      6  C   UNL     1      34.034 -12.642 -24.318  0.00  0.00    +0.120 C 
ATOM      7  C   UNL     1      31.731 -10.810 -21.449  0.00  0.00    +0.150 C 
ATOM      8  C   UNL     1      32.286 -13.419 -21.137  0.00  0.00    +0.070 C 
ATOM      9  C   UNL     1      31.449 -12.737 -20.276  0.00  0.00    +0.116 C 
ATOM     10  H   UNL     1      30.899  -9.056 -20.884  0.00  0.00    +0.165 HD
ENDROOT
BRANCH   1  16
ATOM     11  N   UNL     1      35.511 -18.593 -21.530  0.00  0.00    -0.253 N 
ATOM     12  N   UNL     1      35.372 -17.403 -20.914  0.00  0.00    -0.170 NA
ATOM     13  C   UNL     1      34.731 -17.324 -23.092  0.00  0.00    +0.033 A 
ATOM     14  C   UNL     1      34.886 -16.583 -21.863  0.00  0.00    +0.103 A 
ATOM     15  C   UNL     1      35.140 -18.604 -22.843  0.00  0.00    +0.057 A 
ATOM     16  C   UNL     1      34.059 -14.705 -23.024  0.00  0.00    +0.055 C 
ATOM     17  C   UNL     1      34.544 -15.221 -21.802  0.00  0.00    +0.036 C 
ATOM     18  C   UNL     1      34.258 -16.847 -24.308  0.00  0.00    +0.004 C 
ATOM     19  C   UNL     1      33.924 -15.482 -24.217  0.00  0.00    +0.015 C 
ATOM     20  C   UNL     1      35.217 -19.811 -23.687  0.00  0.00    +0.052 C 
ATOM     21  C   UNL     1      36.021 -19.713 -20.772  0.00  0.00    +0.153 C 
ENDBRANCH   1  16
BRANCH   2  24
ATOM     22  C   UNL     1      33.426  -7.497 -24.065  0.00  0.00    +0.119 C 
ATOM     23  C   UNL     1      32.441  -6.677 -24.614  0.00  0.00    -0.003 C 
ATOM     24  C   UNL     1      31.766  -8.538 -22.592  0.00  0.00    +0.059 C 
ATOM     25  C   UNL     1      33.093  -8.415 -23.069  0.00  0.00    +0.035 C 
ATOM     26  C   UNL     1      31.123  -6.773 -24.166  0.00  0.00    -0.002 C 
ATOM     27  C   UNL     1      30.791  -7.690 -23.169  0.00  0.00    +0.015 C 
ATOM     28  C   UNL     1      32.763  -5.684 -25.683  0.00  0.00    +0.032 C 
BRANCH  22  29
ATOM     29  S   UNL     1      35.088  -7.402 -24.604  0.00  0.00    +0.057 S 
ATOM     30  O   UNL     1      35.106  -7.550 -26.052  0.00  0.00    -0.153 OA
ATOM     31  O   UNL     1      35.706  -6.240 -23.985  0.00  0.00    -0.153 OA
BRANCH  29  32
ATOM     32  N   UNL     1      35.736  -8.814 -23.896  0.00  0.00    -0.203 NA
ATOM     33  H   UNL     1      36.239  -9.350 -24.603  0.00  0.00    +0.144 HD
ATOM     34  H   UNL     1      34.979  -9.382 -23.513  0.00  0.00    +0.144 HD
ENDBRANCH  29  32
ENDBRANCH  22  29
ENDBRANCH   2  24
TORSDOF 4
ENDMDL
MODEL 2
REMARK VINA RESULT:     -10.8      1.883      2.285
REMARK  Name = 10113978
REMARK  4 active torsions:
REMARK  status: ('A' for Active; 'I' for Inactive)
REMARK    1  A    between atoms: N_1  and  C_16
REMARK    2  A    between atoms: N_2  and  C_24
REMARK    3  A    between atoms: C_22  and  S_29
REMARK    4  A    between atoms: S_29  and  N_32
REMARK                            x       y       z     vdW  Elec       q    Type
REMARK                         _______ _______ _______ _____ _____    ______ ____
ROOT
ATOM      1  N   UNL     1      33.694 -13.105 -23.125  0.00  0.00    -0.260 N 
ATOM      2  N   UNL     1      31.490  -9.185 -21.671  0.00  0.00    -0.247 N 
ATOM      3  N   UNL     1      32.593 -11.119 -22.410  0.00  0.00    -0.322 NA
ATOM      4  N   UNL     1      31.126 -11.184 -20.498  0.00  0.00    -0.170 NA
ATOM      5  C   UNL     1      32.819 -12.437 -22.234  0.00  0.00    +0.201 C 
ATOM      6  C   UNL     1      34.093 -12.403 -24.351  0.00  0.00    +0.120 C 
ATOM      7  C   UNL     1      31.749 -10.564 -21.519  0.00  0.00    +0.150 C 
ATOM      8  C   UNL     1      32.244 -13.187 -21.229  0.00  0.00    +0.070 C 
ATOM      9  C   UNL     1      31.397 -12.501 -20.382  0.00  0.00    +0.116 C 
ATOM     10  H   UNL     1      30.936  -8.802 -20.952  0.00  0.00    +0.165 HD
ENDROOT
BRANCH   1  16
ATOM     11  N   UNL     1      35.433 -18.406 -21.624  0.00  0.00    -0.253 N 
ATOM     12  N   UNL     1      35.330 -17.214 -21.004  0.00  0.00    -0.170 NA
ATOM     13  C   UNL     1      34.656 -17.116 -23.171  0.00  0.00    +0.033 A 
ATOM     14  C   UNL     1      34.847 -16.381 -21.943  0.00  0.00    +0.103 A 
ATOM     15  C   UNL     1      35.041 -18.405 -22.931  0.00  0.00    +0.057 A 
ATOM     16  C   UNL     1      34.042 -14.483 -23.086  0.00  0.00    +0.055 C 
ATOM     17  C   UNL     1      34.534 -15.012 -21.873  0.00  0.00    +0.036 C 
ATOM     18  C   UNL     1      34.175 -16.626 -24.378  0.00  0.00    +0.004 C 
ATOM     19  C   UNL     1      33.871 -15.254 -24.279  0.00  0.00    +0.015 C 
ATOM     20  C   UNL     1      35.079 -19.611 -23.779  0.00  0.00    +0.052 C 
ATOM     21  C   UNL     1      35.931 -19.538 -20.877  0.00  0.00    +0.153 C 
ENDBRANCH   1  16
BRANCH   2  24
ATOM     22  C   UNL     1      31.843  -5.996 -23.524  0.00  0.00    +0.119 C 
ATOM     23  C   UNL     1      32.626  -6.402 -24.605  0.00  0.00    -0.003 C 
ATOM     24  C   UNL     1      31.861  -8.277 -22.628  0.00  0.00    +0.059 C 
ATOM     25  C   UNL     1      31.467  -6.920 -22.550  0.00  0.00    +0.035 C 
ATOM     26  C   UNL     1      33.032  -7.733 -24.711  0.00  0.00    -0.002 C 
ATOM     27  C   UNL     1      32.654  -8.657 -23.737  0.00  0.00    +0.015 C 
ATOM     28  C   UNL     1      33.048  -5.439 -25.665  0.00  0.00    +0.032 C 
BRANCH  22  29
ATOM     29  S   UNL     1      31.318  -4.335 -23.360  0.00  0.00    +0.057 S 
ATOM     30  O   UNL     1      32.500  -3.486 -23.321  0.00  0.00    -0.153 OA
ATOM     31  O   UNL     1      30.275  -4.084 -24.342  0.00  0.00    -0.153 OA
BRANCH  29  32
ATOM     32  N   UNL     1      30.613  -4.374 -21.805  0.00  0.00    -0.203 NA
ATOM     33  H   UNL     1      30.562  -3.426 -21.431  0.00  0.00    +0.144 HD
ATOM     34  H   UNL     1      31.183  -4.953 -21.187  0.00  0.00    +0.144 HD
ENDBRANCH  29  32
ENDBRANCH  22  29
ENDBRANCH   2  24
TORSDOF 4
ENDMDL
MODEL 3
REMARK VINA RESULT:     -10.7      5.417     10.649
REMARK  Name = 10113978
REMARK  4 active torsions:
REMARK  status: ('A' for Active; 'I' for Inactive)
REMARK    1  A    between atoms: N_1  and  C_16
REMARK    2  A    between atoms: N_2  and  C_24
REMARK    3  A    between atoms: C_22  and  S_29
REMARK    4  A    between atoms: S_29  and  N_32
REMARK                            x       y       z     vdW  Elec       q    Type
REMARK                         _______ _______ _______ _____ _____    ______ ____
ROOT
ATOM      1  N   UNL     1      33.990 -14.566 -21.954  0.00  0.00    -0.260 N 
ATOM      2  N   UNL     1      35.208 -18.975 -23.145  0.00  0.00    -0.247 N 
ATOM      3  N   UNL     1      34.610 -16.791 -22.533  0.00  0.00    -0.322 NA
ATOM      4  N   UNL     1      34.290 -17.575 -24.790  0.00  0.00    -0.170 NA
ATOM      5  C   UNL     1      34.097 -15.602 -22.914  0.00  0.00    +0.201 C 
ATOM      6  C   UNL     1      34.179 -14.916 -20.541  0.00  0.00    +0.120 C 
ATOM      7  C   UNL     1      34.676 -17.718 -23.507  0.00  0.00    +0.150 C 
ATOM      8  C   UNL     1      33.666 -15.327 -24.195  0.00  0.00    +0.070 C 
ATOM      9  C   UNL     1      33.787 -16.362 -25.101  0.00  0.00    +0.116 C 
ATOM     10  H   UNL     1      35.317 -19.594 -23.903  0.00  0.00    +0.165 HD
ENDROOT
BRANCH   1  16
ATOM     11  N   UNL     1      33.143  -9.074 -23.535  0.00  0.00    -0.253 N 
ATOM     12  N   UNL     1      34.134  -9.975 -23.677  0.00  0.00    -0.170 NA
ATOM     13  C   UNL     1      32.361 -10.821 -22.537  0.00  0.00    +0.033 A 
ATOM     14  C   UNL     1      33.680 -11.082 -23.063  0.00  0.00    +0.103 A 
ATOM     15  C   UNL     1      32.050  -9.530 -22.856  0.00  0.00    +0.057 A 
ATOM     16  C   UNL     1      33.477 -13.260 -22.183  0.00  0.00    +0.055 C 
ATOM     17  C   UNL     1      34.281 -12.342 -22.892  0.00  0.00    +0.036 C 
ATOM     18  C   UNL     1      31.546 -11.701 -21.836  0.00  0.00    +0.004 C 
ATOM     19  C   UNL     1      32.173 -12.953 -21.680  0.00  0.00    +0.015 C 
ATOM     20  C   UNL     1      30.862  -8.694 -22.599  0.00  0.00    +0.052 C 
ATOM     21  C   UNL     1      33.318  -7.754 -24.095  0.00  0.00    +0.153 C 
ENDBRANCH   1  16
BRANCH   2  24
ATOM     22  C   UNL     1      35.217 -20.993 -20.039  0.00  0.00    +0.119 C 
ATOM     23  C   UNL     1      36.413 -20.577 -19.455  0.00  0.00    -0.003 C 
ATOM     24  C   UNL     1      35.601 -19.497 -21.941  0.00  0.00    +0.059 C 
ATOM     25  C   UNL     1      34.817 -20.462 -21.265  0.00  0.00    +0.035 C 
ATOM     26  C   UNL     1      37.210 -19.628 -20.097  0.00  0.00    -0.002 C 
ATOM     27  C   UNL     1      36.809 -19.096 -21.322  0.00  0.00    +0.015 C 
ATOM     28  C   UNL     1      36.872 -21.127 -18.144  0.00  0.00    +0.032 C 
BRANCH  22  29
ATOM     29  S   UNL     1      34.195 -22.182 -19.261  0.00  0.00    +0.057 S 
ATOM     30  O   UNL     1      34.497 -23.486 -19.834  0.00  0.00    -0.153 OA
ATOM     31  O   UNL     1      34.275 -21.985 -17.822  0.00  0.00    -0.153 OA
BRANCH  29  32
ATOM     32  N   UNL     1      32.654 -21.684 -19.801  0.00  0.00    -0.203 NA
ATOM     33  H   UNL     1      32.760 -21.038 -20.584  0.00  0.00    +0.144 HD
ATOM     34  H   UNL     1      32.161 -21.217 -19.040  0.00  0.00    +0.144 HD
ENDBRANCH  29  32
ENDBRANCH  22  29
ENDBRANCH   2  24
TORSDOF 4
ENDMDL
MODEL 4
REMARK VINA RESULT:     -10.0      1.188      1.716
REMARK  Name = 10113978
REMARK  4 active torsions:
REMARK  status: ('A' for Active; 'I' for Inactive)
REMARK    1  A    between atoms: N_1  and  C_16
REMARK    2  A    between atoms: N_2  and  C_24
REMARK    3  A    between atoms: C_22  and  S_29
REMARK    4  A    between atoms: S_29  and  N_32
REMARK                            x       y       z     vdW  Elec       q    Type
REMARK                         _______ _______ _______ _____ _____    ______ ____
ROOT
ATOM      1  N   UNL     1      33.566 -12.510 -23.043  0.00  0.00    -0.260 N 
ATOM      2  N   UNL     1      31.304  -8.593 -21.673  0.00  0.00    -0.247 N 
ATOM      3  N   UNL     1      32.436 -10.525 -22.369  0.00  0.00    -0.322 NA
ATOM      4  N   UNL     1      30.917 -10.587 -20.499  0.00  0.00    -0.170 NA
ATOM      5  C   UNL     1      32.663 -11.841 -22.180  0.00  0.00    +0.201 C 
ATOM      6  C   UNL     1      33.996 -11.813 -24.261  0.00  0.00    +0.120 C 
ATOM      7  C   UNL     1      31.565  -9.969 -21.506  0.00  0.00    +0.150 C 
ATOM      8  C   UNL     1      32.064 -12.589 -21.187  0.00  0.00    +0.070 C 
ATOM      9  C   UNL     1      31.191 -11.902 -20.368  0.00  0.00    +0.116 C 
ATOM     10  H   UNL     1      30.728  -8.208 -20.972  0.00  0.00    +0.165 HD
ENDROOT
BRANCH   1  16
ATOM     11  N   UNL     1      34.396 -18.131 -24.086  0.00  0.00    -0.253 N 
ATOM     12  N   UNL     1      33.833 -17.102 -24.748  0.00  0.00    -0.170 NA
ATOM     13  C   UNL     1      34.658 -16.475 -22.727  0.00  0.00    +0.033 A 
ATOM     14  C   UNL     1      33.978 -16.047 -23.926  0.00  0.00    +0.103 A 
ATOM     15  C   UNL     1      34.909 -17.811 -22.863  0.00  0.00    +0.057 A 
ATOM     16  C   UNL     1      33.919 -13.886 -22.986  0.00  0.00    +0.055 C 
ATOM     17  C   UNL     1      33.584 -14.707 -24.085  0.00  0.00    +0.036 C 
ATOM     18  C   UNL     1      35.001 -15.694 -21.630  0.00  0.00    +0.004 C 
ATOM     19  C   UNL     1      34.595 -14.359 -21.816  0.00  0.00    +0.015 C 
ATOM     20  C   UNL     1      35.566 -18.799 -21.987  0.00  0.00    +0.052 C 
ATOM     21  C   UNL     1      34.407 -19.435 -24.709  0.00  0.00    +0.153 C 
ENDBRANCH   1  16
BRANCH   2  24
ATOM     22  C   UNL     1      33.355  -6.872 -24.234  0.00  0.00    +0.119 C 
ATOM     23  C   UNL     1      32.508  -5.821 -24.590  0.00  0.00    -0.003 C 
ATOM     24  C   UNL     1      31.697  -7.688 -22.624  0.00  0.00    +0.059 C 
ATOM     25  C   UNL     1      32.954  -7.793 -23.267  0.00  0.00    +0.035 C 
ATOM     26  C   UNL     1      31.262  -5.691 -23.976  0.00  0.00    -0.002 C 
ATOM     27  C   UNL     1      30.863  -6.611 -23.007  0.00  0.00    +0.015 C 
ATOM     28  C   UNL     1      32.906  -4.819 -25.623  0.00  0.00    +0.032 C 
BRANCH  22  29
ATOM     29  S   UNL     1      34.924  -7.065 -24.985  0.00  0.00    +0.057 S 
ATOM     30  O   UNL     1      34.721  -7.316 -26.404  0.00  0.00    -0.153 OA
ATOM     31  O   UNL     1      35.776  -5.967 -24.555  0.00  0.00    -0.153 OA
BRANCH  29  32
ATOM     32  N   UNL     1      35.460  -8.504 -24.239  0.00  0.00    -0.203 NA
ATOM     33  H   UNL     1      35.618  -9.218 -24.951  0.00  0.00    +0.144 HD
ATOM     34  H   UNL     1      34.753  -8.831 -23.580  0.00  0.00    +0.144 HD
ENDBRANCH  29  32
ENDBRANCH  22  29
ENDBRANCH   2  24
TORSDOF 4
ENDMDL
MODEL 5
REMARK VINA RESULT:      -9.8      8.714     13.972
REMARK  Name = 10113978
REMARK  4 active torsions:
REMARK  status: ('A' for Active; 'I' for Inactive)
REMARK    1  A    between atoms: N_1  and  C_16
REMARK    2  A    between atoms: N_2  and  C_24
REMARK    3  A    between atoms: C_22  and  S_29
REMARK    4  A    between atoms: S_29  and  N_32
REMARK                            x       y       z     vdW  Elec       q    Type
REMARK                         _______ _______ _______ _____ _____    ______ ____
ROOT
ATOM      1  N   UNL     1      35.518 -20.579 -19.862  0.00  0.00    -0.260 N 
ATOM      2  N   UNL     1      34.362 -23.689 -16.495  0.00  0.00    -0.247 N 
ATOM      3  N   UNL     1      34.957 -22.148 -18.160  0.00  0.00    -0.322 NA
ATOM      4  N   UNL     1      32.650 -22.740 -17.789  0.00  0.00    -0.170 NA
ATOM      5  C   UNL     1      34.548 -21.323 -19.146  0.00  0.00    +0.201 C 
ATOM      6  C   UNL     1      36.881 -20.530 -19.320  0.00  0.00    +0.120 C 
ATOM      7  C   UNL     1      33.971 -22.816 -17.532  0.00  0.00    +0.150 C 
ATOM      8  C   UNL     1      33.227 -21.155 -19.506  0.00  0.00    +0.070 C 
ATOM      9  C   UNL     1      32.312 -21.897 -18.786  0.00  0.00    +0.116 C 
ATOM     10  H   UNL     1      33.622 -24.220 -16.120  0.00  0.00    +0.165 HD
ENDROOT
BRANCH   1  16
ATOM     11  N   UNL     1      34.733 -15.916 -23.180  0.00  0.00    -0.253 N 
ATOM     12  N   UNL     1      35.047 -16.138 -21.888  0.00  0.00    -0.170 NA
ATOM     13  C   UNL     1      34.754 -18.070 -23.045  0.00  0.00    +0.033 A 
ATOM     14  C   UNL     1      35.068 -17.477 -21.767  0.00  0.00    +0.103 A 
ATOM     15  C   UNL     1      34.545 -17.045 -23.923  0.00  0.00    +0.057 A 
ATOM     16  C   UNL     1      35.263 -19.670 -20.924  0.00  0.00    +0.055 C 
ATOM     17  C   UNL     1      35.337 -18.287 -20.650  0.00  0.00    +0.036 C 
ATOM     18  C   UNL     1      34.673 -19.424 -23.346  0.00  0.00    +0.004 C 
ATOM     19  C   UNL     1      34.946 -20.210 -22.210  0.00  0.00    +0.015 C 
ATOM     20  C   UNL     1      34.196 -17.011 -25.356  0.00  0.00    +0.052 C 
ATOM     21  C   UNL     1      34.628 -14.552 -23.646  0.00  0.00    +0.153 C 
ENDBRANCH   1  16
BRANCH   2  24
ATOM     22  C   UNL     1      37.073 -25.424 -14.659  0.00  0.00    +0.119 C 
ATOM     23  C   UNL     1      38.081 -24.460 -14.701  0.00  0.00    -0.003 C 
ATOM     24  C   UNL     1      35.575 -23.941 -15.910  0.00  0.00    +0.059 C 
ATOM     25  C   UNL     1      35.839 -25.168 -15.256  0.00  0.00    +0.035 C 
ATOM     26  C   UNL     1      37.853 -23.239 -15.338  0.00  0.00    -0.002 C 
ATOM     27  C   UNL     1      36.618 -22.984 -15.934  0.00  0.00    +0.015 C 
ATOM     28  C   UNL     1      39.415 -24.701 -14.073  0.00  0.00    +0.032 C 
BRANCH  22  29
ATOM     29  S   UNL     1      37.326 -26.964 -13.869  0.00  0.00    +0.057 S 
ATOM     30  O   UNL     1      38.618 -27.484 -14.289  0.00  0.00    -0.153 OA
ATOM     31  O   UNL     1      37.031 -26.808 -12.452  0.00  0.00    -0.153 OA
BRANCH  29  32
ATOM     32  N   UNL     1      36.092 -27.900 -14.588  0.00  0.00    -0.203 NA
ATOM     33  H   UNL     1      35.388 -28.132 -13.887  0.00  0.00    +0.144 HD
ATOM     34  H   UNL     1      36.492 -28.760 -14.965  0.00  0.00    +0.144 HD
ENDBRANCH  29  32
ENDBRANCH  22  29
ENDBRANCH   2  24
TORSDOF 4
ENDMDL
MODEL 6
REMARK VINA RESULT:      -9.3      9.221     14.509
REMARK  Name = 10113978
REMARK  4 active torsions:
REMARK  status: ('A' for Active; 'I' for Inactive)
REMARK    1  A    between atoms: N_1  and  C_16
REMARK    2  A    between atoms: N_2  and  C_24
REMARK    3  A    between atoms: C_22  and  S_29
REMARK    4  A    between atoms: S_29  and  N_32
REMARK                            x       y       z     vdW  Elec       q    Type
REMARK                         _______ _______ _______ _____ _____    ______ ____
ROOT
ATOM      1  N   UNL     1      35.716 -21.675 -18.755  0.00  0.00    -0.260 N 
ATOM      2  N   UNL     1      34.167 -24.599 -15.379  0.00  0.00    -0.247 N 
ATOM      3  N   UNL     1      34.956 -23.152 -17.048  0.00  0.00    -0.322 NA
ATOM      4  N   UNL     1      32.592 -23.481 -16.713  0.00  0.00    -0.170 NA
ATOM      5  C   UNL     1      34.658 -22.299 -18.049  0.00  0.00    +0.201 C 
ATOM      6  C   UNL     1      37.067 -21.771 -18.190  0.00  0.00    +0.120 C 
ATOM      7  C   UNL     1      33.892 -23.700 -16.431  0.00  0.00    +0.150 C 
ATOM      8  C   UNL     1      33.370 -21.990 -18.435  0.00  0.00    +0.070 C 
ATOM      9  C   UNL     1      32.366 -22.617 -17.724  0.00  0.00    +0.116 C 
ATOM     10  H   UNL     1      33.366 -25.040 -15.012  0.00  0.00    +0.165 HD
ENDROOT
BRANCH   1  16
ATOM     11  N   UNL     1      34.101 -18.785 -23.489  0.00  0.00    -0.253 N 
ATOM     12  N   UNL     1      33.686 -19.897 -22.851  0.00  0.00    -0.170 NA
ATOM     13  C   UNL     1      35.453 -18.919 -21.812  0.00  0.00    +0.033 A 
ATOM     14  C   UNL     1      34.511 -20.012 -21.795  0.00  0.00    +0.103 A 
ATOM     15  C   UNL     1      35.163 -18.156 -22.907  0.00  0.00    +0.057 A 
ATOM     16  C   UNL     1      35.581 -20.755 -19.830  0.00  0.00    +0.055 C 
ATOM     17  C   UNL     1      34.557 -20.980 -20.775  0.00  0.00    +0.036 C 
ATOM     18  C   UNL     1      36.471 -18.671 -20.899  0.00  0.00    +0.004 C 
ATOM     19  C   UNL     1      36.493 -19.654 -19.890  0.00  0.00    +0.015 C 
ATOM     20  C   UNL     1      35.761 -16.924 -23.454  0.00  0.00    +0.052 C 
ATOM     21  C   UNL     1      33.409 -18.373 -24.689  0.00  0.00    +0.153 C 
ENDBRANCH   1  16
BRANCH   2  24
ATOM     22  C   UNL     1      37.039 -24.649 -13.039  0.00  0.00    +0.119 C 
ATOM     23  C   UNL     1      37.746 -25.755 -13.511  0.00  0.00    -0.003 C 
ATOM     24  C   UNL     1      35.334 -24.976 -14.770  0.00  0.00    +0.059 C 
ATOM     25  C   UNL     1      35.849 -24.266 -13.659  0.00  0.00    +0.035 C 
ATOM     26  C   UNL     1      37.265 -26.476 -14.605  0.00  0.00    -0.002 C 
ATOM     27  C   UNL     1      36.077 -26.092 -15.224  0.00  0.00    +0.015 C 
ATOM     28  C   UNL     1      39.022 -26.193 -12.870  0.00  0.00    +0.032 C 
BRANCH  22  29
ATOM     29  S   UNL     1      37.613 -23.722 -11.670  0.00  0.00    +0.057 S 
ATOM     30  O   UNL     1      39.067 -23.779 -11.661  0.00  0.00    -0.153 OA
ATOM     31  O   UNL     1      36.936 -22.435 -11.671  0.00  0.00    -0.153 OA
BRANCH  29  32
ATOM     32  N   UNL     1      37.015 -24.659 -10.375  0.00  0.00    -0.203 NA
ATOM     33  H   UNL     1      36.024 -24.853 -10.524  0.00  0.00    +0.144 HD
ATOM     34  H   UNL     1      37.133 -24.146  -9.500  0.00  0.00    +0.144 HD
ENDBRANCH  29  32
ENDBRANCH  22  29
ENDBRANCH   2  24
TORSDOF 4
ENDMDL
MODEL 7
REMARK VINA RESULT:      -9.2      3.399      9.417
REMARK  Name = 10113978
REMARK  4 active torsions:
REMARK  status: ('A' for Active; 'I' for Inactive)
REMARK    1  A    between atoms: N_1  and  C_16
REMARK    2  A    between atoms: N_2  and  C_24
REMARK    3  A    between atoms: C_22  and  S_29
REMARK    4  A    between atoms: S_29  and  N_32
REMARK                            x       y       z     vdW  Elec       q    Type
REMARK                         _______ _______ _______ _____ _____    ______ ____
ROOT
ATOM      1  N   UNL     1      33.237  -9.374 -23.286  0.00  0.00    -0.260 N 
ATOM      2  N   UNL     1      32.276 -13.133 -20.586  0.00  0.00    -0.247 N 
ATOM      3  N   UNL     1      32.767 -11.280 -21.938  0.00  0.00    -0.322 NA
ATOM      4  N   UNL     1      31.290 -11.074 -20.045  0.00  0.00    -0.170 NA
ATOM      5  C   UNL     1      32.577  -9.967 -22.181  0.00  0.00    +0.201 C 
ATOM      6  C   UNL     1      34.302 -10.142 -23.942  0.00  0.00    +0.120 C 
ATOM      7  C   UNL     1      32.103 -11.762 -20.871  0.00  0.00    +0.150 C 
ATOM      8  C   UNL     1      31.772  -9.153 -21.413  0.00  0.00    +0.070 C 
ATOM      9  C   UNL     1      31.146  -9.767 -20.346  0.00  0.00    +0.116 C 
ATOM     10  H   UNL     1      31.710 -13.462 -19.851  0.00  0.00    +0.165 HD
ENDROOT
BRANCH   1  16
ATOM     11  N   UNL     1      31.536  -3.991 -24.511  0.00  0.00    -0.253 N 
ATOM     12  N   UNL     1      30.947  -5.099 -24.021  0.00  0.00    -0.170 NA
ATOM     13  C   UNL     1      33.148  -5.427 -24.479  0.00  0.00    +0.033 A 
ATOM     14  C   UNL     1      31.927  -6.020 -23.987  0.00  0.00    +0.103 A 
ATOM     15  C   UNL     1      32.862  -4.132 -24.806  0.00  0.00    +0.057 A 
ATOM     16  C   UNL     1      33.150  -8.012 -23.684  0.00  0.00    +0.055 C 
ATOM     17  C   UNL     1      31.903  -7.362 -23.567  0.00  0.00    +0.036 C 
ATOM     18  C   UNL     1      34.388  -6.039 -24.606  0.00  0.00    +0.004 C 
ATOM     19  C   UNL     1      34.334  -7.380 -24.179  0.00  0.00    +0.015 C 
ATOM     20  C   UNL     1      33.681  -3.033 -25.351  0.00  0.00    +0.052 C 
ATOM     21  C   UNL     1      30.741  -2.796 -24.676  0.00  0.00    +0.153 C 
ENDBRANCH   1  16
BRANCH   2  24
ATOM     22  C   UNL     1      33.878 -15.349 -23.086  0.00  0.00    +0.119 C 
ATOM     23  C   UNL     1      34.748 -16.079 -22.275  0.00  0.00    -0.003 C 
ATOM     24  C   UNL     1      33.083 -14.094 -21.137  0.00  0.00    +0.059 C 
ATOM     25  C   UNL     1      33.059 -14.370 -22.525  0.00  0.00    +0.035 C 
ATOM     26  C   UNL     1      34.796 -15.831 -20.903  0.00  0.00    -0.002 C 
ATOM     27  C   UNL     1      33.975 -14.853 -20.343  0.00  0.00    +0.015 C 
ATOM     28  C   UNL     1      35.640 -17.133 -22.844  0.00  0.00    +0.032 C 
BRANCH  22  29
ATOM     29  S   UNL     1      33.793 -15.634 -24.811  0.00  0.00    +0.057 S 
ATOM     30  O   UNL     1      35.109 -15.378 -25.379  0.00  0.00    -0.153 OA
ATOM     31  O   UNL     1      33.143 -16.916 -25.032  0.00  0.00    -0.153 OA
BRANCH  29  32
ATOM     32  N   UNL     1      32.731 -14.387 -25.290  0.00  0.00    -0.203 NA
ATOM     33  H   UNL     1      33.075 -13.493 -24.939  0.00  0.00    +0.144 HD
ATOM     34  H   UNL     1      31.801 -14.566 -24.910  0.00  0.00    +0.144 HD
ENDBRANCH  29  32
ENDBRANCH  22  29
ENDBRANCH   2  24
TORSDOF 4
ENDMDL
MODEL 8
REMARK VINA RESULT:      -8.7      4.166      9.870
REMARK  Name = 10113978
REMARK  4 active torsions:
REMARK  status: ('A' for Active; 'I' for Inactive)
REMARK    1  A    between atoms: N_1  and  C_16
REMARK    2  A    between atoms: N_2  and  C_24
REMARK    3  A    between atoms: C_22  and  S_29
REMARK    4  A    between atoms: S_29  and  N_32
REMARK                            x       y       z     vdW  Elec       q    Type
REMARK                         _______ _______ _______ _____ _____    ______ ____
ROOT
ATOM      1  N   UNL     1      32.463  -9.006 -22.436  0.00  0.00    -0.260 N 
ATOM      2  N   UNL     1      32.539 -13.339 -20.548  0.00  0.00    -0.247 N 
ATOM      3  N   UNL     1      32.510 -11.197 -21.504  0.00  0.00    -0.322 NA
ATOM      4  N   UNL     1      31.803 -11.546 -19.226  0.00  0.00    -0.170 NA
ATOM      5  C   UNL     1      32.242  -9.884 -21.347  0.00  0.00    +0.201 C 
ATOM      6  C   UNL     1      33.227  -9.514 -23.582  0.00  0.00    +0.120 C 
ATOM      7  C   UNL     1      32.271 -11.959 -20.420  0.00  0.00    +0.150 C 
ATOM      8  C   UNL     1      31.760  -9.334 -20.177  0.00  0.00    +0.070 C 
ATOM      9  C   UNL     1      31.557 -10.222 -19.139  0.00  0.00    +0.116 C 
ATOM     10  H   UNL     1      32.272 -13.871 -19.763  0.00  0.00    +0.165 HD
ENDROOT
BRANCH   1  16
ATOM     11  N   UNL     1      30.974  -3.577 -23.730  0.00  0.00    -0.253 N 
ATOM     12  N   UNL     1      30.875  -4.774 -24.340  0.00  0.00    -0.170 NA
ATOM     13  C   UNL     1      31.872  -4.926 -22.305  0.00  0.00    +0.033 A 
ATOM     14  C   UNL     1      31.428  -5.644 -23.476  0.00  0.00    +0.103 A 
ATOM     15  C   UNL     1      31.567  -3.609 -22.502  0.00  0.00    +0.057 A 
ATOM     16  C   UNL     1      32.235  -7.603 -22.443  0.00  0.00    +0.055 C 
ATOM     17  C   UNL     1      31.605  -7.035 -23.572  0.00  0.00    +0.036 C 
ATOM     18  C   UNL     1      32.494  -5.454 -21.181  0.00  0.00    +0.004 C 
ATOM     19  C   UNL     1      32.658  -6.848 -21.304  0.00  0.00    +0.015 C 
ATOM     20  C   UNL     1      31.767  -2.403 -21.677  0.00  0.00    +0.052 C 
ATOM     21  C   UNL     1      30.462  -2.407 -24.407  0.00  0.00    +0.153 C 
ENDBRANCH   1  16
BRANCH   2  24
ATOM     22  C   UNL     1      34.419 -16.003 -22.307  0.00  0.00    +0.119 C 
ATOM     23  C   UNL     1      34.257 -15.609 -23.635  0.00  0.00    -0.003 C 
ATOM     24  C   UNL     1      33.099 -14.080 -21.555  0.00  0.00    +0.059 C 
ATOM     25  C   UNL     1      33.847 -15.250 -21.282  0.00  0.00    +0.035 C 
ATOM     26  C   UNL     1      33.526 -14.460 -23.939  0.00  0.00    -0.002 C 
ATOM     27  C   UNL     1      32.955 -13.707 -22.913  0.00  0.00    +0.015 C 
ATOM     28  C   UNL     1      34.855 -16.394 -24.757  0.00  0.00    +0.032 C 
BRANCH  22  29
ATOM     29  S   UNL     1      35.330 -17.439 -21.892  0.00  0.00    +0.057 S 
ATOM     30  O   UNL     1      36.634 -17.350 -22.532  0.00  0.00    -0.153 OA
ATOM     31  O   UNL     1      35.239 -17.641 -20.454  0.00  0.00    -0.153 OA
BRANCH  29  32
ATOM     32  N   UNL     1      34.408 -18.642 -22.678  0.00  0.00    -0.203 NA
ATOM     33  H   UNL     1      33.419 -18.393 -22.638  0.00  0.00    +0.144 HD
ATOM     34  H   UNL     1      34.552 -19.539 -22.213  0.00  0.00    +0.144 HD
ENDBRANCH  29  32
ENDBRANCH  22  29
ENDBRANCH   2  24
TORSDOF 4
ENDMDL
MODEL 9
REMARK VINA RESULT:      -8.6      3.592      9.585
REMARK  Name = 10113978
REMARK  4 active torsions:
REMARK  status: ('A' for Active; 'I' for Inactive)
REMARK    1  A    between atoms: N_1  and  C_16
REMARK    2  A    between atoms: N_2  and  C_24
REMARK    3  A    between atoms: C_22  and  S_29
REMARK    4  A    between atoms: S_29  and  N_32
REMARK                            x       y       z     vdW  Elec       q    Type
REMARK                         _______ _______ _______ _____ _____    ______ ____
ROOT
ATOM      1  N   UNL     1      34.061  -8.691 -24.315  0.00  0.00    -0.260 N 
ATOM      2  N   UNL     1      31.678 -12.075 -22.032  0.00  0.00    -0.247 N 
ATOM      3  N   UNL     1      32.877 -10.410 -23.169  0.00  0.00    -0.322 NA
ATOM      4  N   UNL     1      30.737  -9.930 -22.169  0.00  0.00    -0.170 NA
ATOM      5  C   UNL     1      32.930  -9.127 -23.581  0.00  0.00    +0.201 C 
ATOM      6  C   UNL     1      35.235  -9.571 -24.354  0.00  0.00    +0.120 C 
ATOM      7  C   UNL     1      31.769 -10.740 -22.478  0.00  0.00    +0.150 C 
ATOM      8  C   UNL     1      31.941  -8.198 -23.329  0.00  0.00    +0.070 C 
ATOM      9  C   UNL     1      30.857  -8.661 -22.611  0.00  0.00    +0.116 C 
ATOM     10  H   UNL     1      30.817 -12.295 -21.606  0.00  0.00    +0.165 HD
ENDROOT
BRANCH   1  16
ATOM     11  N   UNL     1      35.858  -4.035 -27.224  0.00  0.00    -0.253 N 
ATOM     12  N   UNL     1      36.138  -5.353 -27.248  0.00  0.00    -0.170 NA
ATOM     13  C   UNL     1      34.579  -4.833 -25.680  0.00  0.00    +0.033 A 
ATOM     14  C   UNL     1      35.354  -5.885 -26.293  0.00  0.00    +0.103 A 
ATOM     15  C   UNL     1      34.926  -3.666 -26.298  0.00  0.00    +0.057 A 
ATOM     16  C   UNL     1      34.278  -7.381 -24.823  0.00  0.00    +0.055 C 
ATOM     17  C   UNL     1      35.216  -7.217 -25.865  0.00  0.00    +0.036 C 
ATOM     18  C   UNL     1      33.650  -4.962 -24.655  0.00  0.00    +0.004 C 
ATOM     19  C   UNL     1      33.532  -6.305 -24.247  0.00  0.00    +0.015 C 
ATOM     20  C   UNL     1      34.485  -2.270 -26.119  0.00  0.00    +0.052 C 
ATOM     21  C   UNL     1      36.545  -3.161 -28.147  0.00  0.00    +0.153 C 
ENDBRANCH   1  16
BRANCH   2  24
ATOM     22  C   UNL     1      33.679 -14.915 -23.320  0.00  0.00    +0.119 C 
ATOM     23  C   UNL     1      34.375 -15.291 -22.171  0.00  0.00    -0.003 C 
ATOM     24  C   UNL     1      32.558 -13.124 -22.077  0.00  0.00    +0.059 C 
ATOM     25  C   UNL     1      32.784 -13.846 -23.274  0.00  0.00    +0.035 C 
ATOM     26  C   UNL     1      34.175 -14.600 -20.976  0.00  0.00    -0.002 C 
ATOM     27  C   UNL     1      33.279 -13.532 -20.930  0.00  0.00    +0.015 C 
ATOM     28  C   UNL     1      35.342 -16.430 -22.187  0.00  0.00    +0.032 C 
BRANCH  22  29
ATOM     29  S   UNL     1      33.906 -15.760 -24.835  0.00  0.00    +0.057 S 
ATOM     30  O   UNL     1      35.334 -15.827 -25.109  0.00  0.00    -0.153 OA
ATOM     31  O   UNL     1      33.115 -16.980 -24.804  0.00  0.00    -0.153 OA
BRANCH  29  32
ATOM     32  N   UNL     1      33.185 -14.663 -25.926  0.00  0.00    -0.203 NA
ATOM     33  H   UNL     1      32.783 -13.881 -25.407  0.00  0.00    +0.144 HD
ATOM     34  H   UNL     1      32.448 -15.137 -26.450  0.00  0.00    +0.144 HD
ENDBRANCH  29  32
ENDBRANCH  22  29
ENDBRANCH   2  24
TORSDOF 4
ENDMDL
