MODEL 1
REMARK VINA RESULT:     -11.9      0.000      0.000
REMARK  Name = 24941248
REMARK  7 active torsions:
REMARK  status: ('A' for Active; 'I' for Inactive)
REMARK    1  A    between atoms: N_2  and  C_24
REMARK    2  A    between atoms: C_6  and  C_14
REMARK    3  A    between atoms: C_13  and  C_19
REMARK    4  A    between atoms: C_19  and  C_20
REMARK    5  A    between atoms: C_20  and  C_21
REMARK    6  A    between atoms: C_21  and  O_22
REMARK    7  A    between atoms: C_24  and  C_26
REMARK                            x       y       z     vdW  Elec       q    Type
REMARK                         _______ _______ _______ _____ _____    ______ ____
ROOT
ATOM      1  O   UNL     1      33.444 -15.922 -25.795  0.00  0.00    -0.352 OA
ATOM      2  N   UNL     1      35.610 -18.049 -21.294  0.00  0.00    -0.316 N 
ATOM      3  N   UNL     1      33.113 -14.630 -25.404  0.00  0.00    -0.077 NA
ATOM      4  N   UNL     1      34.999 -18.355 -23.575  0.00  0.00    -0.226 NA
ATOM      5  C   UNL     1      34.057 -15.739 -23.647  0.00  0.00    +0.062 A 
ATOM      6  C   UNL     1      33.486 -14.542 -24.123  0.00  0.00    +0.123 A 
ATOM      7  C   UNL     1      35.052 -17.536 -22.494  0.00  0.00    +0.129 C 
ATOM      8  C   UNL     1      34.602 -16.219 -22.455  0.00  0.00    +0.039 C 
ATOM      9  C   UNL     1      34.005 -16.579 -24.746  0.00  0.00    +0.196 A 
ATOM     10  C   UNL     1      34.469 -17.881 -24.729  0.00  0.00    +0.140 C 
ATOM     11  H   UNL     1      35.655 -17.463 -20.503  0.00  0.00    +0.148 HD
ENDROOT
BRANCH   6  14
ATOM     12 CL   UNL     1      34.422  -9.493 -23.666  0.00  0.00    -0.082 Cl
ATOM     13  C   UNL     1      32.306 -12.131 -21.530  0.00  0.00    -0.021 C 
ATOM     14  C   UNL     1      33.287 -13.319 -23.390  0.00  0.00    +0.021 C 
ATOM     15  C   UNL     1      32.500 -13.316 -22.239  0.00  0.00    -0.003 C 
ATOM     16  C   UNL     1      32.901 -10.949 -21.971  0.00  0.00    +0.007 C 
ATOM     17  C   UNL     1      33.882 -12.137 -23.832  0.00  0.00    +0.013 C 
ATOM     18  C   UNL     1      33.688 -10.952 -23.122  0.00  0.00    +0.057 C 
BRANCH  13  19
ATOM     19  C   UNL     1      31.464 -12.128 -20.299  0.00  0.00    +0.029 C 
BRANCH  19  20
ATOM     20  C   UNL     1      31.062 -10.709 -19.874  0.00  0.00    +0.036 C 
BRANCH  20  21
ATOM     21  C   UNL     1      31.691 -10.308 -18.548  0.00  0.00    +0.138 C 
BRANCH  21  22
ATOM     22  O   UNL     1      32.720  -9.359 -18.796  0.00  0.00    -0.382 OA
ATOM     23  H   UNL     1      32.529  -8.885 -19.620  0.00  0.00    +0.210 HD
ENDBRANCH  21  22
ENDBRANCH  20  21
ENDBRANCH  19  20
ENDBRANCH  13  19
ENDBRANCH   6  14
BRANCH   2  24
ATOM     24  C   UNL     1      36.109 -19.380 -21.187  0.00  0.00    +0.093 C 
ATOM     25  C   UNL     1      37.492 -19.354 -20.540  0.00  0.00    +0.026 C 
BRANCH  24  26
ATOM     26  C   UNL     1      35.123 -20.250 -20.438  0.00  0.00    -0.005 C 
ATOM     27  C   UNL     1      33.753 -20.058 -20.611  0.00  0.00    -0.003 C 
ATOM     28  C   UNL     1      35.585 -21.245 -19.576  0.00  0.00    -0.003 C 
ATOM     29  C   UNL     1      32.843 -20.860 -19.920  0.00  0.00    -0.000 C 
ATOM     30  C   UNL     1      34.676 -22.046 -18.886  0.00  0.00    -0.000 C 
ATOM     31  C   UNL     1      33.305 -21.855 -19.059  0.00  0.00    -0.000 C 
ENDBRANCH  24  26
ENDBRANCH   2  24
TORSDOF 7
ENDMDL
MODEL 2
REMARK VINA RESULT:     -11.9      1.780      2.652
REMARK  Name = 24941248
REMARK  7 active torsions:
REMARK  status: ('A' for Active; 'I' for Inactive)
REMARK    1  A    between atoms: N_2  and  C_24
REMARK    2  A    between atoms: C_6  and  C_14
REMARK    3  A    between atoms: C_13  and  C_19
REMARK    4  A    between atoms: C_19  and  C_20
REMARK    5  A    between atoms: C_20  and  C_21
REMARK    6  A    between atoms: C_21  and  O_22
REMARK    7  A    between atoms: C_24  and  C_26
REMARK                            x       y       z     vdW  Elec       q    Type
REMARK                         _______ _______ _______ _____ _____    ______ ____
ROOT
ATOM      1  O   UNL     1      33.525 -15.356 -25.839  0.00  0.00    -0.352 OA
ATOM      2  N   UNL     1      35.452 -17.810 -21.396  0.00  0.00    -0.316 N 
ATOM      3  N   UNL     1      33.092 -14.127 -25.357  0.00  0.00    -0.077 NA
ATOM      4  N   UNL     1      35.040 -17.918 -23.739  0.00  0.00    -0.226 NA
ATOM      5  C   UNL     1      33.957 -15.357 -23.640  0.00  0.00    +0.062 A 
ATOM      6  C   UNL     1      33.357 -14.149 -24.047  0.00  0.00    +0.123 A 
ATOM      7  C   UNL     1      34.960 -17.208 -22.584  0.00  0.00    +0.129 C 
ATOM      8  C   UNL     1      34.434 -15.926 -22.458  0.00  0.00    +0.039 C 
ATOM      9  C   UNL     1      34.040 -16.086 -24.814  0.00  0.00    +0.196 A 
ATOM     10  C   UNL     1      34.575 -17.358 -24.882  0.00  0.00    +0.140 C 
ATOM     11  H   UNL     1      35.401 -17.304 -20.552  0.00  0.00    +0.148 HD
ENDROOT
BRANCH   6  14
ATOM     12 CL   UNL     1      31.869 -12.346 -19.451  0.00  0.00    -0.082 Cl
ATOM     13  C   UNL     1      32.782 -10.629 -22.947  0.00  0.00    -0.021 C 
ATOM     14  C   UNL     1      33.032 -13.016 -23.220  0.00  0.00    +0.021 C 
ATOM     15  C   UNL     1      33.096 -11.727 -23.748  0.00  0.00    -0.003 C 
ATOM     16  C   UNL     1      32.402 -10.821 -21.618  0.00  0.00    +0.007 C 
ATOM     17  C   UNL     1      32.652 -13.208 -21.891  0.00  0.00    +0.013 C 
ATOM     18  C   UNL     1      32.338 -12.110 -21.090  0.00  0.00    +0.057 C 
BRANCH  13  19
ATOM     19  C   UNL     1      32.852  -9.250 -23.510  0.00  0.00    +0.029 C 
BRANCH  19  20
ATOM     20  C   UNL     1      33.993  -8.429 -22.897  0.00  0.00    +0.036 C 
BRANCH  20  21
ATOM     21  C   UNL     1      35.213  -8.374 -23.806  0.00  0.00    +0.138 C 
BRANCH  21  22
ATOM     22  O   UNL     1      35.905  -9.612 -23.721  0.00  0.00    -0.382 OA
ATOM     23  H   UNL     1      36.851  -9.464 -23.873  0.00  0.00    +0.210 HD
ENDBRANCH  21  22
ENDBRANCH  20  21
ENDBRANCH  19  20
ENDBRANCH  13  19
ENDBRANCH   6  14
BRANCH   2  24
ATOM     24  C   UNL     1      36.017 -19.118 -21.374  0.00  0.00    +0.093 C 
ATOM     25  C   UNL     1      37.432 -19.052 -20.804  0.00  0.00    +0.026 C 
BRANCH  24  26
ATOM     26  C   UNL     1      35.116 -20.065 -20.611  0.00  0.00    -0.005 C 
ATOM     27  C   UNL     1      35.670 -21.056 -19.802  0.00  0.00    -0.003 C 
ATOM     28  C   UNL     1      33.729 -19.945 -20.716  0.00  0.00    -0.003 C 
ATOM     29  C   UNL     1      34.839 -21.929 -19.099  0.00  0.00    -0.000 C 
ATOM     30  C   UNL     1      32.899 -20.817 -20.014  0.00  0.00    -0.000 C 
ATOM     31  C   UNL     1      33.453 -21.809 -19.204  0.00  0.00    -0.000 C 
ENDBRANCH  24  26
ENDBRANCH   2  24
TORSDOF 7
ENDMDL
MODEL 3
REMARK VINA RESULT:     -11.0      7.659     12.763
REMARK  Name = 24941248
REMARK  7 active torsions:
REMARK  status: ('A' for Active; 'I' for Inactive)
REMARK    1  A    between atoms: N_2  and  C_24
REMARK    2  A    between atoms: C_6  and  C_14
REMARK    3  A    between atoms: C_13  and  C_19
REMARK    4  A    between atoms: C_19  and  C_20
REMARK    5  A    between atoms: C_20  and  C_21
REMARK    6  A    between atoms: C_21  and  O_22
REMARK    7  A    between atoms: C_24  and  C_26
REMARK                            x       y       z     vdW  Elec       q    Type
REMARK                         _______ _______ _______ _____ _____    ______ ____
ROOT
ATOM      1  O   UNL     1      31.385 -24.266 -14.668  0.00  0.00    -0.352 OA
ATOM      2  N   UNL     1      34.525 -22.203 -18.588  0.00  0.00    -0.316 N 
ATOM      3  N   UNL     1      32.308 -24.715 -13.731  0.00  0.00    -0.077 NA
ATOM      4  N   UNL     1      32.324 -22.659 -17.799  0.00  0.00    -0.226 NA
ATOM      5  C   UNL     1      33.411 -23.791 -15.502  0.00  0.00    +0.062 A 
ATOM      6  C   UNL     1      33.506 -24.423 -14.246  0.00  0.00    +0.123 A 
ATOM      7  C   UNL     1      33.664 -22.730 -17.590  0.00  0.00    +0.129 C 
ATOM      8  C   UNL     1      34.279 -23.280 -16.468  0.00  0.00    +0.039 C 
ATOM      9  C   UNL     1      32.046 -23.717 -15.721  0.00  0.00    +0.196 A 
ATOM     10  C   UNL     1      31.489 -23.158 -16.856  0.00  0.00    +0.140 C 
ATOM     11  H   UNL     1      35.498 -22.248 -18.446  0.00  0.00    +0.148 HD
ENDROOT
BRANCH   6  14
ATOM     12 CL   UNL     1      36.165 -24.277  -9.832  0.00  0.00    -0.082 Cl
ATOM     13  C   UNL     1      36.905 -25.757 -13.474  0.00  0.00    -0.021 C 
ATOM     14  C   UNL     1      34.708 -24.755 -13.527  0.00  0.00    +0.021 C 
ATOM     15  C   UNL     1      35.741 -25.435 -14.171  0.00  0.00    -0.003 C 
ATOM     16  C   UNL     1      37.036 -25.399 -12.132  0.00  0.00    +0.007 C 
ATOM     17  C   UNL     1      34.839 -24.397 -12.185  0.00  0.00    +0.013 C 
ATOM     18  C   UNL     1      36.003 -24.719 -11.487  0.00  0.00    +0.057 C 
BRANCH  13  19
ATOM     19  C   UNL     1      38.010 -26.485 -14.162  0.00  0.00    +0.029 C 
BRANCH  19  20
ATOM     20  C   UNL     1      39.383 -26.161 -13.560  0.00  0.00    +0.036 C 
BRANCH  20  21
ATOM     21  C   UNL     1      40.286 -25.436 -14.549  0.00  0.00    +0.138 C 
BRANCH  21  22
ATOM     22  O   UNL     1      40.360 -26.198 -15.746  0.00  0.00    -0.382 OA
ATOM     23  H   UNL     1      39.587 -26.006 -16.300  0.00  0.00    +0.210 HD
ENDBRANCH  21  22
ENDBRANCH  20  21
ENDBRANCH  19  20
ENDBRANCH  13  19
ENDBRANCH   6  14
BRANCH   2  24
ATOM     24  C   UNL     1      34.036 -21.612 -19.790  0.00  0.00    +0.093 C 
ATOM     25  C   UNL     1      32.681 -20.961 -19.522  0.00  0.00    +0.026 C 
BRANCH  24  26
ATOM     26  C   UNL     1      35.056 -20.644 -20.349  0.00  0.00    -0.005 C 
ATOM     27  C   UNL     1      36.341 -20.597 -19.810  0.00  0.00    -0.003 C 
ATOM     28  C   UNL     1      34.711 -19.800 -21.405  0.00  0.00    -0.003 C 
ATOM     29  C   UNL     1      37.281 -19.704 -20.326  0.00  0.00    -0.000 C 
ATOM     30  C   UNL     1      35.651 -18.908 -21.920  0.00  0.00    -0.000 C 
ATOM     31  C   UNL     1      36.936 -18.861 -21.382  0.00  0.00    -0.000 C 
ENDBRANCH  24  26
ENDBRANCH   2  24
TORSDOF 7
ENDMDL
MODEL 4
REMARK VINA RESULT:      -9.7      7.548     12.371
REMARK  Name = 24941248
REMARK  7 active torsions:
REMARK  status: ('A' for Active; 'I' for Inactive)
REMARK    1  A    between atoms: N_2  and  C_24
REMARK    2  A    between atoms: C_6  and  C_14
REMARK    3  A    between atoms: C_13  and  C_19
REMARK    4  A    between atoms: C_19  and  C_20
REMARK    5  A    between atoms: C_20  and  C_21
REMARK    6  A    between atoms: C_21  and  O_22
REMARK    7  A    between atoms: C_24  and  C_26
REMARK                            x       y       z     vdW  Elec       q    Type
REMARK                         _______ _______ _______ _____ _____    ______ ____
ROOT
ATOM      1  O   UNL     1      31.273 -24.009 -14.858  0.00  0.00    -0.352 OA
ATOM      2  N   UNL     1      34.451 -22.160 -18.853  0.00  0.00    -0.316 N 
ATOM      3  N   UNL     1      32.178 -24.601 -13.985  0.00  0.00    -0.077 NA
ATOM      4  N   UNL     1      32.251 -22.392 -17.972  0.00  0.00    -0.226 NA
ATOM      5  C   UNL     1      33.300 -23.737 -15.775  0.00  0.00    +0.062 A 
ATOM      6  C   UNL     1      33.378 -24.428 -14.550  0.00  0.00    +0.123 A 
ATOM      7  C   UNL     1      33.581 -22.625 -17.832  0.00  0.00    +0.129 C 
ATOM      8  C   UNL     1      34.177 -23.289 -16.764  0.00  0.00    +0.039 C 
ATOM      9  C   UNL     1      31.945 -23.496 -15.923  0.00  0.00    +0.196 A 
ATOM     10  C   UNL     1      31.406 -22.829 -17.007  0.00  0.00    +0.140 C 
ATOM     11  H   UNL     1      35.418 -22.323 -18.762  0.00  0.00    +0.148 HD
ENDROOT
BRANCH   6  14
ATOM     12 CL   UNL     1      37.728 -27.176 -14.867  0.00  0.00    -0.082 Cl
ATOM     13  C   UNL     1      35.960 -25.101 -11.941  0.00  0.00    -0.021 C 
ATOM     14  C   UNL     1      34.564 -24.927 -13.904  0.00  0.00    +0.021 C 
ATOM     15  C   UNL     1      34.811 -24.619 -12.566  0.00  0.00    -0.003 C 
ATOM     16  C   UNL     1      36.862 -25.892 -12.653  0.00  0.00    +0.007 C 
ATOM     17  C   UNL     1      35.466 -25.718 -14.616  0.00  0.00    +0.013 C 
ATOM     18  C   UNL     1      36.615 -26.200 -13.990  0.00  0.00    +0.057 C 
BRANCH  13  19
ATOM     19  C   UNL     1      36.226 -24.770 -10.511  0.00  0.00    +0.029 C 
BRANCH  19  20
ATOM     20  C   UNL     1      36.682 -23.317 -10.325  0.00  0.00    +0.036 C 
BRANCH  20  21
ATOM     21  C   UNL     1      37.603 -22.857 -11.446  0.00  0.00    +0.138 C 
BRANCH  21  22
ATOM     22  O   UNL     1      38.919 -23.323 -11.179  0.00  0.00    -0.382 OA
ATOM     23  H   UNL     1      39.379 -23.487 -12.017  0.00  0.00    +0.210 HD
ENDBRANCH  21  22
ENDBRANCH  20  21
ENDBRANCH  19  20
ENDBRANCH  13  19
ENDBRANCH   6  14
BRANCH   2  24
ATOM     24  C   UNL     1      33.981 -21.466 -20.006  0.00  0.00    +0.093 C 
ATOM     25  C   UNL     1      32.667 -20.761 -19.675  0.00  0.00    +0.026 C 
BRANCH  24  26
ATOM     26  C   UNL     1      35.046 -20.521 -20.518  0.00  0.00    -0.005 C 
ATOM     27  C   UNL     1      36.307 -20.505 -19.926  0.00  0.00    -0.003 C 
ATOM     28  C   UNL     1      34.765 -19.665 -21.584  0.00  0.00    -0.003 C 
ATOM     29  C   UNL     1      37.290 -19.633 -20.397  0.00  0.00    -0.000 C 
ATOM     30  C   UNL     1      35.746 -18.794 -22.056  0.00  0.00    -0.000 C 
ATOM     31  C   UNL     1      37.009 -18.778 -21.463  0.00  0.00    -0.000 C 
ENDBRANCH  24  26
ENDBRANCH   2  24
TORSDOF 7
ENDMDL
MODEL 5
REMARK VINA RESULT:      -9.3      7.149     11.301
REMARK  Name = 24941248
REMARK  7 active torsions:
REMARK  status: ('A' for Active; 'I' for Inactive)
REMARK    1  A    between atoms: N_2  and  C_24
REMARK    2  A    between atoms: C_6  and  C_14
REMARK    3  A    between atoms: C_13  and  C_19
REMARK    4  A    between atoms: C_19  and  C_20
REMARK    5  A    between atoms: C_20  and  C_21
REMARK    6  A    between atoms: C_21  and  O_22
REMARK    7  A    between atoms: C_24  and  C_26
REMARK                            x       y       z     vdW  Elec       q    Type
REMARK                         _______ _______ _______ _____ _____    ______ ____
ROOT
ATOM      1  O   UNL     1      34.757 -24.274 -13.851  0.00  0.00    -0.352 OA
ATOM      2  N   UNL     1      34.906 -21.847 -18.705  0.00  0.00    -0.316 N 
ATOM      3  N   UNL     1      33.408 -24.563 -13.686  0.00  0.00    -0.077 NA
ATOM      4  N   UNL     1      36.108 -22.609 -16.796  0.00  0.00    -0.226 NA
ATOM      5  C   UNL     1      33.723 -23.521 -15.691  0.00  0.00    +0.062 A 
ATOM      6  C   UNL     1      32.811 -24.106 -14.791  0.00  0.00    +0.123 A 
ATOM      7  C   UNL     1      34.916 -22.476 -17.433  0.00  0.00    +0.129 C 
ATOM      8  C   UNL     1      33.686 -22.907 -16.944  0.00  0.00    +0.039 C 
ATOM      9  C   UNL     1      34.940 -23.653 -15.046  0.00  0.00    +0.196 A 
ATOM     10  C   UNL     1      36.135 -23.207 -15.580  0.00  0.00    +0.140 C 
ATOM     11  H   UNL     1      34.047 -21.746 -19.177  0.00  0.00    +0.148 HD
ENDROOT
BRANCH   6  14
ATOM     12 CL   UNL     1      28.499 -26.740 -13.765  0.00  0.00    -0.082 Cl
ATOM     13  C   UNL     1      29.304 -23.446 -15.886  0.00  0.00    -0.021 C 
ATOM     14  C   UNL     1      31.387 -24.242 -14.958  0.00  0.00    +0.021 C 
ATOM     15  C   UNL     1      30.684 -23.315 -15.725  0.00  0.00    -0.003 C 
ATOM     16  C   UNL     1      28.629 -24.505 -15.279  0.00  0.00    +0.007 C 
ATOM     17  C   UNL     1      30.712 -25.302 -14.351  0.00  0.00    +0.013 C 
ATOM     18  C   UNL     1      29.333 -25.433 -14.512  0.00  0.00    +0.057 C 
BRANCH  13  19
ATOM     19  C   UNL     1      28.551 -22.453 -16.705  0.00  0.00    +0.029 C 
BRANCH  19  20
ATOM     20  C   UNL     1      27.059 -22.417 -16.348  0.00  0.00    +0.036 C 
BRANCH  20  21
ATOM     21  C   UNL     1      26.200 -21.967 -17.521  0.00  0.00    +0.138 C 
BRANCH  21  22
ATOM     22  O   UNL     1      26.029 -20.558 -17.452  0.00  0.00    -0.382 OA
ATOM     23  H   UNL     1      25.799 -20.217 -18.330  0.00  0.00    +0.210 HD
ENDBRANCH  21  22
ENDBRANCH  20  21
ENDBRANCH  19  20
ENDBRANCH  13  19
ENDBRANCH   6  14
BRANCH   2  24
ATOM     24  C   UNL     1      36.090 -21.354 -19.328  0.00  0.00    +0.093 C 
ATOM     25  C   UNL     1      36.901 -22.525 -19.877  0.00  0.00    +0.026 C 
BRANCH  24  26
ATOM     26  C   UNL     1      35.738 -20.332 -20.387  0.00  0.00    -0.005 C 
ATOM     27  C   UNL     1      34.477 -20.350 -20.981  0.00  0.00    -0.003 C 
ATOM     28  C   UNL     1      36.675 -19.371 -20.768  0.00  0.00    -0.003 C 
ATOM     29  C   UNL     1      34.152 -19.407 -21.958  0.00  0.00    -0.000 C 
ATOM     30  C   UNL     1      36.350 -18.429 -21.744  0.00  0.00    -0.000 C 
ATOM     31  C   UNL     1      35.089 -18.447 -22.338  0.00  0.00    -0.000 C 
ENDBRANCH  24  26
ENDBRANCH   2  24
TORSDOF 7
ENDMDL
MODEL 6
REMARK VINA RESULT:      -9.1      4.081     10.162
REMARK  Name = 24941248
REMARK  7 active torsions:
REMARK  status: ('A' for Active; 'I' for Inactive)
REMARK    1  A    between atoms: N_2  and  C_24
REMARK    2  A    between atoms: C_6  and  C_14
REMARK    3  A    between atoms: C_13  and  C_19
REMARK    4  A    between atoms: C_19  and  C_20
REMARK    5  A    between atoms: C_20  and  C_21
REMARK    6  A    between atoms: C_21  and  O_22
REMARK    7  A    between atoms: C_24  and  C_26
REMARK                            x       y       z     vdW  Elec       q    Type
REMARK                         _______ _______ _______ _____ _____    ______ ____
ROOT
ATOM      1  O   UNL     1      31.827 -12.896 -19.574  0.00  0.00    -0.352 OA
ATOM      2  N   UNL     1      32.391  -8.482 -22.684  0.00  0.00    -0.316 N 
ATOM      3  N   UNL     1      32.318 -13.915 -20.382  0.00  0.00    -0.077 NA
ATOM      4  N   UNL     1      31.691  -9.405 -20.604  0.00  0.00    -0.226 NA
ATOM      5  C   UNL     1      32.455 -11.927 -21.495  0.00  0.00    +0.062 A 
ATOM      6  C   UNL     1      32.686 -13.317 -21.520  0.00  0.00    +0.123 A 
ATOM      7  C   UNL     1      32.225  -9.608 -21.836  0.00  0.00    +0.129 C 
ATOM      8  C   UNL     1      32.630 -10.837 -22.349  0.00  0.00    +0.039 C 
ATOM      9  C   UNL     1      31.910 -11.714 -20.240  0.00  0.00    +0.196 A 
ATOM     10  C   UNL     1      31.526 -10.469 -19.781  0.00  0.00    +0.140 C 
ATOM     11  H   UNL     1      32.779  -8.617 -23.580  0.00  0.00    +0.148 HD
ENDROOT
BRANCH   6  14
ATOM     12 CL   UNL     1      33.346 -13.942 -26.594  0.00  0.00    -0.082 Cl
ATOM     13  C   UNL     1      34.536 -15.981 -23.365  0.00  0.00    -0.021 C 
ATOM     14  C   UNL     1      33.247 -14.088 -22.598  0.00  0.00    +0.021 C 
ATOM     15  C   UNL     1      33.991 -15.234 -22.321  0.00  0.00    -0.003 C 
ATOM     16  C   UNL     1      34.336 -15.581 -24.687  0.00  0.00    +0.007 C 
ATOM     17  C   UNL     1      33.047 -13.688 -23.919  0.00  0.00    +0.013 C 
ATOM     18  C   UNL     1      33.592 -14.435 -24.964  0.00  0.00    +0.057 C 
BRANCH  13  19
ATOM     19  C   UNL     1      35.333 -17.206 -23.070  0.00  0.00    +0.029 C 
BRANCH  19  20
ATOM     20  C   UNL     1      35.378 -17.523 -21.569  0.00  0.00    +0.036 C 
BRANCH  20  21
ATOM     21  C   UNL     1      35.893 -18.928 -21.295  0.00  0.00    +0.138 C 
BRANCH  21  22
ATOM     22  O   UNL     1      36.927 -18.857 -20.322  0.00  0.00    -0.382 OA
ATOM     23  H   UNL     1      37.630 -18.271 -20.641  0.00  0.00    +0.210 HD
ENDBRANCH  21  22
ENDBRANCH  20  21
ENDBRANCH  19  20
ENDBRANCH  13  19
ENDBRANCH   6  14
BRANCH   2  24
ATOM     24  C   UNL     1      32.020  -7.163 -22.293  0.00  0.00    +0.093 C 
ATOM     25  C   UNL     1      32.616  -6.852 -20.922  0.00  0.00    +0.026 C 
BRANCH  24  26
ATOM     26  C   UNL     1      32.430  -6.167 -23.355  0.00  0.00    -0.005 C 
ATOM     27  C   UNL     1      31.518  -5.213 -23.806  0.00  0.00    -0.003 C 
ATOM     28  C   UNL     1      33.721  -6.202 -23.884  0.00  0.00    -0.003 C 
ATOM     29  C   UNL     1      31.896  -4.295 -24.787  0.00  0.00    -0.000 C 
ATOM     30  C   UNL     1      34.098  -5.284 -24.863  0.00  0.00    -0.000 C 
ATOM     31  C   UNL     1      33.187  -4.330 -25.314  0.00  0.00    -0.000 C 
ENDBRANCH  24  26
ENDBRANCH   2  24
TORSDOF 7
ENDMDL
MODEL 7
REMARK VINA RESULT:      -9.0      4.251     10.405
REMARK  Name = 24941248
REMARK  7 active torsions:
REMARK  status: ('A' for Active; 'I' for Inactive)
REMARK    1  A    between atoms: N_2  and  C_24
REMARK    2  A    between atoms: C_6  and  C_14
REMARK    3  A    between atoms: C_13  and  C_19
REMARK    4  A    between atoms: C_19  and  C_20
REMARK    5  A    between atoms: C_20  and  C_21
REMARK    6  A    between atoms: C_21  and  O_22
REMARK    7  A    between atoms: C_24  and  C_26
REMARK                            x       y       z     vdW  Elec       q    Type
REMARK                         _______ _______ _______ _____ _____    ______ ____
ROOT
ATOM      1  O   UNL     1      31.497 -11.519 -19.868  0.00  0.00    -0.352 OA
ATOM      2  N   UNL     1      32.932  -8.202 -23.920  0.00  0.00    -0.316 N 
ATOM      3  N   UNL     1      31.987 -12.751 -20.283  0.00  0.00    -0.077 NA
ATOM      4  N   UNL     1      31.863  -8.457 -21.807  0.00  0.00    -0.226 NA
ATOM      5  C   UNL     1      32.478 -11.169 -21.853  0.00  0.00    +0.062 A 
ATOM      6  C   UNL     1      32.566 -12.522 -21.465  0.00  0.00    +0.123 A 
ATOM      7  C   UNL     1      32.536  -9.031 -22.837  0.00  0.00    +0.129 C 
ATOM      8  C   UNL     1      32.879 -10.377 -22.929  0.00  0.00    +0.039 C 
ATOM      9  C   UNL     1      31.791 -10.580 -20.805  0.00  0.00    +0.196 A 
ATOM     10  C   UNL     1      31.478  -9.234 -20.765  0.00  0.00    +0.140 C 
ATOM     11  H   UNL     1      33.422  -8.607 -24.672  0.00  0.00    +0.148 HD
ENDROOT
BRANCH   6  14
ATOM     12 CL   UNL     1      33.535 -14.777 -25.999  0.00  0.00    -0.082 Cl
ATOM     13  C   UNL     1      34.506 -15.621 -22.212  0.00  0.00    -0.021 C 
ATOM     14  C   UNL     1      33.187 -13.598 -22.192  0.00  0.00    +0.021 C 
ATOM     15  C   UNL     1      33.903 -14.579 -21.508  0.00  0.00    -0.003 C 
ATOM     16  C   UNL     1      34.392 -15.682 -23.601  0.00  0.00    +0.007 C 
ATOM     17  C   UNL     1      33.073 -13.659 -23.581  0.00  0.00    +0.013 C 
ATOM     18  C   UNL     1      33.676 -14.701 -24.285  0.00  0.00    +0.057 C 
BRANCH  13  19
ATOM     19  C   UNL     1      35.273 -16.671 -21.480  0.00  0.00    +0.029 C 
BRANCH  19  20
ATOM     20  C   UNL     1      35.280 -18.011 -22.226  0.00  0.00    +0.036 C 
BRANCH  20  21
ATOM     21  C   UNL     1      35.713 -19.163 -21.330  0.00  0.00    +0.138 C 
BRANCH  21  22
ATOM     22  O   UNL     1      36.650 -18.678 -20.378  0.00  0.00    -0.382 OA
ATOM     23  H   UNL     1      37.213 -18.006 -20.793  0.00  0.00    +0.210 HD
ENDBRANCH  21  22
ENDBRANCH  20  21
ENDBRANCH  19  20
ENDBRANCH  13  19
ENDBRANCH   6  14
BRANCH   2  24
ATOM     24  C   UNL     1      32.648  -6.806 -23.962  0.00  0.00    +0.093 C 
ATOM     25  C   UNL     1      33.299  -6.117 -22.765  0.00  0.00    +0.026 C 
BRANCH  24  26
ATOM     26  C   UNL     1      33.084  -6.223 -25.289  0.00  0.00    -0.005 C 
ATOM     27  C   UNL     1      32.665  -4.947 -25.662  0.00  0.00    -0.003 C 
ATOM     28  C   UNL     1      33.907  -6.963 -26.138  0.00  0.00    -0.003 C 
ATOM     29  C   UNL     1      33.067  -4.410 -26.886  0.00  0.00    -0.000 C 
ATOM     30  C   UNL     1      34.309  -6.427 -27.361  0.00  0.00    -0.000 C 
ATOM     31  C   UNL     1      33.890  -5.150 -27.734  0.00  0.00    -0.000 C 
ENDBRANCH  24  26
ENDBRANCH   2  24
TORSDOF 7
ENDMDL
MODEL 8
REMARK VINA RESULT:      -9.0      5.853     10.324
REMARK  Name = 24941248
REMARK  7 active torsions:
REMARK  status: ('A' for Active; 'I' for Inactive)
REMARK    1  A    between atoms: N_2  and  C_24
REMARK    2  A    between atoms: C_6  and  C_14
REMARK    3  A    between atoms: C_13  and  C_19
REMARK    4  A    between atoms: C_19  and  C_20
REMARK    5  A    between atoms: C_20  and  C_21
REMARK    6  A    between atoms: C_21  and  O_22
REMARK    7  A    between atoms: C_24  and  C_26
REMARK                            x       y       z     vdW  Elec       q    Type
REMARK                         _______ _______ _______ _____ _____    ______ ____
ROOT
ATOM      1  O   UNL     1      37.094 -22.555 -17.072  0.00  0.00    -0.352 OA
ATOM      2  N   UNL     1      34.331 -20.282 -21.156  0.00  0.00    -0.316 N 
ATOM      3  N   UNL     1      36.090 -23.082 -16.269  0.00  0.00    -0.077 NA
ATOM      4  N   UNL     1      36.447 -20.755 -20.173  0.00  0.00    -0.226 NA
ATOM      5  C   UNL     1      35.155 -22.058 -18.082  0.00  0.00    +0.062 A 
ATOM      6  C   UNL     1      34.945 -22.774 -16.887  0.00  0.00    +0.123 A 
ATOM      7  C   UNL     1      35.095 -20.862 -20.110  0.00  0.00    +0.129 C 
ATOM      8  C   UNL     1      34.380 -21.497 -19.098  0.00  0.00    +0.039 C 
ATOM      9  C   UNL     1      36.533 -21.946 -18.150  0.00  0.00    +0.196 A 
ATOM     10  C   UNL     1      37.192 -21.303 -19.182  0.00  0.00    +0.140 C 
ATOM     11  H   UNL     1      33.349 -20.354 -21.122  0.00  0.00    +0.148 HD
ENDROOT
BRANCH   6  14
ATOM     12 CL   UNL     1      32.392 -25.332 -13.209  0.00  0.00    -0.082 Cl
ATOM     13  C   UNL     1      31.268 -23.154 -16.370  0.00  0.00    -0.021 C 
ATOM     14  C   UNL     1      33.683 -23.174 -16.321  0.00  0.00    +0.021 C 
ATOM     15  C   UNL     1      32.491 -22.767 -16.919  0.00  0.00    -0.003 C 
ATOM     16  C   UNL     1      31.238 -23.947 -15.223  0.00  0.00    +0.007 C 
ATOM     17  C   UNL     1      33.653 -23.967 -15.173  0.00  0.00    +0.013 C 
ATOM     18  C   UNL     1      32.430 -24.353 -14.624  0.00  0.00    +0.057 C 
BRANCH  13  19
ATOM     19  C   UNL     1      29.993 -22.718 -17.009  0.00  0.00    +0.029 C 
BRANCH  19  20
ATOM     20  C   UNL     1      28.803 -22.792 -16.042  0.00  0.00    +0.036 C 
BRANCH  20  21
ATOM     21  C   UNL     1      27.486 -23.014 -16.770  0.00  0.00    +0.138 C 
BRANCH  21  22
ATOM     22  O   UNL     1      27.469 -24.333 -17.300  0.00  0.00    -0.382 OA
ATOM     23  H   UNL     1      26.607 -24.740 -17.125  0.00  0.00    +0.210 HD
ENDBRANCH  21  22
ENDBRANCH  20  21
ENDBRANCH  19  20
ENDBRANCH  13  19
ENDBRANCH   6  14
BRANCH   2  24
ATOM     24  C   UNL     1      34.927 -19.599 -22.256  0.00  0.00    +0.093 C 
ATOM     25  C   UNL     1      34.261 -20.046 -23.555  0.00  0.00    +0.026 C 
BRANCH  24  26
ATOM     26  C   UNL     1      34.860 -18.103 -22.041  0.00  0.00    -0.005 C 
ATOM     27  C   UNL     1      34.815 -17.585 -20.748  0.00  0.00    -0.003 C 
ATOM     28  C   UNL     1      34.842 -17.241 -23.138  0.00  0.00    -0.003 C 
ATOM     29  C   UNL     1      34.751 -16.205 -20.550  0.00  0.00    -0.000 C 
ATOM     30  C   UNL     1      34.779 -15.862 -22.941  0.00  0.00    -0.000 C 
ATOM     31  C   UNL     1      34.735 -15.344 -21.646  0.00  0.00    -0.000 C 
ENDBRANCH  24  26
ENDBRANCH   2  24
TORSDOF 7
ENDMDL
