MODEL 1
REMARK VINA RESULT:     -11.8      0.000      0.000
REMARK  Name = 44129624
REMARK  6 active torsions:
REMARK  status: ('A' for Active; 'I' for Inactive)
REMARK    1  A    between atoms: C_1  and  O_20
REMARK    2  A    between atoms: C_4  and  C_8
REMARK    3  A    between atoms: C_8  and  C_9
REMARK    4  A    between atoms: C_10  and  C_16
REMARK    5  A    between atoms: O_20  and  C_21
REMARK    6  A    between atoms: C_21  and  C_23
REMARK                            x       y       z     vdW  Elec       q    Type
REMARK                         _______ _______ _______ _____ _____    ______ ____
ROOT
ATOM      1  C   UNL     1      33.557 -22.250 -18.850  0.00  0.00    +0.138 C 
ATOM      2  C   UNL     1      34.939 -22.356 -18.700  0.00  0.00    +0.037 C 
ATOM      3  C   UNL     1      33.017 -21.246 -19.654  0.00  0.00    +0.037 C 
ATOM      4  C   UNL     1      35.243 -20.454 -20.158  0.00  0.00    +0.039 C 
ATOM      5  C   UNL     1      35.782 -21.458 -19.354  0.00  0.00    +0.006 C 
ATOM      6  C   UNL     1      33.860 -20.349 -20.308  0.00  0.00    +0.006 C 
ENDROOT
BRANCH   4   8
ATOM      7  O   UNL     1      37.352 -19.673 -20.798  0.00  0.00    -0.287 OA
ATOM      8  C   UNL     1      36.122 -19.520 -20.842  0.00  0.00    +0.196 C 
BRANCH   8   9
ATOM      9  C   UNL     1      35.604 -18.352 -21.617  0.00  0.00    +0.039 C 
ATOM     10  C   UNL     1      34.636 -16.172 -23.064  0.00  0.00    +0.001 C 
ATOM     11  C   UNL     1      35.404 -18.462 -22.993  0.00  0.00    +0.003 C 
ATOM     12  C   UNL     1      35.322 -17.151 -20.965  0.00  0.00    +0.003 C 
ATOM     13  C   UNL     1      34.919 -17.372 -23.716  0.00  0.00    +0.000 C 
ATOM     14  C   UNL     1      34.838 -16.062 -21.688  0.00  0.00    +0.000 C 
BRANCH  10  16
ATOM     15  S   UNL     1      33.508 -12.619 -24.351  0.00  0.00    -0.086 S 
ATOM     16  C   UNL     1      34.138 -15.051 -23.810  0.00  0.00    +0.007 C 
ATOM     17  C   UNL     1      33.587 -15.069 -25.124  0.00  0.00    +0.007 C 
ATOM     18  C   UNL     1      34.154 -13.782 -23.272  0.00  0.00    +0.035 C 
ATOM     19  C   UNL     1      33.204 -13.813 -25.541  0.00  0.00    +0.035 C 
ENDBRANCH  10  16
ENDBRANCH   8   9
ENDBRANCH   4   8
BRANCH   1  20
ATOM     20  O   UNL     1      32.726 -23.133 -18.206  0.00  0.00    -0.478 OA
BRANCH  20  21
ATOM     21  C   UNL     1      33.019 -23.415 -16.848  0.00  0.00    +0.184 C 
BRANCH  21  23
ATOM     22  N   UNL     1      30.589 -22.948 -16.676  0.00  0.00    +0.388 N 
ATOM     23  C   UNL     1      31.718 -23.706 -16.116  0.00  0.00    -0.017 C 
ATOM     24  C   UNL     1      31.743 -23.265 -14.661  0.00  0.00    -0.020 C 
ATOM     25  C   UNL     1      30.276 -23.069 -14.309  0.00  0.00    -0.025 C 
ATOM     26  C   UNL     1      29.547 -23.020 -15.645  0.00  0.00    -0.082 C 
ATOM     27  H   UNL     1      30.265 -23.374 -17.544  0.00  0.00    -0.084 HD
ATOM     28  H   UNL     1      30.843 -21.986 -16.901  0.00  0.00    -0.084 HD
ENDBRANCH  21  23
ENDBRANCH  20  21
ENDBRANCH   1  20
TORSDOF 6
ENDMDL
MODEL 2
REMARK VINA RESULT:     -11.8      1.162      1.450
REMARK  Name = 44129624
REMARK  6 active torsions:
REMARK  status: ('A' for Active; 'I' for Inactive)
REMARK    1  A    between atoms: C_1  and  O_20
REMARK    2  A    between atoms: C_4  and  C_8
REMARK    3  A    between atoms: C_8  and  C_9
REMARK    4  A    between atoms: C_10  and  C_16
REMARK    5  A    between atoms: O_20  and  C_21
REMARK    6  A    between atoms: C_21  and  C_23
REMARK                            x       y       z     vdW  Elec       q    Type
REMARK                         _______ _______ _______ _____ _____    ______ ____
ROOT
ATOM      1  C   UNL     1      33.794 -21.857 -19.331  0.00  0.00    +0.138 C 
ATOM      2  C   UNL     1      35.187 -21.819 -19.265  0.00  0.00    +0.037 C 
ATOM      3  C   UNL     1      33.104 -20.892 -20.063  0.00  0.00    +0.037 C 
ATOM      4  C   UNL     1      35.199 -19.851 -20.666  0.00  0.00    +0.039 C 
ATOM      5  C   UNL     1      35.889 -20.816 -19.932  0.00  0.00    +0.006 C 
ATOM      6  C   UNL     1      33.807 -19.889 -20.731  0.00  0.00    +0.006 C 
ENDROOT
BRANCH   4   8
ATOM      7  O   UNL     1      37.091 -19.012 -21.754  0.00  0.00    -0.287 OA
ATOM      8  C   UNL     1      35.932 -18.807 -21.364  0.00  0.00    +0.196 C 
BRANCH   8   9
ATOM      9  C   UNL     1      35.342 -17.462 -21.642  0.00  0.00    +0.039 C 
ATOM     10  C   UNL     1      34.241 -14.952 -22.161  0.00  0.00    +0.001 C 
ATOM     11  C   UNL     1      35.109 -17.062 -22.957  0.00  0.00    +0.003 C 
ATOM     12  C   UNL     1      35.026 -16.607 -20.586  0.00  0.00    +0.003 C 
ATOM     13  C   UNL     1      34.557 -15.807 -23.217  0.00  0.00    +0.000 C 
ATOM     14  C   UNL     1      34.476 -15.352 -20.846  0.00  0.00    +0.000 C 
BRANCH  10  16
ATOM     15  S   UNL     1      32.138 -11.616 -22.176  0.00  0.00    -0.086 S 
ATOM     16  C   UNL     1      33.673 -13.661 -22.430  0.00  0.00    +0.007 C 
ATOM     17  C   UNL     1      34.054 -12.751 -23.457  0.00  0.00    +0.007 C 
ATOM     18  C   UNL     1      32.642 -13.170 -21.659  0.00  0.00    +0.035 C 
ATOM     19  C   UNL     1      33.300 -11.598 -23.433  0.00  0.00    +0.035 C 
ENDBRANCH  10  16
ENDBRANCH   8   9
ENDBRANCH   4   8
BRANCH   1  20
ATOM     20  O   UNL     1      33.102 -22.843 -18.673  0.00  0.00    -0.478 OA
BRANCH  20  21
ATOM     21  C   UNL     1      33.571 -23.207 -17.386  0.00  0.00    +0.184 C 
BRANCH  21  23
ATOM     22  N   UNL     1      31.183 -22.838 -16.825  0.00  0.00    +0.388 N 
ATOM     23  C   UNL     1      32.386 -23.633 -16.534  0.00  0.00    -0.017 C 
ATOM     24  C   UNL     1      32.606 -23.396 -15.048  0.00  0.00    -0.020 C 
ATOM     25  C   UNL     1      31.199 -23.292 -14.479  0.00  0.00    -0.025 C 
ATOM     26  C   UNL     1      30.294 -23.081 -15.685  0.00  0.00    -0.082 C 
ATOM     27  H   UNL     1      30.748 -23.150 -17.694  0.00  0.00    -0.084 HD
ATOM     28  H   UNL     1      31.395 -21.848 -16.947  0.00  0.00    -0.084 HD
ENDBRANCH  21  23
ENDBRANCH  20  21
ENDBRANCH   1  20
TORSDOF 6
ENDMDL
MODEL 3
REMARK VINA RESULT:     -11.0      4.390      9.278
REMARK  Name = 44129624
REMARK  6 active torsions:
REMARK  status: ('A' for Active; 'I' for Inactive)
REMARK    1  A    between atoms: C_1  and  O_20
REMARK    2  A    between atoms: C_4  and  C_8
REMARK    3  A    between atoms: C_8  and  C_9
REMARK    4  A    between atoms: C_10  and  C_16
REMARK    5  A    between atoms: O_20  and  C_21
REMARK    6  A    between atoms: C_21  and  C_23
REMARK                            x       y       z     vdW  Elec       q    Type
REMARK                         _______ _______ _______ _____ _____    ______ ____
ROOT
ATOM      1  C   UNL     1      34.710 -15.242 -22.245  0.00  0.00    +0.138 C 
ATOM      2  C   UNL     1      34.668 -15.941 -23.451  0.00  0.00    +0.037 C 
ATOM      3  C   UNL     1      34.856 -15.934 -21.042  0.00  0.00    +0.037 C 
ATOM      4  C   UNL     1      34.919 -18.024 -22.252  0.00  0.00    +0.039 C 
ATOM      5  C   UNL     1      34.773 -17.331 -23.455  0.00  0.00    +0.006 C 
ATOM      6  C   UNL     1      34.961 -17.325 -21.047  0.00  0.00    +0.006 C 
ENDROOT
BRANCH   4   8
ATOM      7  O   UNL     1      35.369 -20.070 -23.290  0.00  0.00    -0.287 OA
ATOM      8  C   UNL     1      35.031 -19.473 -22.257  0.00  0.00    +0.196 C 
BRANCH   8   9
ATOM      9  C   UNL     1      34.750 -20.303 -21.047  0.00  0.00    +0.039 C 
ATOM     10  C   UNL     1      34.225 -21.851 -18.786  0.00  0.00    +0.001 C 
ATOM     11  C   UNL     1      35.802 -20.891 -20.345  0.00  0.00    +0.003 C 
ATOM     12  C   UNL     1      33.435 -20.491 -20.619  0.00  0.00    +0.003 C 
ATOM     13  C   UNL     1      35.540 -21.665 -19.215  0.00  0.00    +0.000 C 
ATOM     14  C   UNL     1      33.173 -21.265 -19.489  0.00  0.00    +0.000 C 
BRANCH  10  16
ATOM     15  S   UNL     1      34.404 -23.947 -15.450  0.00  0.00    -0.086 S 
ATOM     16  C   UNL     1      33.958 -22.648 -17.622  0.00  0.00    +0.007 C 
ATOM     17  C   UNL     1      32.697 -23.165 -17.205  0.00  0.00    +0.007 C 
ATOM     18  C   UNL     1      34.972 -22.998 -16.758  0.00  0.00    +0.035 C 
ATOM     19  C   UNL     1      32.796 -23.890 -16.038  0.00  0.00    +0.035 C 
ENDBRANCH  10  16
ENDBRANCH   8   9
ENDBRANCH   4   8
BRANCH   1  20
ATOM     20  O   UNL     1      34.607 -13.873 -22.240  0.00  0.00    -0.478 OA
BRANCH  20  21
ATOM     21  C   UNL     1      33.849 -13.284 -23.283  0.00  0.00    +0.184 C 
BRANCH  21  23
ATOM     22  N   UNL     1      32.488 -11.267 -22.801  0.00  0.00    +0.388 N 
ATOM     23  C   UNL     1      32.557 -12.732 -22.700  0.00  0.00    -0.017 C 
ATOM     24  C   UNL     1      32.425 -12.983 -21.206  0.00  0.00    -0.020 C 
ATOM     25  C   UNL     1      31.468 -11.898 -20.734  0.00  0.00    -0.025 C 
ATOM     26  C   UNL     1      31.426 -10.881 -21.866  0.00  0.00    -0.082 C 
ATOM     27  H   UNL     1      32.251 -10.983 -23.752  0.00  0.00    -0.084 HD
ATOM     28  H   UNL     1      33.379 -10.822 -22.580  0.00  0.00    -0.084 HD
ENDBRANCH  21  23
ENDBRANCH  20  21
ENDBRANCH   1  20
TORSDOF 6
ENDMDL
MODEL 4
REMARK VINA RESULT:     -10.9      3.933      5.953
REMARK  Name = 44129624
REMARK  6 active torsions:
REMARK  status: ('A' for Active; 'I' for Inactive)
REMARK    1  A    between atoms: C_1  and  O_20
REMARK    2  A    between atoms: C_4  and  C_8
REMARK    3  A    between atoms: C_8  and  C_9
REMARK    4  A    between atoms: C_10  and  C_16
REMARK    5  A    between atoms: O_20  and  C_21
REMARK    6  A    between atoms: C_21  and  C_23
REMARK                            x       y       z     vdW  Elec       q    Type
REMARK                         _______ _______ _______ _____ _____    ______ ____
ROOT
ATOM      1  C   UNL     1      35.393 -23.441 -13.961  0.00  0.00    +0.138 C 
ATOM      2  C   UNL     1      36.200 -22.958 -14.991  0.00  0.00    +0.037 C 
ATOM      3  C   UNL     1      34.115 -23.923 -14.243  0.00  0.00    +0.037 C 
ATOM      4  C   UNL     1      34.450 -23.439 -16.586  0.00  0.00    +0.039 C 
ATOM      5  C   UNL     1      35.729 -22.957 -16.303  0.00  0.00    +0.006 C 
ATOM      6  C   UNL     1      33.644 -23.922 -15.556  0.00  0.00    +0.006 C 
ENDROOT
BRANCH   4   8
ATOM      7  O   UNL     1      33.339 -24.419 -18.395  0.00  0.00    -0.287 OA
ATOM      8  C   UNL     1      33.961 -23.441 -17.955  0.00  0.00    +0.196 C 
BRANCH   8   9
ATOM      9  C   UNL     1      34.174 -22.290 -18.884  0.00  0.00    +0.039 C 
ATOM     10  C   UNL     1      34.573 -20.140 -20.617  0.00  0.00    +0.001 C 
ATOM     11  C   UNL     1      33.082 -21.553 -19.343  0.00  0.00    +0.003 C 
ATOM     12  C   UNL     1      35.465 -21.953 -19.293  0.00  0.00    +0.003 C 
ATOM     13  C   UNL     1      33.282 -20.478 -20.209  0.00  0.00    +0.000 C 
ATOM     14  C   UNL     1      35.664 -20.879 -20.159  0.00  0.00    +0.000 C 
BRANCH  10  16
ATOM     15  S   UNL     1      34.818 -17.698 -23.703  0.00  0.00    -0.086 S 
ATOM     16  C   UNL     1      34.776 -19.033 -21.508  0.00  0.00    +0.007 C 
ATOM     17  C   UNL     1      35.266 -17.738 -21.174  0.00  0.00    +0.007 C 
ATOM     18  C   UNL     1      34.494 -19.148 -22.852  0.00  0.00    +0.035 C 
ATOM     19  C   UNL     1      35.338 -16.912 -22.274  0.00  0.00    +0.035 C 
ENDBRANCH  10  16
ENDBRANCH   8   9
ENDBRANCH   4   8
BRANCH   1  20
ATOM     20  O   UNL     1      35.856 -23.442 -12.669  0.00  0.00    -0.478 OA
BRANCH  20  21
ATOM     21  C   UNL     1      35.784 -24.669 -11.962  0.00  0.00    +0.184 C 
BRANCH  21  23
ATOM     22  N   UNL     1      38.198 -24.635 -12.532  0.00  0.00    +0.388 N 
ATOM     23  C   UNL     1      37.028 -25.487 -12.272  0.00  0.00    -0.017 C 
ATOM     24  C   UNL     1      36.901 -26.300 -13.552  0.00  0.00    -0.020 C 
ATOM     25  C   UNL     1      38.341 -26.523 -13.991  0.00  0.00    -0.025 C 
ATOM     26  C   UNL     1      39.163 -25.522 -13.191  0.00  0.00    -0.082 C 
ATOM     27  H   UNL     1      38.580 -24.274 -11.658  0.00  0.00    -0.084 HD
ATOM     28  H   UNL     1      37.965 -23.823 -13.104  0.00  0.00    -0.084 HD
ENDBRANCH  21  23
ENDBRANCH  20  21
ENDBRANCH   1  20
TORSDOF 6
ENDMDL
MODEL 5
REMARK VINA RESULT:     -10.8      5.030      9.486
REMARK  Name = 44129624
REMARK  6 active torsions:
REMARK  status: ('A' for Active; 'I' for Inactive)
REMARK    1  A    between atoms: C_1  and  O_20
REMARK    2  A    between atoms: C_4  and  C_8
REMARK    3  A    between atoms: C_8  and  C_9
REMARK    4  A    between atoms: C_10  and  C_16
REMARK    5  A    between atoms: O_20  and  C_21
REMARK    6  A    between atoms: C_21  and  C_23
REMARK                            x       y       z     vdW  Elec       q    Type
REMARK                         _______ _______ _______ _____ _____    ______ ____
ROOT
ATOM      1  C   UNL     1      33.077 -12.460 -23.019  0.00  0.00    +0.138 C 
ATOM      2  C   UNL     1      33.411 -13.377 -22.023  0.00  0.00    +0.037 C 
ATOM      3  C   UNL     1      33.262 -12.790 -24.362  0.00  0.00    +0.037 C 
ATOM      4  C   UNL     1      34.114 -14.955 -23.711  0.00  0.00    +0.039 C 
ATOM      5  C   UNL     1      33.930 -14.624 -22.368  0.00  0.00    +0.006 C 
ATOM      6  C   UNL     1      33.780 -14.038 -24.707  0.00  0.00    +0.006 C 
ENDROOT
BRANCH   4   8
ATOM      7  O   UNL     1      35.018 -16.482 -25.235  0.00  0.00    -0.287 OA
ATOM      8  C   UNL     1      34.652 -16.257 -24.071  0.00  0.00    +0.196 C 
BRANCH   8   9
ATOM      9  C   UNL     1      34.791 -17.369 -23.082  0.00  0.00    +0.039 C 
ATOM     10  C   UNL     1      35.051 -19.444 -21.236  0.00  0.00    +0.001 C 
ATOM     11  C   UNL     1      34.447 -18.671 -23.445  0.00  0.00    +0.003 C 
ATOM     12  C   UNL     1      35.264 -17.104 -21.797  0.00  0.00    +0.003 C 
ATOM     13  C   UNL     1      34.577 -19.708 -22.521  0.00  0.00    +0.000 C 
ATOM     14  C   UNL     1      35.393 -18.141 -20.874  0.00  0.00    +0.000 C 
BRANCH  10  16
ATOM     15  S   UNL     1      34.496 -22.438 -18.730  0.00  0.00    -0.086 S 
ATOM     16  C   UNL     1      35.185 -20.513 -20.287  0.00  0.00    +0.007 C 
ATOM     17  C   UNL     1      36.387 -20.982 -19.684  0.00  0.00    +0.007 C 
ATOM     18  C   UNL     1      34.081 -21.216 -19.857  0.00  0.00    +0.035 C 
ATOM     19  C   UNL     1      36.157 -22.027 -18.816  0.00  0.00    +0.035 C 
ENDBRANCH  10  16
ENDBRANCH   8   9
ENDBRANCH   4   8
BRANCH   1  20
ATOM     20  O   UNL     1      32.568 -11.231 -22.680  0.00  0.00    -0.478 OA
BRANCH  20  21
ATOM     21  C   UNL     1      31.245 -11.204 -22.171  0.00  0.00    +0.184 C 
BRANCH  21  23
ATOM     22  N   UNL     1      32.207  -9.231 -21.016  0.00  0.00    +0.388 N 
ATOM     23  C   UNL     1      31.210 -10.310 -20.941  0.00  0.00    -0.017 C 
ATOM     24  C   UNL     1      31.588 -11.041 -19.663  0.00  0.00    -0.020 C 
ATOM     25  C   UNL     1      32.077  -9.938 -18.737  0.00  0.00    -0.025 C 
ATOM     26  C   UNL     1      32.322  -8.737 -19.640  0.00  0.00    -0.082 C 
ATOM     27  H   UNL     1      31.887  -8.489 -21.639  0.00  0.00    -0.084 HD
ATOM     28  H   UNL     1      33.100  -9.555 -21.387  0.00  0.00    -0.084 HD
ENDBRANCH  21  23
ENDBRANCH  20  21
ENDBRANCH   1  20
TORSDOF 6
ENDMDL
MODEL 6
REMARK VINA RESULT:     -10.7      4.801     10.152
REMARK  Name = 44129624
REMARK  6 active torsions:
REMARK  status: ('A' for Active; 'I' for Inactive)
REMARK    1  A    between atoms: C_1  and  O_20
REMARK    2  A    between atoms: C_4  and  C_8
REMARK    3  A    between atoms: C_8  and  C_9
REMARK    4  A    between atoms: C_10  and  C_16
REMARK    5  A    between atoms: O_20  and  C_21
REMARK    6  A    between atoms: C_21  and  C_23
REMARK                            x       y       z     vdW  Elec       q    Type
REMARK                         _______ _______ _______ _____ _____    ______ ____
ROOT
ATOM      1  C   UNL     1      35.493 -19.452 -20.894  0.00  0.00    +0.138 C 
ATOM      2  C   UNL     1      34.136 -19.765 -20.808  0.00  0.00    +0.037 C 
ATOM      3  C   UNL     1      36.433 -20.233 -20.222  0.00  0.00    +0.037 C 
ATOM      4  C   UNL     1      34.660 -21.641 -19.379  0.00  0.00    +0.039 C 
ATOM      5  C   UNL     1      33.720 -20.859 -20.051  0.00  0.00    +0.006 C 
ATOM      6  C   UNL     1      36.016 -21.328 -19.465  0.00  0.00    +0.006 C 
ENDROOT
BRANCH   4   8
ATOM      7  O   UNL     1      33.457 -23.624 -19.082  0.00  0.00    -0.287 OA
ATOM      8  C   UNL     1      34.225 -22.783 -18.591  0.00  0.00    +0.196 C 
BRANCH   8   9
ATOM      9  C   UNL     1      34.670 -23.001 -17.181  0.00  0.00    +0.039 C 
ATOM     10  C   UNL     1      35.501 -23.407 -14.549  0.00  0.00    +0.001 C 
ATOM     11  C   UNL     1      35.956 -22.629 -16.791  0.00  0.00    +0.003 C 
ATOM     12  C   UNL     1      33.800 -23.578 -16.256  0.00  0.00    +0.003 C 
ATOM     13  C   UNL     1      36.371 -22.832 -15.475  0.00  0.00    +0.000 C 
ATOM     14  C   UNL     1      34.215 -23.781 -14.941  0.00  0.00    +0.000 C 
BRANCH  10  16
ATOM     15  S   UNL     1      35.871 -24.432 -10.760  0.00  0.00    -0.086 S 
ATOM     16  C   UNL     1      35.929 -23.615 -13.195  0.00  0.00    +0.007 C 
ATOM     17  C   UNL     1      37.139 -23.159 -12.596  0.00  0.00    +0.007 C 
ATOM     18  C   UNL     1      35.147 -24.321 -12.308  0.00  0.00    +0.035 C 
ATOM     19  C   UNL     1      37.235 -23.534 -11.274  0.00  0.00    +0.035 C 
ENDBRANCH  10  16
ENDBRANCH   8   9
ENDBRANCH   4   8
BRANCH   1  20
ATOM     20  O   UNL     1      35.904 -18.375 -21.639  0.00  0.00    -0.478 OA
BRANCH  20  21
ATOM     21  C   UNL     1      35.316 -17.122 -21.333  0.00  0.00    +0.184 C 
BRANCH  21  23
ATOM     22  N   UNL     1      34.163 -15.259 -22.496  0.00  0.00    +0.388 N 
ATOM     23  C   UNL     1      35.175 -16.319 -22.617  0.00  0.00    -0.017 C 
ATOM     24  C   UNL     1      34.667 -17.151 -23.784  0.00  0.00    -0.020 C 
ATOM     25  C   UNL     1      34.038 -16.128 -24.719  0.00  0.00    -0.025 C 
ATOM     26  C   UNL     1      33.868 -14.870 -23.879  0.00  0.00    -0.082 C 
ATOM     27  H   UNL     1      34.533 -14.467 -21.971  0.00  0.00    -0.084 HD
ATOM     28  H   UNL     1      33.331 -15.574 -21.997  0.00  0.00    -0.084 HD
ENDBRANCH  21  23
ENDBRANCH  20  21
ENDBRANCH   1  20
TORSDOF 6
ENDMDL
MODEL 7
REMARK VINA RESULT:     -10.5      2.194      3.906
REMARK  Name = 44129624
REMARK  6 active torsions:
REMARK  status: ('A' for Active; 'I' for Inactive)
REMARK    1  A    between atoms: C_1  and  O_20
REMARK    2  A    between atoms: C_4  and  C_8
REMARK    3  A    between atoms: C_8  and  C_9
REMARK    4  A    between atoms: C_10  and  C_16
REMARK    5  A    between atoms: O_20  and  C_21
REMARK    6  A    between atoms: C_21  and  C_23
REMARK                            x       y       z     vdW  Elec       q    Type
REMARK                         _______ _______ _______ _____ _____    ______ ____
ROOT
ATOM      1  C   UNL     1      35.901 -20.005 -20.479  0.00  0.00    +0.138 C 
ATOM      2  C   UNL     1      36.778 -19.053 -20.996  0.00  0.00    +0.037 C 
ATOM      3  C   UNL     1      34.627 -20.152 -21.029  0.00  0.00    +0.037 C 
ATOM      4  C   UNL     1      35.110 -18.393 -22.614  0.00  0.00    +0.039 C 
ATOM      5  C   UNL     1      36.384 -18.247 -22.063  0.00  0.00    +0.006 C 
ATOM      6  C   UNL     1      34.233 -19.346 -22.097  0.00  0.00    +0.006 C 
ENDROOT
BRANCH   4   8
ATOM      7  O   UNL     1      34.657 -18.020 -24.877  0.00  0.00    -0.287 OA
ATOM      8  C   UNL     1      34.700 -17.555 -23.728  0.00  0.00    +0.196 C 
BRANCH   8   9
ATOM      9  C   UNL     1      34.317 -16.121 -23.554  0.00  0.00    +0.039 C 
ATOM     10  C   UNL     1      33.602 -13.444 -23.230  0.00  0.00    +0.001 C 
ATOM     11  C   UNL     1      34.601 -15.464 -22.357  0.00  0.00    +0.003 C 
ATOM     12  C   UNL     1      33.674 -15.439 -24.589  0.00  0.00    +0.003 C 
ATOM     13  C   UNL     1      34.243 -14.125 -22.195  0.00  0.00    +0.000 C 
ATOM     14  C   UNL     1      33.317 -14.101 -24.426  0.00  0.00    +0.000 C 
BRANCH  10  16
ATOM     15  S   UNL     1      31.881 -10.021 -22.296  0.00  0.00    -0.086 S 
ATOM     16  C   UNL     1      33.236 -12.066 -23.061  0.00  0.00    +0.007 C 
ATOM     17  C   UNL     1      33.930 -10.925 -23.556  0.00  0.00    +0.007 C 
ATOM     18  C   UNL     1      32.103 -11.718 -22.358  0.00  0.00    +0.035 C 
ATOM     19  C   UNL     1      33.302  -9.747 -23.212  0.00  0.00    +0.035 C 
ENDBRANCH  10  16
ENDBRANCH   8   9
ENDBRANCH   4   8
BRANCH   1  20
ATOM     20  O   UNL     1      36.288 -20.798 -19.428  0.00  0.00    -0.478 OA
BRANCH  20  21
ATOM     21  C   UNL     1      35.720 -22.096 -19.360  0.00  0.00    +0.184 C 
BRANCH  21  23
ATOM     22  N   UNL     1      35.625 -22.798 -16.983  0.00  0.00    +0.388 N 
ATOM     23  C   UNL     1      34.878 -22.197 -18.098  0.00  0.00    -0.017 C 
ATOM     24  C   UNL     1      33.684 -23.126 -18.254  0.00  0.00    -0.020 C 
ATOM     25  C   UNL     1      33.364 -23.558 -16.831  0.00  0.00    -0.025 C 
ATOM     26  C   UNL     1      34.595 -23.188 -16.014  0.00  0.00    -0.082 C 
ATOM     27  H   UNL     1      36.266 -22.119 -16.573  0.00  0.00    -0.084 HD
ATOM     28  H   UNL     1      36.194 -23.590 -17.282  0.00  0.00    -0.084 HD
ENDBRANCH  21  23
ENDBRANCH  20  21
ENDBRANCH   1  20
TORSDOF 6
ENDMDL
MODEL 8
REMARK VINA RESULT:     -10.5      2.258      3.771
REMARK  Name = 44129624
REMARK  6 active torsions:
REMARK  status: ('A' for Active; 'I' for Inactive)
REMARK    1  A    between atoms: C_1  and  O_20
REMARK    2  A    between atoms: C_4  and  C_8
REMARK    3  A    between atoms: C_8  and  C_9
REMARK    4  A    between atoms: C_10  and  C_16
REMARK    5  A    between atoms: O_20  and  C_21
REMARK    6  A    between atoms: C_21  and  C_23
REMARK                            x       y       z     vdW  Elec       q    Type
REMARK                         _______ _______ _______ _____ _____    ______ ____
ROOT
ATOM      1  C   UNL     1      32.923 -23.762 -15.500  0.00  0.00    +0.138 C 
ATOM      2  C   UNL     1      34.160 -23.427 -14.951  0.00  0.00    +0.037 C 
ATOM      3  C   UNL     1      32.690 -23.571 -16.862  0.00  0.00    +0.037 C 
ATOM      4  C   UNL     1      34.933 -22.712 -17.125  0.00  0.00    +0.039 C 
ATOM      5  C   UNL     1      35.165 -22.902 -15.763  0.00  0.00    +0.006 C 
ATOM      6  C   UNL     1      33.695 -23.047 -17.675  0.00  0.00    +0.006 C 
ENDROOT
BRANCH   4   8
ATOM      7  O   UNL     1      37.171 -22.429 -17.739  0.00  0.00    -0.287 OA
ATOM      8  C   UNL     1      35.982 -22.168 -17.972  0.00  0.00    +0.196 C 
BRANCH   8   9
ATOM      9  C   UNL     1      35.690 -21.285 -19.142  0.00  0.00    +0.039 C 
ATOM     10  C   UNL     1      35.146 -19.636 -21.325  0.00  0.00    +0.001 C 
ATOM     11  C   UNL     1      34.399 -21.226 -19.666  0.00  0.00    +0.003 C 
ATOM     12  C   UNL     1      36.709 -20.520 -19.710  0.00  0.00    +0.003 C 
ATOM     13  C   UNL     1      34.127 -20.401 -20.758  0.00  0.00    +0.000 C 
ATOM     14  C   UNL     1      36.437 -19.696 -20.802  0.00  0.00    +0.000 C 
BRANCH  10  16
ATOM     15  S   UNL     1      34.778 -16.657 -23.883  0.00  0.00    -0.086 S 
ATOM     16  C   UNL     1      34.863 -18.787 -22.448  0.00  0.00    +0.007 C 
ATOM     17  C   UNL     1      34.218 -19.155 -23.664  0.00  0.00    +0.007 C 
ATOM     18  C   UNL     1      35.220 -17.456 -22.434  0.00  0.00    +0.035 C 
ATOM     19  C   UNL     1      34.107 -18.092 -24.533  0.00  0.00    +0.035 C 
ENDBRANCH  10  16
ENDBRANCH   8   9
ENDBRANCH   4   8
BRANCH   1  20
ATOM     20  O   UNL     1      31.933 -24.277 -14.702  0.00  0.00    -0.478 OA
BRANCH  20  21
ATOM     21  C   UNL     1      31.021 -23.353 -14.132  0.00  0.00    +0.184 C 
BRANCH  21  23
ATOM     22  N   UNL     1      29.524 -24.943 -15.308  0.00  0.00    +0.388 N 
ATOM     23  C   UNL     1      29.641 -23.600 -14.720  0.00  0.00    -0.017 C 
ATOM     24  C   UNL     1      29.319 -22.682 -15.889  0.00  0.00    -0.020 C 
ATOM     25  C   UNL     1      28.263 -23.443 -16.676  0.00  0.00    -0.025 C 
ATOM     26  C   UNL     1      28.330 -24.873 -16.158  0.00  0.00    -0.082 C 
ATOM     27  H   UNL     1      29.406 -25.645 -14.578  0.00  0.00    -0.084 HD
ATOM     28  H   UNL     1      30.357 -25.208 -15.833  0.00  0.00    -0.084 HD
ENDBRANCH  21  23
ENDBRANCH  20  21
ENDBRANCH   1  20
TORSDOF 6
ENDMDL
MODEL 9
REMARK VINA RESULT:     -10.4      4.993     10.097
REMARK  Name = 44129624
REMARK  6 active torsions:
REMARK  status: ('A' for Active; 'I' for Inactive)
REMARK    1  A    between atoms: C_1  and  O_20
REMARK    2  A    between atoms: C_4  and  C_8
REMARK    3  A    between atoms: C_8  and  C_9
REMARK    4  A    between atoms: C_10  and  C_16
REMARK    5  A    between atoms: O_20  and  C_21
REMARK    6  A    between atoms: C_21  and  C_23
REMARK                            x       y       z     vdW  Elec       q    Type
REMARK                         _______ _______ _______ _____ _____    ______ ____
ROOT
ATOM      1  C   UNL     1      34.901 -20.103 -21.112  0.00  0.00    +0.138 C 
ATOM      2  C   UNL     1      35.792 -20.873 -20.367  0.00  0.00    +0.037 C 
ATOM      3  C   UNL     1      33.536 -20.145 -20.828  0.00  0.00    +0.037 C 
ATOM      4  C   UNL     1      33.955 -21.728 -19.052  0.00  0.00    +0.039 C 
ATOM      5  C   UNL     1      35.320 -21.686 -19.337  0.00  0.00    +0.006 C 
ATOM      6  C   UNL     1      33.063 -20.957 -19.798  0.00  0.00    +0.006 C 
ENDROOT
BRANCH   4   8
ATOM      7  O   UNL     1      32.280 -22.946 -17.967  0.00  0.00    -0.287 OA
ATOM      8  C   UNL     1      33.463 -22.573 -17.977  0.00  0.00    +0.196 C 
BRANCH   8   9
ATOM      9  C   UNL     1      34.335 -23.028 -16.851  0.00  0.00    +0.039 C 
ATOM     10  C   UNL     1      35.963 -23.878 -14.752  0.00  0.00    +0.001 C 
ATOM     11  C   UNL     1      33.817 -23.865 -15.863  0.00  0.00    +0.003 C 
ATOM     12  C   UNL     1      35.666 -22.615 -16.790  0.00  0.00    +0.003 C 
ATOM     13  C   UNL     1      34.632 -24.290 -14.814  0.00  0.00    +0.000 C 
ATOM     14  C   UNL     1      36.480 -23.040 -15.740  0.00  0.00    +0.000 C 
BRANCH  10  16
ATOM     15  S   UNL     1      38.468 -25.775 -12.369  0.00  0.00    -0.086 S 
ATOM     16  C   UNL     1      36.800 -24.317 -13.671  0.00  0.00    +0.007 C 
ATOM     17  C   UNL     1      36.968 -23.689 -12.404  0.00  0.00    +0.007 C 
ATOM     18  C   UNL     1      37.558 -25.462 -13.786  0.00  0.00    +0.035 C 
ATOM     19  C   UNL     1      37.849 -24.377 -11.598  0.00  0.00    +0.035 C 
ENDBRANCH  10  16
ENDBRANCH   8   9
ENDBRANCH   4   8
BRANCH   1  20
ATOM     20  O   UNL     1      35.365 -19.303 -22.127  0.00  0.00    -0.478 OA
BRANCH  20  21
ATOM     21  C   UNL     1      35.949 -18.067 -21.752  0.00  0.00    +0.184 C 
BRANCH  21  23
ATOM     22  N   UNL     1      35.404 -16.068 -23.116  0.00  0.00    +0.388 N 
ATOM     23  C   UNL     1      34.954 -16.950 -22.030  0.00  0.00    -0.017 C 
ATOM     24  C   UNL     1      34.788 -15.997 -20.856  0.00  0.00    -0.020 C 
ATOM     25  C   UNL     1      34.291 -14.709 -21.495  0.00  0.00    -0.025 C 
ATOM     26  C   UNL     1      34.576 -14.864 -22.982  0.00  0.00    -0.082 C 
ATOM     27  H   UNL     1      35.253 -16.509 -24.023  0.00  0.00    -0.084 HD
ATOM     28  H   UNL     1      36.401 -15.860 -23.057  0.00  0.00    -0.084 HD
ENDBRANCH  21  23
ENDBRANCH  20  21
ENDBRANCH   1  20
TORSDOF 6
ENDMDL
