MODEL 1
REMARK VINA RESULT:     -11.4      0.000      0.000
REMARK  Name = 2754
REMARK  7 active torsions:
REMARK  status: ('A' for Active; 'I' for Inactive)
REMARK    1  A    between atoms: C_1  and  C_2
REMARK    2  A    between atoms: C_1  and  C_15
REMARK    3  A    between atoms: C_2  and  C_3
REMARK    4  A    between atoms: C_3  and  C_8
REMARK    5  A    between atoms: N_4  and  C_9
REMARK    6  A    between atoms: C_15  and  O_16
REMARK    7  A    between atoms: O_16  and  C_23
REMARK                            x       y       z     vdW  Elec       q    Type
REMARK                         _______ _______ _______ _____ _____    ______ ____
ROOT
ATOM      1  C   UNL     1      33.585 -22.793 -18.951  0.00  0.00    +0.048 C 
ENDROOT
BRANCH   1   2
ATOM      2  C   UNL     1      33.264 -21.315 -19.170  0.00  0.00    +0.012 C 
BRANCH   2   3
ATOM      3  C   UNL     1      33.836 -20.814 -20.499  0.00  0.00    +0.068 C 
BRANCH   3   8
ATOM      4  N   UNL     1      35.609 -19.134 -21.011  0.00  0.00    -0.219 N 
ATOM      5  N   UNL     1      36.857 -18.829 -20.631  0.00  0.00    -0.043 NA
ATOM      6  N   UNL     1      36.125 -20.610 -19.509  0.00  0.00    -0.113 NA
ATOM      7  N   UNL     1      37.169 -19.734 -19.712  0.00  0.00    -0.023 NA
ATOM      8  C   UNL     1      35.204 -20.205 -20.317  0.00  0.00    +0.161 A 
BRANCH   4   9
ATOM      9  C   UNL     1      34.911 -18.340 -22.030  0.00  0.00    +0.108 C 
ATOM     10  C   UNL     1      34.934 -19.016 -23.412  0.00  0.00    +0.024 C 
ATOM     11  C   UNL     1      35.431 -16.894 -22.100  0.00  0.00    +0.024 C 
ATOM     12  C   UNL     1      34.177 -18.188 -24.448  0.00  0.00    +0.002 C 
ATOM     13  C   UNL     1      34.670 -16.080 -23.144  0.00  0.00    +0.002 C 
ATOM     14  C   UNL     1      34.697 -16.754 -24.514  0.00  0.00    +0.000 C 
ENDBRANCH   4   9
ENDBRANCH   3   8
ENDBRANCH   2   3
ENDBRANCH   1   2
BRANCH   1  15
ATOM     15  C   UNL     1      33.456 -23.184 -17.486  0.00  0.00    +0.205 C 
BRANCH  15  16
ATOM     16  O   UNL     1      34.757 -23.227 -16.903  0.00  0.00    -0.475 OA
BRANCH  16  23
ATOM     17  O   UNL     1      36.188 -24.515  -9.509  0.00  0.00    -0.275 OA
ATOM     18  N   UNL     1      35.042 -24.478 -11.498  0.00  0.00    -0.284 N 
ATOM     19  C   UNL     1      36.102 -23.641 -13.520  0.00  0.00    -0.005 C 
ATOM     20  C   UNL     1      37.397 -23.523 -12.771  0.00  0.00    +0.037 C 
ATOM     21  C   UNL     1      34.974 -24.153 -12.866  0.00  0.00    +0.046 C 
ATOM     22  C   UNL     1      37.148 -23.239 -11.297  0.00  0.00    +0.090 C 
ATOM     23  C   UNL     1      34.833 -23.546 -15.582  0.00  0.00    +0.138 C 
ATOM     24  C   UNL     1      36.026 -23.345 -14.885  0.00  0.00    +0.034 C 
ATOM     25  C   UNL     1      36.112 -24.161 -10.685  0.00  0.00    +0.226 C 
ATOM     26  C   UNL     1      33.787 -24.374 -13.566  0.00  0.00    +0.017 C 
ATOM     27  C   UNL     1      33.717 -24.062 -14.924  0.00  0.00    +0.038 C 
ATOM     28  H   UNL     1      34.282 -24.960 -11.099  0.00  0.00    +0.155 HD
ENDBRANCH  16  23
ENDBRANCH  15  16
ENDBRANCH   1  15
TORSDOF 7
ENDMDL
MODEL 2
REMARK VINA RESULT:     -11.3      2.114      2.517
REMARK  Name = 2754
REMARK  7 active torsions:
REMARK  status: ('A' for Active; 'I' for Inactive)
REMARK    1  A    between atoms: C_1  and  C_2
REMARK    2  A    between atoms: C_1  and  C_15
REMARK    3  A    between atoms: C_2  and  C_3
REMARK    4  A    between atoms: C_3  and  C_8
REMARK    5  A    between atoms: N_4  and  C_9
REMARK    6  A    between atoms: C_15  and  O_16
REMARK    7  A    between atoms: O_16  and  C_23
REMARK                            x       y       z     vdW  Elec       q    Type
REMARK                         _______ _______ _______ _____ _____    ______ ____
ROOT
ATOM      1  C   UNL     1      33.055 -22.313 -18.215  0.00  0.00    +0.048 C 
ENDROOT
BRANCH   1   2
ATOM      2  C   UNL     1      34.131 -22.322 -19.300  0.00  0.00    +0.012 C 
BRANCH   2   3
ATOM      3  C   UNL     1      34.118 -21.020 -20.105  0.00  0.00    +0.068 C 
BRANCH   3   8
ATOM      4  N   UNL     1      35.772 -19.333 -20.909  0.00  0.00    -0.219 N 
ATOM      5  N   UNL     1      37.031 -18.948 -20.659  0.00  0.00    -0.043 NA
ATOM      6  N   UNL     1      36.464 -20.639 -19.322  0.00  0.00    -0.113 NA
ATOM      7  N   UNL     1      37.450 -19.749 -19.688  0.00  0.00    -0.023 NA
ATOM      8  C   UNL     1      35.468 -20.347 -20.089  0.00  0.00    +0.161 A 
BRANCH   4   9
ATOM      9  C   UNL     1      34.966 -18.666 -21.939  0.00  0.00    +0.108 C 
ATOM     10  C   UNL     1      34.829 -19.516 -23.214  0.00  0.00    +0.024 C 
ATOM     11  C   UNL     1      35.478 -17.250 -22.255  0.00  0.00    +0.024 C 
ATOM     12  C   UNL     1      33.962 -18.816 -24.259  0.00  0.00    +0.002 C 
ATOM     13  C   UNL     1      34.606 -16.566 -23.306  0.00  0.00    +0.002 C 
ATOM     14  C   UNL     1      34.476 -17.413 -24.570  0.00  0.00    +0.000 C 
ENDBRANCH   4   9
ENDBRANCH   3   8
ENDBRANCH   2   3
ENDBRANCH   1   2
BRANCH   1  15
ATOM     15  C   UNL     1      33.220 -23.479 -17.252  0.00  0.00    +0.205 C 
BRANCH  15  16
ATOM     16  O   UNL     1      33.749 -22.990 -16.021  0.00  0.00    -0.475 OA
BRANCH  16  23
ATOM     17  O   UNL     1      40.199 -26.394 -13.742  0.00  0.00    -0.275 OA
ATOM     18  N   UNL     1      38.816 -24.784 -14.619  0.00  0.00    -0.284 N 
ATOM     19  C   UNL     1      36.407 -25.113 -14.660  0.00  0.00    -0.005 C 
ATOM     20  C   UNL     1      36.584 -26.375 -13.866  0.00  0.00    +0.037 C 
ATOM     21  C   UNL     1      37.531 -24.338 -14.977  0.00  0.00    +0.046 C 
ATOM     22  C   UNL     1      37.926 -27.024 -14.169  0.00  0.00    +0.090 C 
ATOM     23  C   UNL     1      34.989 -23.425 -15.664  0.00  0.00    +0.138 C 
ATOM     24  C   UNL     1      35.134 -24.645 -15.002  0.00  0.00    +0.034 C 
ATOM     25  C   UNL     1      39.081 -26.044 -14.119  0.00  0.00    +0.226 C 
ATOM     26  C   UNL     1      37.385 -23.108 -15.620  0.00  0.00    +0.017 C 
ATOM     27  C   UNL     1      36.112 -22.657 -15.970  0.00  0.00    +0.038 C 
ATOM     28  H   UNL     1      39.570 -24.161 -14.730  0.00  0.00    +0.155 HD
ENDBRANCH  16  23
ENDBRANCH  15  16
ENDBRANCH   1  15
TORSDOF 7
ENDMDL
MODEL 3
REMARK VINA RESULT:     -11.2      3.620     10.037
REMARK  Name = 2754
REMARK  7 active torsions:
REMARK  status: ('A' for Active; 'I' for Inactive)
REMARK    1  A    between atoms: C_1  and  C_2
REMARK    2  A    between atoms: C_1  and  C_15
REMARK    3  A    between atoms: C_2  and  C_3
REMARK    4  A    between atoms: C_3  and  C_8
REMARK    5  A    between atoms: N_4  and  C_9
REMARK    6  A    between atoms: C_15  and  O_16
REMARK    7  A    between atoms: O_16  and  C_23
REMARK                            x       y       z     vdW  Elec       q    Type
REMARK                         _______ _______ _______ _____ _____    ______ ____
ROOT
ATOM      1  C   UNL     1      35.750 -21.718 -18.251  0.00  0.00    +0.048 C 
ENDROOT
BRANCH   1   2
ATOM      2  C   UNL     1      36.950 -21.913 -17.326  0.00  0.00    +0.012 C 
BRANCH   2   3
ATOM      3  C   UNL     1      36.511 -22.034 -15.865  0.00  0.00    +0.068 C 
BRANCH   3   8
ATOM      4  N   UNL     1      35.101 -23.999 -15.253  0.00  0.00    -0.219 N 
ATOM      5  N   UNL     1      35.249 -25.288 -14.915  0.00  0.00    -0.043 NA
ATOM      6  N   UNL     1      37.240 -24.355 -15.280  0.00  0.00    -0.113 NA
ATOM      7  N   UNL     1      36.559 -25.501 -14.934  0.00  0.00    -0.023 NA
ATOM      8  C   UNL     1      36.314 -23.474 -15.464  0.00  0.00    +0.161 A 
BRANCH   4   9
ATOM      9  C   UNL     1      33.769 -23.387 -15.342  0.00  0.00    +0.108 C 
ATOM     10  C   UNL     1      32.867 -23.780 -14.160  0.00  0.00    +0.024 C 
ATOM     11  C   UNL     1      33.087 -23.668 -16.692  0.00  0.00    +0.024 C 
ATOM     12  C   UNL     1      31.498 -23.107 -14.258  0.00  0.00    +0.002 C 
ATOM     13  C   UNL     1      31.719 -22.995 -16.773  0.00  0.00    +0.002 C 
ATOM     14  C   UNL     1      30.826 -23.390 -15.599  0.00  0.00    +0.000 C 
ENDBRANCH   4   9
ENDBRANCH   3   8
ENDBRANCH   2   3
ENDBRANCH   1   2
BRANCH   1  15
ATOM     15  C   UNL     1      36.184 -21.445 -19.684  0.00  0.00    +0.205 C 
BRANCH  15  16
ATOM     16  O   UNL     1      36.347 -20.039 -19.856  0.00  0.00    -0.475 OA
BRANCH  16  23
ATOM     17  O   UNL     1      33.518 -15.930 -25.644  0.00  0.00    -0.275 OA
ATOM     18  N   UNL     1      34.118 -17.773 -24.412  0.00  0.00    -0.284 N 
ATOM     19  C   UNL     1      35.096 -17.516 -22.201  0.00  0.00    -0.005 C 
ATOM     20  C   UNL     1      34.841 -16.038 -22.279  0.00  0.00    +0.037 C 
ATOM     21  C   UNL     1      34.689 -18.340 -23.258  0.00  0.00    +0.046 C 
ATOM     22  C   UNL     1      34.896 -15.553 -23.719  0.00  0.00    +0.090 C 
ATOM     23  C   UNL     1      35.788 -19.482 -20.966  0.00  0.00    +0.138 C 
ATOM     24  C   UNL     1      35.641 -18.097 -21.051  0.00  0.00    +0.034 C 
ATOM     25  C   UNL     1      34.085 -16.415 -24.666  0.00  0.00    +0.226 C 
ATOM     26  C   UNL     1      34.817 -19.727 -23.166  0.00  0.00    +0.017 C 
ATOM     27  C   UNL     1      35.375 -20.295 -22.020  0.00  0.00    +0.038 C 
ATOM     28  H   UNL     1      33.719 -18.379 -25.078  0.00  0.00    +0.155 HD
ENDBRANCH  16  23
ENDBRANCH  15  16
ENDBRANCH   1  15
TORSDOF 7
ENDMDL
MODEL 4
REMARK VINA RESULT:     -11.1      6.710     12.310
REMARK  Name = 2754
REMARK  7 active torsions:
REMARK  status: ('A' for Active; 'I' for Inactive)
REMARK    1  A    between atoms: C_1  and  C_2
REMARK    2  A    between atoms: C_1  and  C_15
REMARK    3  A    between atoms: C_2  and  C_3
REMARK    4  A    between atoms: C_3  and  C_8
REMARK    5  A    between atoms: N_4  and  C_9
REMARK    6  A    between atoms: C_15  and  O_16
REMARK    7  A    between atoms: O_16  and  C_23
REMARK                            x       y       z     vdW  Elec       q    Type
REMARK                         _______ _______ _______ _____ _____    ______ ____
ROOT
ATOM      1  C   UNL     1      33.908 -14.488 -20.732  0.00  0.00    +0.048 C 
ENDROOT
BRANCH   1   2
ATOM      2  C   UNL     1      33.948 -14.739 -22.239  0.00  0.00    +0.012 C 
BRANCH   2   3
ATOM      3  C   UNL     1      35.105 -15.668 -22.615  0.00  0.00    +0.068 C 
BRANCH   3   8
ATOM      4  N   UNL     1      34.676 -18.083 -23.073  0.00  0.00    -0.219 N 
ATOM      5  N   UNL     1      34.197 -18.860 -24.054  0.00  0.00    -0.043 NA
ATOM      6  N   UNL     1      34.158 -16.721 -24.679  0.00  0.00    -0.113 NA
ATOM      7  N   UNL     1      33.880 -18.022 -25.033  0.00  0.00    -0.023 NA
ATOM      8  C   UNL     1      34.637 -16.810 -23.483  0.00  0.00    +0.161 A 
BRANCH   4   9
ATOM      9  C   UNL     1      35.135 -18.662 -21.804  0.00  0.00    +0.108 C 
ATOM     10  C   UNL     1      36.665 -18.814 -21.752  0.00  0.00    +0.024 C 
ATOM     11  C   UNL     1      34.423 -19.986 -21.475  0.00  0.00    +0.024 C 
ATOM     12  C   UNL     1      37.121 -19.389 -20.412  0.00  0.00    +0.002 C 
ATOM     13  C   UNL     1      34.894 -20.551 -20.137  0.00  0.00    +0.002 C 
ATOM     14  C   UNL     1      36.413 -20.703 -20.092  0.00  0.00    +0.000 C 
ENDBRANCH   4   9
ENDBRANCH   3   8
ENDBRANCH   2   3
ENDBRANCH   1   2
BRANCH   1  15
ATOM     15  C   UNL     1      32.501 -14.154 -20.257  0.00  0.00    +0.205 C 
BRANCH  15  16
ATOM     16  O   UNL     1      31.857 -13.355 -21.247  0.00  0.00    -0.475 OA
BRANCH  16  23
ATOM     17  O   UNL     1      31.669  -5.716 -21.247  0.00  0.00    -0.275 OA
ATOM     18  N   UNL     1      31.783  -7.860 -20.433  0.00  0.00    -0.284 N 
ATOM     19  C   UNL     1      31.811  -9.760 -21.951  0.00  0.00    -0.005 C 
ATOM     20  C   UNL     1      31.899  -8.809 -23.110  0.00  0.00    +0.037 C 
ATOM     21  C   UNL     1      31.796  -9.251 -20.646  0.00  0.00    +0.046 C 
ATOM     22  C   UNL     1      31.205  -7.494 -22.787  0.00  0.00    +0.090 C 
ATOM     23  C   UNL     1      31.853 -12.008 -21.050  0.00  0.00    +0.138 C 
ATOM     24  C   UNL     1      31.847 -11.144 -22.147  0.00  0.00    +0.034 C 
ATOM     25  C   UNL     1      31.605  -6.930 -21.438  0.00  0.00    +0.226 C 
ATOM     26  C   UNL     1      31.823 -10.114 -19.548  0.00  0.00    +0.017 C 
ATOM     27  C   UNL     1      31.844 -11.494 -19.754  0.00  0.00    +0.038 C 
ATOM     28  H   UNL     1      31.909  -7.531 -19.513  0.00  0.00    +0.155 HD
ENDBRANCH  16  23
ENDBRANCH  15  16
ENDBRANCH   1  15
TORSDOF 7
ENDMDL
MODEL 5
REMARK VINA RESULT:     -11.1      2.540      9.443
REMARK  Name = 2754
REMARK  7 active torsions:
REMARK  status: ('A' for Active; 'I' for Inactive)
REMARK    1  A    between atoms: C_1  and  C_2
REMARK    2  A    between atoms: C_1  and  C_15
REMARK    3  A    between atoms: C_2  and  C_3
REMARK    4  A    between atoms: C_3  and  C_8
REMARK    5  A    between atoms: N_4  and  C_9
REMARK    6  A    between atoms: C_15  and  O_16
REMARK    7  A    between atoms: O_16  and  C_23
REMARK                            x       y       z     vdW  Elec       q    Type
REMARK                         _______ _______ _______ _____ _____    ______ ____
ROOT
ATOM      1  C   UNL     1      36.264 -22.513 -16.301  0.00  0.00    +0.048 C 
ENDROOT
BRANCH   1   2
ATOM      2  C   UNL     1      36.819 -23.533 -15.307  0.00  0.00    +0.012 C 
BRANCH   2   3
ATOM      3  C   UNL     1      35.779 -24.605 -14.973  0.00  0.00    +0.068 C 
BRANCH   3   8
ATOM      4  N   UNL     1      34.069 -24.526 -13.156  0.00  0.00    -0.219 N 
ATOM      5  N   UNL     1      34.012 -24.457 -11.819  0.00  0.00    -0.043 NA
ATOM      6  N   UNL     1      36.135 -24.471 -12.499  0.00  0.00    -0.113 NA
ATOM      7  N   UNL     1      35.278 -24.425 -11.422  0.00  0.00    -0.023 NA
ATOM      8  C   UNL     1      35.356 -24.532 -13.527  0.00  0.00    +0.161 A 
BRANCH   4   9
ATOM      9  C   UNL     1      32.845 -24.580 -13.965  0.00  0.00    +0.108 C 
ATOM     10  C   UNL     1      32.337 -23.180 -14.350  0.00  0.00    +0.024 C 
ATOM     11  C   UNL     1      31.741 -25.419 -13.297  0.00  0.00    +0.024 C 
ATOM     12  C   UNL     1      31.081 -23.264 -15.217  0.00  0.00    +0.002 C 
ATOM     13  C   UNL     1      30.491 -25.487 -14.171  0.00  0.00    +0.002 C 
ATOM     14  C   UNL     1      29.989 -24.095 -14.548  0.00  0.00    +0.000 C 
ENDBRANCH   4   9
ENDBRANCH   3   8
ENDBRANCH   2   3
ENDBRANCH   1   2
BRANCH   1  15
ATOM     15  C   UNL     1      34.872 -22.897 -16.780  0.00  0.00    +0.205 C 
BRANCH  15  16
ATOM     16  O   UNL     1      34.919 -23.144 -18.184  0.00  0.00    -0.475 OA
BRANCH  16  23
ATOM     17  O   UNL     1      35.349 -17.128 -22.875  0.00  0.00    -0.275 OA
ATOM     18  N   UNL     1      34.413 -18.782 -21.587  0.00  0.00    -0.284 N 
ATOM     19  C   UNL     1      35.819 -20.284 -20.291  0.00  0.00    -0.005 C 
ATOM     20  C   UNL     1      37.017 -19.466 -20.676  0.00  0.00    +0.037 C 
ATOM     21  C   UNL     1      34.548 -19.890 -20.730  0.00  0.00    +0.046 C 
ATOM     22  C   UNL     1      36.821 -18.826 -22.042  0.00  0.00    +0.090 C 
ATOM     23  C   UNL     1      34.797 -22.066 -19.007  0.00  0.00    +0.138 C 
ATOM     24  C   UNL     1      35.935 -21.373 -19.421  0.00  0.00    +0.034 C 
ATOM     25  C   UNL     1      35.478 -18.139 -22.187  0.00  0.00    +0.226 C 
ATOM     26  C   UNL     1      33.407 -20.569 -20.300  0.00  0.00    +0.017 C 
ATOM     27  C   UNL     1      33.535 -21.663 -19.443  0.00  0.00    +0.038 C 
ATOM     28  H   UNL     1      33.505 -18.446 -21.769  0.00  0.00    +0.155 HD
ENDBRANCH  16  23
ENDBRANCH  15  16
ENDBRANCH   1  15
TORSDOF 7
ENDMDL
MODEL 6
REMARK VINA RESULT:     -11.0      6.712     12.297
REMARK  Name = 2754
REMARK  7 active torsions:
REMARK  status: ('A' for Active; 'I' for Inactive)
REMARK    1  A    between atoms: C_1  and  C_2
REMARK    2  A    between atoms: C_1  and  C_15
REMARK    3  A    between atoms: C_2  and  C_3
REMARK    4  A    between atoms: C_3  and  C_8
REMARK    5  A    between atoms: N_4  and  C_9
REMARK    6  A    between atoms: C_15  and  O_16
REMARK    7  A    between atoms: O_16  and  C_23
REMARK                            x       y       z     vdW  Elec       q    Type
REMARK                         _______ _______ _______ _____ _____    ______ ____
ROOT
ATOM      1  C   UNL     1      33.867 -14.194 -20.812  0.00  0.00    +0.048 C 
ENDROOT
BRANCH   1   2
ATOM      2  C   UNL     1      33.833 -14.740 -22.238  0.00  0.00    +0.012 C 
BRANCH   2   3
ATOM      3  C   UNL     1      35.015 -15.676 -22.502  0.00  0.00    +0.068 C 
BRANCH   3   8
ATOM      4  N   UNL     1      34.704 -18.094 -23.037  0.00  0.00    -0.219 N 
ATOM      5  N   UNL     1      34.294 -18.863 -24.055  0.00  0.00    -0.043 NA
ATOM      6  N   UNL     1      34.189 -16.710 -24.626  0.00  0.00    -0.113 NA
ATOM      7  N   UNL     1      33.980 -18.012 -25.024  0.00  0.00    -0.023 NA
ATOM      8  C   UNL     1      34.627 -16.812 -23.416  0.00  0.00    +0.161 A 
BRANCH   4   9
ATOM      9  C   UNL     1      35.140 -18.687 -21.767  0.00  0.00    +0.108 C 
ATOM     10  C   UNL     1      36.668 -18.853 -21.694  0.00  0.00    +0.024 C 
ATOM     11  C   UNL     1      34.412 -20.007 -21.460  0.00  0.00    +0.024 C 
ATOM     12  C   UNL     1      37.099 -19.443 -20.352  0.00  0.00    +0.002 C 
ATOM     13  C   UNL     1      34.858 -20.588 -20.120  0.00  0.00    +0.002 C 
ATOM     14  C   UNL     1      36.375 -20.753 -20.054  0.00  0.00    +0.000 C 
ENDBRANCH   4   9
ENDBRANCH   3   8
ENDBRANCH   2   3
ENDBRANCH   1   2
BRANCH   1  15
ATOM     15  C   UNL     1      32.476 -13.821 -20.320  0.00  0.00    +0.205 C 
BRANCH  15  16
ATOM     16  O   UNL     1      31.758 -13.206 -21.388  0.00  0.00    -0.475 OA
BRANCH  16  23
ATOM     17  O   UNL     1      32.668  -5.621 -21.254  0.00  0.00    -0.275 OA
ATOM     18  N   UNL     1      32.537  -7.752 -22.099  0.00  0.00    -0.284 N 
ATOM     19  C   UNL     1      31.986  -9.625 -20.649  0.00  0.00    -0.005 C 
ATOM     20  C   UNL     1      31.731  -8.659 -19.528  0.00  0.00    +0.037 C 
ATOM     21  C   UNL     1      32.344  -9.133 -21.911  0.00  0.00    +0.046 C 
ATOM     22  C   UNL     1      32.601  -7.420 -19.671  0.00  0.00    +0.090 C 
ATOM     23  C   UNL     1      31.934 -11.868 -21.563  0.00  0.00    +0.138 C 
ATOM     24  C   UNL     1      31.776 -10.998 -20.483  0.00  0.00    +0.034 C 
ATOM     25  C   UNL     1      32.571  -6.833 -21.068  0.00  0.00    +0.226 C 
ATOM     26  C   UNL     1      32.483 -10.000 -22.997  0.00  0.00    +0.017 C 
ATOM     27  C   UNL     1      32.285 -11.369 -22.818  0.00  0.00    +0.038 C 
ATOM     28  H   UNL     1      32.653  -7.422 -23.019  0.00  0.00    +0.155 HD
ENDBRANCH  16  23
ENDBRANCH  15  16
ENDBRANCH   1  15
TORSDOF 7
ENDMDL
MODEL 7
REMARK VINA RESULT:     -11.0      7.268     11.630
REMARK  Name = 2754
REMARK  7 active torsions:
REMARK  status: ('A' for Active; 'I' for Inactive)
REMARK    1  A    between atoms: C_1  and  C_2
REMARK    2  A    between atoms: C_1  and  C_15
REMARK    3  A    between atoms: C_2  and  C_3
REMARK    4  A    between atoms: C_3  and  C_8
REMARK    5  A    between atoms: N_4  and  C_9
REMARK    6  A    between atoms: C_15  and  O_16
REMARK    7  A    between atoms: O_16  and  C_23
REMARK                            x       y       z     vdW  Elec       q    Type
REMARK                         _______ _______ _______ _____ _____    ______ ____
ROOT
ATOM      1  C   UNL     1      32.951 -11.167 -23.621  0.00  0.00    +0.048 C 
ENDROOT
BRANCH   1   2
ATOM      2  C   UNL     1      32.132 -11.256 -22.334  0.00  0.00    +0.012 C 
BRANCH   2   3
ATOM      3  C   UNL     1      31.330  -9.973 -22.097  0.00  0.00    +0.068 C 
BRANCH   3   8
ATOM      4  N   UNL     1      32.793  -8.101 -21.335  0.00  0.00    -0.219 N 
ATOM      5  N   UNL     1      33.193  -7.527 -20.191  0.00  0.00    -0.043 NA
ATOM      6  N   UNL     1      31.812  -9.222 -19.759  0.00  0.00    -0.113 NA
ATOM      7  N   UNL     1      32.589  -8.216 -19.231  0.00  0.00    -0.023 NA
ATOM      8  C   UNL     1      31.967  -9.112 -21.036  0.00  0.00    +0.161 A 
BRANCH   4   9
ATOM      9  C   UNL     1      33.259  -7.604 -22.635  0.00  0.00    +0.108 C 
ATOM     10  C   UNL     1      34.692  -8.063 -22.956  0.00  0.00    +0.024 C 
ATOM     11  C   UNL     1      33.112  -6.078 -22.763  0.00  0.00    +0.024 C 
ATOM     12  C   UNL     1      35.143  -7.560 -24.327  0.00  0.00    +0.002 C 
ATOM     13  C   UNL     1      33.573  -5.589 -24.135  0.00  0.00    +0.002 C 
ATOM     14  C   UNL     1      34.996  -6.046 -24.447  0.00  0.00    +0.000 C 
ENDBRANCH   4   9
ENDBRANCH   3   8
ENDBRANCH   2   3
ENDBRANCH   1   2
BRANCH   1  15
ATOM     15  C   UNL     1      34.168 -12.079 -23.575  0.00  0.00    +0.205 C 
BRANCH  15  16
ATOM     16  O   UNL     1      33.776 -13.392 -23.970  0.00  0.00    -0.475 OA
BRANCH  16  23
ATOM     17  O   UNL     1      36.037 -19.722 -20.336  0.00  0.00    -0.275 OA
ATOM     18  N   UNL     1      35.322 -17.561 -20.640  0.00  0.00    -0.284 N 
ATOM     19  C   UNL     1      34.818 -16.728 -22.868  0.00  0.00    -0.005 C 
ATOM     20  C   UNL     1      35.023 -18.112 -23.413  0.00  0.00    +0.037 C 
ATOM     21  C   UNL     1      34.937 -16.508 -21.490  0.00  0.00    +0.046 C 
ATOM     22  C   UNL     1      36.039 -18.878 -22.580  0.00  0.00    +0.090 C 
ATOM     23  C   UNL     1      34.141 -14.419 -23.154  0.00  0.00    +0.138 C 
ATOM     24  C   UNL     1      34.411 -15.677 -23.697  0.00  0.00    +0.034 C 
ATOM     25  C   UNL     1      35.773 -18.786 -21.090  0.00  0.00    +0.226 C 
ATOM     26  C   UNL     1      34.648 -15.256 -20.944  0.00  0.00    +0.017 C 
ATOM     27  C   UNL     1      34.257 -14.210 -21.781  0.00  0.00    +0.038 C 
ATOM     28  H   UNL     1      35.267 -17.416 -19.668  0.00  0.00    +0.155 HD
ENDBRANCH  16  23
ENDBRANCH  15  16
ENDBRANCH   1  15
TORSDOF 7
ENDMDL
MODEL 8
REMARK VINA RESULT:     -11.0      3.680      5.837
REMARK  Name = 2754
REMARK  7 active torsions:
REMARK  status: ('A' for Active; 'I' for Inactive)
REMARK    1  A    between atoms: C_1  and  C_2
REMARK    2  A    between atoms: C_1  and  C_15
REMARK    3  A    between atoms: C_2  and  C_3
REMARK    4  A    between atoms: C_3  and  C_8
REMARK    5  A    between atoms: N_4  and  C_9
REMARK    6  A    between atoms: C_15  and  O_16
REMARK    7  A    between atoms: O_16  and  C_23
REMARK                            x       y       z     vdW  Elec       q    Type
REMARK                         _______ _______ _______ _____ _____    ______ ____
ROOT
ATOM      1  C   UNL     1      35.382 -17.865 -21.134  0.00  0.00    +0.048 C 
ENDROOT
BRANCH   1   2
ATOM      2  C   UNL     1      35.018 -17.421 -22.550  0.00  0.00    +0.012 C 
BRANCH   2   3
ATOM      3  C   UNL     1      35.015 -15.894 -22.669  0.00  0.00    +0.068 C 
BRANCH   3   8
ATOM      4  N   UNL     1      33.611 -14.304 -23.984  0.00  0.00    -0.219 N 
ATOM      5  N   UNL     1      33.119 -14.172 -25.224  0.00  0.00    -0.043 NA
ATOM      6  N   UNL     1      34.309 -16.050 -25.065  0.00  0.00    -0.113 NA
ATOM      7  N   UNL     1      33.549 -15.242 -25.881  0.00  0.00    -0.023 NA
ATOM      8  C   UNL     1      34.318 -15.440 -23.928  0.00  0.00    +0.161 A 
BRANCH   4   9
ATOM      9  C   UNL     1      33.345 -13.295 -22.952  0.00  0.00    +0.108 C 
ATOM     10  C   UNL     1      32.346 -13.794 -21.893  0.00  0.00    +0.024 C 
ATOM     11  C   UNL     1      32.908 -11.948 -23.552  0.00  0.00    +0.024 C 
ATOM     12  C   UNL     1      32.109 -12.739 -20.813  0.00  0.00    +0.002 C 
ATOM     13  C   UNL     1      32.668 -10.906 -22.461  0.00  0.00    +0.002 C 
ATOM     14  C   UNL     1      31.674 -11.405 -21.414  0.00  0.00    +0.000 C 
ENDBRANCH   4   9
ENDBRANCH   3   8
ENDBRANCH   2   3
ENDBRANCH   1   2
BRANCH   1  15
ATOM     15  C   UNL     1      36.115 -19.198 -21.135  0.00  0.00    +0.205 C 
BRANCH  15  16
ATOM     16  O   UNL     1      35.156 -20.252 -21.218  0.00  0.00    -0.475 OA
BRANCH  16  23
ATOM     17  O   UNL     1      35.074 -24.123 -14.631  0.00  0.00    -0.275 OA
ATOM     18  N   UNL     1      34.319 -23.244 -16.613  0.00  0.00    -0.284 N 
ATOM     19  C   UNL     1      35.813 -21.974 -18.051  0.00  0.00    -0.005 C 
ATOM     20  C   UNL     1      36.956 -22.324 -17.143  0.00  0.00    +0.037 C 
ATOM     21  C   UNL     1      34.536 -22.480 -17.775  0.00  0.00    +0.046 C 
ATOM     22  C   UNL     1      36.475 -22.506 -15.711  0.00  0.00    +0.090 C 
ATOM     23  C   UNL     1      34.957 -20.997 -20.096  0.00  0.00    +0.138 C 
ATOM     24  C   UNL     1      36.018 -21.236 -19.221  0.00  0.00    +0.034 C 
ATOM     25  C   UNL     1      35.252 -23.394 -15.606  0.00  0.00    +0.226 C 
ATOM     26  C   UNL     1      33.478 -22.259 -18.659  0.00  0.00    +0.017 C 
ATOM     27  C   UNL     1      33.691 -21.509 -19.817  0.00  0.00    +0.038 C 
ATOM     28  H   UNL     1      33.451 -23.699 -16.514  0.00  0.00    +0.155 HD
ENDBRANCH  16  23
ENDBRANCH  15  16
ENDBRANCH   1  15
TORSDOF 7
ENDMDL
MODEL 9
REMARK VINA RESULT:     -11.0      4.062     10.467
REMARK  Name = 2754
REMARK  7 active torsions:
REMARK  status: ('A' for Active; 'I' for Inactive)
REMARK    1  A    between atoms: C_1  and  C_2
REMARK    2  A    between atoms: C_1  and  C_15
REMARK    3  A    between atoms: C_2  and  C_3
REMARK    4  A    between atoms: C_3  and  C_8
REMARK    5  A    between atoms: N_4  and  C_9
REMARK    6  A    between atoms: C_15  and  O_16
REMARK    7  A    between atoms: O_16  and  C_23
REMARK                            x       y       z     vdW  Elec       q    Type
REMARK                         _______ _______ _______ _____ _____    ______ ____
ROOT
ATOM      1  C   UNL     1      34.505 -21.437 -19.416  0.00  0.00    +0.048 C 
ENDROOT
BRANCH   1   2
ATOM      2  C   UNL     1      34.527 -22.775 -18.678  0.00  0.00    +0.012 C 
BRANCH   2   3
ATOM      3  C   UNL     1      33.269 -22.959 -17.824  0.00  0.00    +0.068 C 
BRANCH   3   8
ATOM      4  N   UNL     1      32.684 -23.941 -15.606  0.00  0.00    -0.219 N 
ATOM      5  N   UNL     1      33.286 -24.288 -14.460  0.00  0.00    -0.043 NA
ATOM      6  N   UNL     1      34.778 -23.453 -15.890  0.00  0.00    -0.113 NA
ATOM      7  N   UNL     1      34.566 -23.988 -14.638  0.00  0.00    -0.023 NA
ATOM      8  C   UNL     1      33.609 -23.446 -16.438  0.00  0.00    +0.161 A 
BRANCH   4   9
ATOM      9  C   UNL     1      31.240 -24.129 -15.791  0.00  0.00    +0.108 C 
ATOM     10  C   UNL     1      30.512 -22.804 -16.077  0.00  0.00    +0.024 C 
ATOM     11  C   UNL     1      30.595 -24.887 -14.617  0.00  0.00    +0.024 C 
ATOM     12  C   UNL     1      29.016 -23.028 -16.296  0.00  0.00    +0.002 C 
ATOM     13  C   UNL     1      29.100 -25.097 -14.847  0.00  0.00    +0.002 C 
ATOM     14  C   UNL     1      28.382 -23.779 -15.128  0.00  0.00    +0.000 C 
ENDBRANCH   4   9
ENDBRANCH   3   8
ENDBRANCH   2   3
ENDBRANCH   1   2
BRANCH   1  15
ATOM     15  C   UNL     1      35.842 -21.141 -20.079  0.00  0.00    +0.205 C 
BRANCH  15  16
ATOM     16  O   UNL     1      36.010 -19.727 -20.167  0.00  0.00    -0.475 OA
BRANCH  16  23
ATOM     17  O   UNL     1      33.489 -15.309 -25.869  0.00  0.00    -0.275 OA
ATOM     18  N   UNL     1      33.997 -17.216 -24.695  0.00  0.00    -0.284 N 
ATOM     19  C   UNL     1      34.908 -17.077 -22.445  0.00  0.00    -0.005 C 
ATOM     20  C   UNL     1      34.696 -15.591 -22.470  0.00  0.00    +0.037 C 
ATOM     21  C   UNL     1      34.514 -17.846 -23.548  0.00  0.00    +0.046 C 
ATOM     22  C   UNL     1      34.813 -15.050 -23.887  0.00  0.00    +0.090 C 
ATOM     23  C   UNL     1      35.503 -19.110 -21.270  0.00  0.00    +0.138 C 
ATOM     24  C   UNL     1      35.397 -17.719 -21.303  0.00  0.00    +0.034 C 
ATOM     25  C   UNL     1      34.009 -15.849 -24.894  0.00  0.00    +0.226 C 
ATOM     26  C   UNL     1      34.600 -19.239 -23.509  0.00  0.00    +0.017 C 
ATOM     27  C   UNL     1      35.103 -19.869 -22.370  0.00  0.00    +0.038 C 
ATOM     28  H   UNL     1      33.604 -17.784 -25.397  0.00  0.00    +0.155 HD
ENDBRANCH  16  23
ENDBRANCH  15  16
ENDBRANCH   1  15
TORSDOF 7
ENDMDL
