MODEL 1
REMARK VINA RESULT:     -11.5      0.000      0.000
REMARK  Name = 449087
REMARK  3 active torsions:
REMARK  status: ('A' for Active; 'I' for Inactive)
REMARK    1  A    between atoms: C_5  and  C_11
REMARK    2  A    between atoms: C_8  and  C_14
REMARK    3  A    between atoms: C_14  and  C_15
REMARK                            x       y       z     vdW  Elec       q    Type
REMARK                         _______ _______ _______ _____ _____    ______ ____
ROOT
ATOM      1  O   UNL     1      34.948 -16.282 -20.928  0.00  0.00    -0.274 OA
ATOM      2  N   UNL     1      32.952 -12.899 -23.827  0.00  0.00    -0.239 N 
ATOM      3  N   UNL     1      33.537 -14.012 -24.300  0.00  0.00    -0.166 NA
ATOM      4  N   UNL     1      34.598 -15.852 -23.210  0.00  0.00    -0.268 N 
ATOM      5  C   UNL     1      32.969 -12.803 -22.466  0.00  0.00    +0.045 C 
ATOM      6  C   UNL     1      33.609 -13.933 -22.018  0.00  0.00    +0.048 C 
ATOM      7  C   UNL     1      33.928 -14.623 -23.190  0.00  0.00    +0.152 C 
ATOM      8  C   UNL     1      35.051 -16.580 -22.113  0.00  0.00    +0.232 C 
ATOM      9  H   UNL     1      32.549 -12.215 -24.408  0.00  0.00    +0.174 HD
ATOM     10  H   UNL     1      34.767 -16.246 -24.097  0.00  0.00    +0.156 HD
ENDROOT
BRANCH   5  11
ATOM     11  C   UNL     1      32.392 -11.673 -21.625  0.00  0.00    +0.037 C 
ATOM     12  C   UNL     1      30.909 -11.642 -21.352  0.00  0.00    +0.006 C 
ATOM     13  C   UNL     1      31.866 -11.977 -20.245  0.00  0.00    +0.006 C 
ENDBRANCH   5  11
BRANCH   8  14
ATOM     14  C   UNL     1      35.730 -17.871 -22.561  0.00  0.00    +0.112 C 
BRANCH  14  15
ATOM     15  C   UNL     1      35.721 -18.950 -21.530  0.00  0.00    -0.013 C 
ATOM     16  C   UNL     1      34.494 -20.582 -20.208  0.00  0.00    -0.000 C 
ATOM     17  C   UNL     1      34.520 -19.566 -21.177  0.00  0.00    -0.004 C 
ATOM     18  C   UNL     1      35.704 -20.982 -19.592  0.00  0.00    -0.000 C 
ATOM     19  C   UNL     1      36.910 -19.343 -20.924  0.00  0.00    -0.004 C 
ATOM     20  C   UNL     1      36.903 -20.352 -19.961  0.00  0.00    -0.000 C 
ATOM     21  C   UNL     1      33.294 -21.212 -19.839  0.00  0.00    -0.000 C 
ATOM     22  C   UNL     1      35.678 -22.000 -18.624  0.00  0.00    -0.000 C 
ATOM     23  C   UNL     1      33.287 -22.221 -18.875  0.00  0.00    -0.000 C 
ATOM     24  C   UNL     1      34.477 -22.614 -18.269  0.00  0.00    -0.000 C 
ENDBRANCH  14  15
ENDBRANCH   8  14
TORSDOF 3
ENDMDL
MODEL 2
REMARK VINA RESULT:     -11.5      1.359      2.310
REMARK  Name = 449087
REMARK  3 active torsions:
REMARK  status: ('A' for Active; 'I' for Inactive)
REMARK    1  A    between atoms: C_5  and  C_11
REMARK    2  A    between atoms: C_8  and  C_14
REMARK    3  A    between atoms: C_14  and  C_15
REMARK                            x       y       z     vdW  Elec       q    Type
REMARK                         _______ _______ _______ _____ _____    ______ ____
ROOT
ATOM      1  O   UNL     1      35.358 -16.780 -21.484  0.00  0.00    -0.274 OA
ATOM      2  N   UNL     1      33.234 -14.905 -25.460  0.00  0.00    -0.239 N 
ATOM      3  N   UNL     1      33.710 -16.161 -25.411  0.00  0.00    -0.166 NA
ATOM      4  N   UNL     1      34.787 -17.399 -23.677  0.00  0.00    -0.268 N 
ATOM      5  C   UNL     1      33.402 -14.206 -24.300  0.00  0.00    +0.045 C 
ATOM      6  C   UNL     1      34.028 -15.065 -23.431  0.00  0.00    +0.048 C 
ATOM      7  C   UNL     1      34.185 -16.237 -24.176  0.00  0.00    +0.152 C 
ATOM      8  C   UNL     1      35.318 -17.590 -22.404  0.00  0.00    +0.232 C 
ATOM      9  H   UNL     1      32.806 -14.523 -26.260  0.00  0.00    +0.174 HD
ATOM     10  H   UNL     1      34.841 -18.165 -24.294  0.00  0.00    +0.156 HD
ENDROOT
BRANCH   5  11
ATOM     11  C   UNL     1      32.975 -12.769 -24.033  0.00  0.00    +0.037 C 
ATOM     12  C   UNL     1      32.736 -12.325 -22.611  0.00  0.00    +0.006 C 
ATOM     13  C   UNL     1      33.940 -11.828 -23.356  0.00  0.00    +0.006 C 
ENDBRANCH   5  11
BRANCH   8  14
ATOM     14  C   UNL     1      35.881 -19.002 -22.257  0.00  0.00    +0.112 C 
BRANCH  14  15
ATOM     15  C   UNL     1      35.150 -19.845 -21.267  0.00  0.00    -0.013 C 
ATOM     16  C   UNL     1      35.186 -21.353 -19.359  0.00  0.00    -0.000 C 
ATOM     17  C   UNL     1      35.859 -20.555 -20.298  0.00  0.00    -0.004 C 
ATOM     18  C   UNL     1      33.773 -21.430 -19.402  0.00  0.00    -0.000 C 
ATOM     19  C   UNL     1      33.761 -19.920 -21.309  0.00  0.00    -0.004 C 
ATOM     20  C   UNL     1      33.076 -20.707 -20.383  0.00  0.00    -0.000 C 
ATOM     21  C   UNL     1      35.884 -22.076 -18.378  0.00  0.00    -0.000 C 
ATOM     22  C   UNL     1      33.100 -22.228 -18.462  0.00  0.00    -0.000 C 
ATOM     23  C   UNL     1      35.199 -22.864 -17.452  0.00  0.00    -0.000 C 
ATOM     24  C   UNL     1      33.810 -22.940 -17.494  0.00  0.00    -0.000 C 
ENDBRANCH  14  15
ENDBRANCH   8  14
TORSDOF 3
ENDMDL
MODEL 3
REMARK VINA RESULT:     -11.2      2.155      7.881
REMARK  Name = 449087
REMARK  3 active torsions:
REMARK  status: ('A' for Active; 'I' for Inactive)
REMARK    1  A    between atoms: C_5  and  C_11
REMARK    2  A    between atoms: C_8  and  C_14
REMARK    3  A    between atoms: C_14  and  C_15
REMARK                            x       y       z     vdW  Elec       q    Type
REMARK                         _______ _______ _______ _____ _____    ______ ____
ROOT
ATOM      1  O   UNL     1      34.091 -18.683 -23.377  0.00  0.00    -0.274 OA
ATOM      2  N   UNL     1      36.766 -20.188 -19.580  0.00  0.00    -0.239 N 
ATOM      3  N   UNL     1      37.026 -19.053 -20.251  0.00  0.00    -0.166 NA
ATOM      4  N   UNL     1      35.959 -18.016 -22.118  0.00  0.00    -0.268 N 
ATOM      5  C   UNL     1      35.691 -20.877 -20.058  0.00  0.00    +0.045 C 
ATOM      6  C   UNL     1      35.212 -20.142 -21.114  0.00  0.00    +0.048 C 
ATOM      7  C   UNL     1      36.075 -19.044 -21.174  0.00  0.00    +0.152 C 
ATOM      8  C   UNL     1      35.005 -17.905 -23.126  0.00  0.00    +0.232 C 
ATOM      9  H   UNL     1      37.304 -20.494 -18.814  0.00  0.00    +0.174 HD
ATOM     10  H   UNL     1      36.625 -17.293 -22.063  0.00  0.00    +0.156 HD
ENDROOT
BRANCH   5  11
ATOM     11  C   UNL     1      35.139 -22.191 -19.521  0.00  0.00    +0.037 C 
ATOM     12  C   UNL     1      34.854 -22.321 -18.045  0.00  0.00    +0.006 C 
ATOM     13  C   UNL     1      33.717 -22.243 -19.022  0.00  0.00    +0.006 C 
ENDBRANCH   5  11
BRANCH   8  14
ATOM     14  C   UNL     1      35.224 -16.634 -23.942  0.00  0.00    +0.112 C 
BRANCH  14  15
ATOM     15  C   UNL     1      34.354 -15.493 -23.531  0.00  0.00    -0.013 C 
ATOM     16  C   UNL     1      33.331 -14.158 -21.774  0.00  0.00    -0.000 C 
ATOM     17  C   UNL     1      34.147 -15.227 -22.177  0.00  0.00    -0.004 C 
ATOM     18  C   UNL     1      32.718 -13.346 -22.757  0.00  0.00    -0.000 C 
ATOM     19  C   UNL     1      33.750 -14.695 -24.498  0.00  0.00    -0.004 C 
ATOM     20  C   UNL     1      32.938 -13.628 -24.115  0.00  0.00    -0.000 C 
ATOM     21  C   UNL     1      33.112 -13.876 -20.415  0.00  0.00    -0.000 C 
ATOM     22  C   UNL     1      31.902 -12.275 -22.353  0.00  0.00    -0.000 C 
ATOM     23  C   UNL     1      32.298 -12.809 -20.032  0.00  0.00    -0.000 C 
ATOM     24  C   UNL     1      31.695 -12.010 -20.999  0.00  0.00    -0.000 C 
ENDBRANCH  14  15
ENDBRANCH   8  14
TORSDOF 3
ENDMDL
MODEL 4
REMARK VINA RESULT:     -11.0      3.226      8.326
REMARK  Name = 449087
REMARK  3 active torsions:
REMARK  status: ('A' for Active; 'I' for Inactive)
REMARK    1  A    between atoms: C_5  and  C_11
REMARK    2  A    between atoms: C_8  and  C_14
REMARK    3  A    between atoms: C_14  and  C_15
REMARK                            x       y       z     vdW  Elec       q    Type
REMARK                         _______ _______ _______ _____ _____    ______ ____
ROOT
ATOM      1  O   UNL     1      33.967 -20.108 -21.520  0.00  0.00    -0.274 OA
ATOM      2  N   UNL     1      35.710 -22.507 -17.641  0.00  0.00    -0.239 N 
ATOM      3  N   UNL     1      36.451 -21.646 -18.360  0.00  0.00    -0.166 NA
ATOM      4  N   UNL     1      35.951 -20.317 -20.278  0.00  0.00    -0.268 N 
ATOM      5  C   UNL     1      34.432 -22.648 -18.096  0.00  0.00    +0.045 C 
ATOM      6  C   UNL     1      34.328 -21.820 -19.187  0.00  0.00    +0.048 C 
ATOM      7  C   UNL     1      35.596 -21.243 -19.289  0.00  0.00    +0.152 C 
ATOM      8  C   UNL     1      35.139 -19.825 -21.297  0.00  0.00    +0.232 C 
ATOM      9  H   UNL     1      36.058 -22.992 -16.859  0.00  0.00    +0.174 HD
ATOM     10  H   UNL     1      36.874 -19.976 -20.250  0.00  0.00    +0.156 HD
ENDROOT
BRANCH   5  11
ATOM     11  C   UNL     1      33.348 -23.540 -17.506  0.00  0.00    +0.037 C 
ATOM     12  C   UNL     1      33.131 -23.546 -16.013  0.00  0.00    +0.006 C 
ATOM     13  C   UNL     1      32.115 -22.905 -16.913  0.00  0.00    +0.006 C 
ENDBRANCH   5  11
BRANCH   8  14
ATOM     14  C   UNL     1      35.904 -18.830 -22.167  0.00  0.00    +0.112 C 
BRANCH  14  15
ATOM     15  C   UNL     1      35.304 -17.464 -22.195  0.00  0.00    -0.013 C 
ATOM     16  C   UNL     1      34.306 -15.633 -23.447  0.00  0.00    -0.000 C 
ATOM     17  C   UNL     1      34.873 -16.917 -23.404  0.00  0.00    -0.004 C 
ATOM     18  C   UNL     1      34.172 -14.894 -22.248  0.00  0.00    -0.000 C 
ATOM     19  C   UNL     1      35.172 -16.738 -21.015  0.00  0.00    -0.004 C 
ATOM     20  C   UNL     1      34.611 -15.461 -21.040  0.00  0.00    -0.000 C 
ATOM     21  C   UNL     1      33.868 -15.066 -24.656  0.00  0.00    -0.000 C 
ATOM     22  C   UNL     1      33.604 -13.610 -22.291  0.00  0.00    -0.000 C 
ATOM     23  C   UNL     1      33.307 -13.789 -24.680  0.00  0.00    -0.000 C 
ATOM     24  C   UNL     1      33.175 -13.062 -23.500  0.00  0.00    -0.000 C 
ENDBRANCH  14  15
ENDBRANCH   8  14
TORSDOF 3
ENDMDL
MODEL 5
REMARK VINA RESULT:     -10.9      1.848      2.801
REMARK  Name = 449087
REMARK  3 active torsions:
REMARK  status: ('A' for Active; 'I' for Inactive)
REMARK    1  A    between atoms: C_5  and  C_11
REMARK    2  A    between atoms: C_8  and  C_14
REMARK    3  A    between atoms: C_14  and  C_15
REMARK                            x       y       z     vdW  Elec       q    Type
REMARK                         _______ _______ _______ _____ _____    ______ ____
ROOT
ATOM      1  O   UNL     1      35.242 -17.914 -23.409  0.00  0.00    -0.274 OA
ATOM      2  N   UNL     1      33.992 -14.025 -20.735  0.00  0.00    -0.239 N 
ATOM      3  N   UNL     1      34.562 -15.121 -20.206  0.00  0.00    -0.166 NA
ATOM      4  N   UNL     1      35.297 -17.173 -21.180  0.00  0.00    -0.268 N 
ATOM      5  C   UNL     1      33.795 -14.101 -22.082  0.00  0.00    +0.045 C 
ATOM      6  C   UNL     1      34.271 -15.332 -22.463  0.00  0.00    +0.048 C 
ATOM      7  C   UNL     1      34.722 -15.899 -21.268  0.00  0.00    +0.152 C 
ATOM      8  C   UNL     1      35.513 -18.070 -22.223  0.00  0.00    +0.232 C 
ATOM      9  H   UNL     1      33.739 -13.239 -20.199  0.00  0.00    +0.174 HD
ATOM     10  H   UNL     1      35.580 -17.467 -20.284  0.00  0.00    +0.156 HD
ENDROOT
BRANCH   5  11
ATOM     11  C   UNL     1      33.177 -13.034 -22.975  0.00  0.00    +0.037 C 
ATOM     12  C   UNL     1      34.076 -12.030 -23.653  0.00  0.00    +0.006 C 
ATOM     13  C   UNL     1      33.402 -13.099 -24.464  0.00  0.00    +0.006 C 
ENDBRANCH   5  11
BRANCH   8  14
ATOM     14  C   UNL     1      36.165 -19.351 -21.710  0.00  0.00    +0.112 C 
BRANCH  14  15
ATOM     15  C   UNL     1      35.296 -20.151 -20.798  0.00  0.00    -0.013 C 
ATOM     16  C   UNL     1      35.061 -21.645 -18.894  0.00  0.00    -0.000 C 
ATOM     17  C   UNL     1      35.866 -20.888 -19.761  0.00  0.00    -0.004 C 
ATOM     18  C   UNL     1      33.658 -21.653 -19.082  0.00  0.00    -0.000 C 
ATOM     19  C   UNL     1      33.916 -20.158 -20.983  0.00  0.00    -0.004 C 
ATOM     20  C   UNL     1      33.102 -20.904 -20.131  0.00  0.00    -0.000 C 
ATOM     21  C   UNL     1      35.618 -22.394 -17.844  0.00  0.00    -0.000 C 
ATOM     22  C   UNL     1      32.853 -22.410 -18.214  0.00  0.00    -0.000 C 
ATOM     23  C   UNL     1      34.803 -23.141 -16.993  0.00  0.00    -0.000 C 
ATOM     24  C   UNL     1      33.423 -23.149 -17.177  0.00  0.00    -0.000 C 
ENDBRANCH  14  15
ENDBRANCH   8  14
TORSDOF 3
ENDMDL
MODEL 6
REMARK VINA RESULT:     -10.9      4.225      8.576
REMARK  Name = 449087
REMARK  3 active torsions:
REMARK  status: ('A' for Active; 'I' for Inactive)
REMARK    1  A    between atoms: C_5  and  C_11
REMARK    2  A    between atoms: C_8  and  C_14
REMARK    3  A    between atoms: C_14  and  C_15
REMARK                            x       y       z     vdW  Elec       q    Type
REMARK                         _______ _______ _______ _____ _____    ______ ____
ROOT
ATOM      1  O   UNL     1      33.538 -20.946 -19.956  0.00  0.00    -0.274 OA
ATOM      2  N   UNL     1      33.993 -23.882 -16.082  0.00  0.00    -0.239 N 
ATOM      3  N   UNL     1      35.048 -23.376 -16.742  0.00  0.00    -0.166 NA
ATOM      4  N   UNL     1      35.212 -21.936 -18.638  0.00  0.00    -0.268 N 
ATOM      5  C   UNL     1      32.788 -23.501 -16.595  0.00  0.00    +0.045 C 
ATOM      6  C   UNL     1      33.074 -22.688 -17.663  0.00  0.00    +0.048 C 
ATOM      7  C   UNL     1      34.471 -22.657 -17.694  0.00  0.00    +0.152 C 
ATOM      8  C   UNL     1      34.714 -21.151 -19.675  0.00  0.00    +0.232 C 
ATOM      9  H   UNL     1      34.081 -24.475 -15.301  0.00  0.00    +0.174 HD
ATOM     10  H   UNL     1      36.192 -21.988 -18.559  0.00  0.00    +0.156 HD
ENDROOT
BRANCH   5  11
ATOM     11  C   UNL     1      31.411 -23.899 -16.080  0.00  0.00    +0.037 C 
ATOM     12  C   UNL     1      30.866 -23.227 -14.844  0.00  0.00    +0.006 C 
ATOM     13  C   UNL     1      30.273 -22.916 -16.188  0.00  0.00    +0.006 C 
ENDBRANCH   5  11
BRANCH   8  14
ATOM     14  C   UNL     1      35.853 -20.530 -20.480  0.00  0.00    +0.112 C 
BRANCH  14  15
ATOM     15  C   UNL     1      35.398 -19.585 -21.542  0.00  0.00    -0.013 C 
ATOM     16  C   UNL     1      34.997 -17.308 -22.296  0.00  0.00    -0.000 C 
ATOM     17  C   UNL     1      35.422 -18.210 -21.307  0.00  0.00    -0.004 C 
ATOM     18  C   UNL     1      34.544 -17.807 -23.541  0.00  0.00    -0.000 C 
ATOM     19  C   UNL     1      34.953 -20.076 -22.765  0.00  0.00    -0.004 C 
ATOM     20  C   UNL     1      34.528 -19.194 -23.759  0.00  0.00    -0.000 C 
ATOM     21  C   UNL     1      35.013 -15.920 -22.077  0.00  0.00    -0.000 C 
ATOM     22  C   UNL     1      34.120 -16.904 -24.530  0.00  0.00    -0.000 C 
ATOM     23  C   UNL     1      34.588 -15.038 -23.071  0.00  0.00    -0.000 C 
ATOM     24  C   UNL     1      34.142 -15.529 -24.295  0.00  0.00    -0.000 C 
ENDBRANCH  14  15
ENDBRANCH   8  14
TORSDOF 3
ENDMDL
MODEL 7
REMARK VINA RESULT:     -10.7      6.190     10.368
REMARK  Name = 449087
REMARK  3 active torsions:
REMARK  status: ('A' for Active; 'I' for Inactive)
REMARK    1  A    between atoms: C_5  and  C_11
REMARK    2  A    between atoms: C_8  and  C_14
REMARK    3  A    between atoms: C_14  and  C_15
REMARK                            x       y       z     vdW  Elec       q    Type
REMARK                         _______ _______ _______ _____ _____    ______ ____
ROOT
ATOM      1  O   UNL     1      35.552 -22.827 -16.595  0.00  0.00    -0.274 OA
ATOM      2  N   UNL     1      34.099 -24.844 -12.393  0.00  0.00    -0.239 N 
ATOM      3  N   UNL     1      33.363 -24.890 -13.516  0.00  0.00    -0.166 NA
ATOM      4  N   UNL     1      33.740 -24.035 -15.713  0.00  0.00    -0.268 N 
ATOM      5  C   UNL     1      35.283 -24.183 -12.536  0.00  0.00    +0.045 C 
ATOM      6  C   UNL     1      35.327 -23.769 -13.844  0.00  0.00    +0.048 C 
ATOM      7  C   UNL     1      34.124 -24.234 -14.382  0.00  0.00    +0.152 C 
ATOM      8  C   UNL     1      34.456 -23.366 -16.703  0.00  0.00    +0.232 C 
ATOM      9  H   UNL     1      33.809 -25.250 -11.544  0.00  0.00    +0.174 HD
ATOM     10  H   UNL     1      32.869 -24.410 -15.980  0.00  0.00    +0.156 HD
ENDROOT
BRANCH   5  11
ATOM     11  C   UNL     1      36.337 -23.959 -11.460  0.00  0.00    +0.037 C 
ATOM     12  C   UNL     1      37.693 -24.602 -11.612  0.00  0.00    +0.006 C 
ATOM     13  C   UNL     1      37.547 -23.117 -11.779  0.00  0.00    +0.006 C 
ENDBRANCH   5  11
BRANCH   8  14
ATOM     14  C   UNL     1      33.690 -23.372 -18.024  0.00  0.00    +0.112 C 
BRANCH  14  15
ATOM     15  C   UNL     1      34.007 -22.216 -18.913  0.00  0.00    -0.013 C 
ATOM     16  C   UNL     1      35.646 -20.732 -19.926  0.00  0.00    -0.000 C 
ATOM     17  C   UNL     1      35.332 -21.818 -19.093  0.00  0.00    -0.004 C 
ATOM     18  C   UNL     1      34.603 -20.042 -20.587  0.00  0.00    -0.000 C 
ATOM     19  C   UNL     1      32.981 -21.537 -19.563  0.00  0.00    -0.004 C 
ATOM     20  C   UNL     1      33.275 -20.457 -20.395  0.00  0.00    -0.000 C 
ATOM     21  C   UNL     1      36.974 -20.317 -20.118  0.00  0.00    -0.000 C 
ATOM     22  C   UNL     1      34.918 -18.956 -21.421  0.00  0.00    -0.000 C 
ATOM     23  C   UNL     1      37.269 -19.236 -20.950  0.00  0.00    -0.000 C 
ATOM     24  C   UNL     1      36.243 -18.557 -21.600  0.00  0.00    -0.000 C 
ENDBRANCH  14  15
ENDBRANCH   8  14
TORSDOF 3
ENDMDL
MODEL 8
REMARK VINA RESULT:     -10.4      4.744      8.565
REMARK  Name = 449087
REMARK  3 active torsions:
REMARK  status: ('A' for Active; 'I' for Inactive)
REMARK    1  A    between atoms: C_5  and  C_11
REMARK    2  A    between atoms: C_8  and  C_14
REMARK    3  A    between atoms: C_14  and  C_15
REMARK                            x       y       z     vdW  Elec       q    Type
REMARK                         _______ _______ _______ _____ _____    ______ ____
ROOT
ATOM      1  O   UNL     1      33.511 -21.471 -19.787  0.00  0.00    -0.274 OA
ATOM      2  N   UNL     1      33.618 -23.989 -15.605  0.00  0.00    -0.239 N 
ATOM      3  N   UNL     1      34.730 -23.599 -16.251  0.00  0.00    -0.166 NA
ATOM      4  N   UNL     1      35.063 -22.379 -18.275  0.00  0.00    -0.268 N 
ATOM      5  C   UNL     1      32.461 -23.617 -16.226  0.00  0.00    +0.045 C 
ATOM      6  C   UNL     1      32.843 -22.936 -17.355  0.00  0.00    +0.048 C 
ATOM      7  C   UNL     1      34.240 -22.964 -17.306  0.00  0.00    +0.152 C 
ATOM      8  C   UNL     1      34.659 -21.691 -19.417  0.00  0.00    +0.232 C 
ATOM      9  H   UNL     1      33.636 -24.496 -14.762  0.00  0.00    +0.174 HD
ATOM     10  H   UNL     1      36.034 -22.461 -18.134  0.00  0.00    +0.156 HD
ENDROOT
BRANCH   5  11
ATOM     11  C   UNL     1      31.042 -23.902 -15.754  0.00  0.00    +0.037 C 
ATOM     12  C   UNL     1      30.416 -23.000 -14.719  0.00  0.00    +0.006 C 
ATOM     13  C   UNL     1      29.934 -22.954 -16.140  0.00  0.00    +0.006 C 
ENDBRANCH   5  11
BRANCH   8  14
ATOM     14  C   UNL     1      35.867 -21.206 -20.214  0.00  0.00    +0.112 C 
BRANCH  14  15
ATOM     15  C   UNL     1      35.608 -19.975 -21.017  0.00  0.00    -0.013 C 
ATOM     16  C   UNL     1      34.640 -18.912 -22.979  0.00  0.00    -0.000 C 
ATOM     17  C   UNL     1      34.892 -20.061 -22.211  0.00  0.00    -0.004 C 
ATOM     18  C   UNL     1      35.119 -17.659 -22.528  0.00  0.00    -0.000 C 
ATOM     19  C   UNL     1      36.079 -18.743 -20.574  0.00  0.00    -0.004 C 
ATOM     20  C   UNL     1      35.837 -17.592 -21.323  0.00  0.00    -0.000 C 
ATOM     21  C   UNL     1      33.922 -18.979 -24.184  0.00  0.00    -0.000 C 
ATOM     22  C   UNL     1      34.866 -16.510 -23.296  0.00  0.00    -0.000 C 
ATOM     23  C   UNL     1      33.681 -17.828 -24.934  0.00  0.00    -0.000 C 
ATOM     24  C   UNL     1      34.152 -16.596 -24.491  0.00  0.00    -0.000 C 
ENDBRANCH  14  15
ENDBRANCH   8  14
TORSDOF 3
ENDMDL
MODEL 9
REMARK VINA RESULT:     -10.4      2.539      9.336
REMARK  Name = 449087
REMARK  3 active torsions:
REMARK  status: ('A' for Active; 'I' for Inactive)
REMARK    1  A    between atoms: C_5  and  C_11
REMARK    2  A    between atoms: C_8  and  C_14
REMARK    3  A    between atoms: C_14  and  C_15
REMARK                            x       y       z     vdW  Elec       q    Type
REMARK                         _______ _______ _______ _____ _____    ______ ____
ROOT
ATOM      1  O   UNL     1      34.446 -13.432 -22.609  0.00  0.00    -0.274 OA
ATOM      2  N   UNL     1      34.156 -17.869 -24.627  0.00  0.00    -0.239 N 
ATOM      3  N   UNL     1      33.561 -16.786 -25.156  0.00  0.00    -0.166 NA
ATOM      4  N   UNL     1      33.484 -14.502 -24.466  0.00  0.00    -0.268 N 
ATOM      5  C   UNL     1      34.844 -17.613 -23.477  0.00  0.00    +0.045 C 
ATOM      6  C   UNL     1      34.691 -16.269 -23.238  0.00  0.00    +0.048 C 
ATOM      7  C   UNL     1      33.897 -15.830 -24.301  0.00  0.00    +0.152 C 
ATOM      8  C   UNL     1      33.776 -13.423 -23.636  0.00  0.00    +0.232 C 
ATOM      9  H   UNL     1      34.100 -18.764 -25.031  0.00  0.00    +0.174 HD
ATOM     10  H   UNL     1      32.928 -14.310 -25.256  0.00  0.00    +0.156 HD
ENDROOT
BRANCH   5  11
ATOM     11  C   UNL     1      35.623 -18.617 -22.638  0.00  0.00    +0.037 C 
ATOM     12  C   UNL     1      35.363 -18.695 -21.154  0.00  0.00    +0.006 C 
ATOM     13  C   UNL     1      34.901 -19.805 -22.054  0.00  0.00    +0.006 C 
ENDBRANCH   5  11
BRANCH   8  14
ATOM     14  C   UNL     1      33.138 -12.142 -24.168  0.00  0.00    +0.112 C 
BRANCH  14  15
ATOM     15  C   UNL     1      32.784 -11.155 -23.105  0.00  0.00    -0.013 C 
ATOM     16  C   UNL     1      32.950  -8.912 -22.182  0.00  0.00    -0.000 C 
ATOM     17  C   UNL     1      33.274  -9.851 -23.174  0.00  0.00    -0.004 C 
ATOM     18  C   UNL     1      32.116  -9.299 -21.107  0.00  0.00    -0.000 C 
ATOM     19  C   UNL     1      31.963 -11.537 -22.048  0.00  0.00    -0.004 C 
ATOM     20  C   UNL     1      31.631 -10.616 -21.055  0.00  0.00    -0.000 C 
ATOM     21  C   UNL     1      33.436  -7.594 -22.234  0.00  0.00    -0.000 C 
ATOM     22  C   UNL     1      31.791  -8.359 -20.115  0.00  0.00    -0.000 C 
ATOM     23  C   UNL     1      33.104  -6.673 -21.240  0.00  0.00    -0.000 C 
ATOM     24  C   UNL     1      32.283  -7.055 -20.182  0.00  0.00    -0.000 C 
ENDBRANCH  14  15
ENDBRANCH   8  14
TORSDOF 3
ENDMDL
