MODEL 1
REMARK VINA RESULT:     -11.1      0.000      0.000
REMARK  Name = 447371
REMARK  8 active torsions:
REMARK  status: ('A' for Active; 'I' for Inactive)
REMARK    1  A    between atoms: N_3  and  C_14
REMARK    2  A    between atoms: N_4  and  C_18
REMARK    3  A    between atoms: C_11  and  C_26
REMARK    4  A    between atoms: C_14  and  C_15
REMARK    5  A    between atoms: C_15  and  C_16
REMARK    6  A    between atoms: C_18  and  C_20
REMARK    7  A    between atoms: C_26  and  C_27
REMARK    8  A    between atoms: C_32  and  N_34
REMARK                            x       y       z     vdW  Elec       q    Type
REMARK                         _______ _______ _______ _____ _____    ______ ____
ROOT
ATOM      1  O   UNL     1      31.810  -8.481 -21.301  0.00  0.00    -0.246 OA
ATOM      2  O   UNL     1      35.636  -9.248 -23.912  0.00  0.00    -0.265 OA
ATOM      3  N   UNL     1      32.088 -10.585 -22.252  0.00  0.00    -0.269 N 
ATOM      4  N   UNL     1      33.726  -8.836 -22.600  0.00  0.00    -0.243 N 
ATOM      5  N   UNL     1      34.561 -12.007 -24.285  0.00  0.00    -0.313 N 
ATOM      6  N   UNL     1      32.648 -12.702 -23.378  0.00  0.00    -0.304 N 
ATOM      7  C   UNL     1      32.892 -11.397 -23.043  0.00  0.00    +0.132 A 
ATOM      8  C   UNL     1      34.062 -10.945 -23.587  0.00  0.00    +0.133 A 
ATOM      9  C   UNL     1      32.484  -9.250 -21.997  0.00  0.00    +0.335 A 
ATOM     10  C   UNL     1      34.580  -9.627 -23.413  0.00  0.00    +0.280 A 
ATOM     11  C   UNL     1      33.675 -13.041 -24.129  0.00  0.00    +0.149 C 
ATOM     12  H   UNL     1      35.399 -12.027 -24.802  0.00  0.00    +0.148 HD
ATOM     13  H   UNL     1      31.879 -13.260 -23.117  0.00  0.00    +0.150 HD
ENDROOT
BRANCH   3  14
ATOM     14  C   UNL     1      30.849 -11.113 -21.694  0.00  0.00    +0.112 C 
BRANCH  14  15
ATOM     15  C   UNL     1      30.953 -11.379 -20.196  0.00  0.00    +0.025 C 
BRANCH  15  16
ATOM     16  C   UNL     1      32.195 -12.195 -19.829  0.00  0.00    +0.002 C 
ATOM     17  C   UNL     1      32.033 -13.656 -20.218  0.00  0.00    +0.000 C 
ENDBRANCH  15  16
ENDBRANCH  14  15
ENDBRANCH   3  14
BRANCH   4  18
ATOM     18  C   UNL     1      34.151  -7.463 -22.347  0.00  0.00    +0.143 C 
BRANCH  18  20
ATOM     19  F   UNL     1      35.917  -6.242 -24.186  0.00  0.00    -0.204 F 
ATOM     20  C   UNL     1      33.686  -6.525 -23.422  0.00  0.00    +0.028 C 
ATOM     21  C   UNL     1      34.610  -5.960 -24.294  0.00  0.00    +0.138 C 
ATOM     22  C   UNL     1      32.333  -6.229 -23.535  0.00  0.00    -0.000 C 
ATOM     23  C   UNL     1      34.175  -5.088 -25.292  0.00  0.00    +0.029 C 
ATOM     24  C   UNL     1      31.897  -5.358 -24.534  0.00  0.00    -0.000 C 
ATOM     25  C   UNL     1      32.818  -4.787 -25.412  0.00  0.00    +0.002 C 
ENDBRANCH  18  20
ENDBRANCH   4  18
BRANCH  11  26
ATOM     26  C   UNL     1      33.911 -14.354 -24.759  0.00  0.00    +0.067 C 
BRANCH  26  27
ATOM     27  C   UNL     1      34.361 -15.435 -23.786  0.00  0.00    -0.019 C 
ATOM     28  C   UNL     1      34.536 -16.721 -24.255  0.00  0.00    -0.003 C 
ATOM     29  C   UNL     1      34.577 -15.096 -22.466  0.00  0.00    -0.003 C 
ATOM     30  C   UNL     1      34.949 -17.711 -23.363  0.00  0.00    +0.014 C 
ATOM     31  C   UNL     1      34.989 -16.087 -21.575  0.00  0.00    +0.014 C 
ATOM     32  C   UNL     1      35.174 -17.395 -22.024  0.00  0.00    +0.050 C 
BRANCH  32  34
ATOM     33  O   UNL     1      37.876 -18.663 -21.620  0.00  0.00    -0.275 OA
ATOM     34  N   UNL     1      35.586 -18.386 -21.131  0.00  0.00    -0.284 N 
ATOM     35  C   UNL     1      36.863 -18.944 -20.987  0.00  0.00    +0.227 C 
ATOM     36  C   UNL     1      36.895 -19.993 -19.904  0.00  0.00    +0.095 C 
ATOM     37  H   UNL     1      34.892 -18.737 -20.529  0.00  0.00    +0.155 HD
ENDBRANCH  32  34
ENDBRANCH  26  27
ENDBRANCH  11  26
TORSDOF 8
ENDMDL
MODEL 2
REMARK VINA RESULT:      -9.8      7.350     14.605
REMARK  Name = 447371
REMARK  8 active torsions:
REMARK  status: ('A' for Active; 'I' for Inactive)
REMARK    1  A    between atoms: N_3  and  C_14
REMARK    2  A    between atoms: N_4  and  C_18
REMARK    3  A    between atoms: C_11  and  C_26
REMARK    4  A    between atoms: C_14  and  C_15
REMARK    5  A    between atoms: C_15  and  C_16
REMARK    6  A    between atoms: C_18  and  C_20
REMARK    7  A    between atoms: C_26  and  C_27
REMARK    8  A    between atoms: C_32  and  N_34
REMARK                            x       y       z     vdW  Elec       q    Type
REMARK                         _______ _______ _______ _____ _____    ______ ____
ROOT
ATOM      1  O   UNL     1      32.632 -23.933 -14.067  0.00  0.00    -0.246 OA
ATOM      2  O   UNL     1      37.069 -22.558 -14.752  0.00  0.00    -0.265 OA
ATOM      3  N   UNL     1      33.298 -23.408 -16.232  0.00  0.00    -0.269 N 
ATOM      4  N   UNL     1      34.850 -23.249 -14.380  0.00  0.00    -0.243 N 
ATOM      5  N   UNL     1      36.322 -22.327 -17.632  0.00  0.00    -0.313 N 
ATOM      6  N   UNL     1      34.283 -22.792 -18.403  0.00  0.00    -0.304 N 
ATOM      7  C   UNL     1      34.340 -22.984 -17.049  0.00  0.00    +0.132 A 
ATOM      8  C   UNL     1      35.582 -22.705 -16.549  0.00  0.00    +0.133 A 
ATOM      9  C   UNL     1      33.520 -23.558 -14.842  0.00  0.00    +0.335 A 
ATOM     10  C   UNL     1      35.945 -22.813 -15.173  0.00  0.00    +0.280 A 
ATOM     11  C   UNL     1      35.497 -22.395 -18.725  0.00  0.00    +0.149 C 
ATOM     12  H   UNL     1      37.269 -22.056 -17.629  0.00  0.00    +0.148 HD
ATOM     13  H   UNL     1      33.511 -22.922 -19.000  0.00  0.00    +0.150 HD
ENDROOT
BRANCH   3  14
ATOM     14  C   UNL     1      31.991 -23.693 -16.812  0.00  0.00    +0.112 C 
BRANCH  14  15
ATOM     15  C   UNL     1      30.878 -22.875 -16.167  0.00  0.00    +0.025 C 
BRANCH  15  16
ATOM     16  C   UNL     1      29.580 -23.670 -16.013  0.00  0.00    +0.002 C 
ATOM     17  C   UNL     1      28.477 -22.818 -15.402  0.00  0.00    +0.000 C 
ENDBRANCH  15  16
ENDBRANCH  14  15
ENDBRANCH   3  14
BRANCH   4  18
ATOM     18  C   UNL     1      35.098 -23.400 -12.950  0.00  0.00    +0.143 C 
BRANCH  18  20
ATOM     19  F   UNL     1      37.277 -22.736 -11.276  0.00  0.00    -0.204 F 
ATOM     20  C   UNL     1      36.231 -24.345 -12.674  0.00  0.00    +0.028 C 
ATOM     21  C   UNL     1      37.271 -23.953 -11.839  0.00  0.00    +0.138 C 
ATOM     22  C   UNL     1      36.228 -25.606 -13.257  0.00  0.00    -0.000 C 
ATOM     23  C   UNL     1      38.323 -24.833 -11.585  0.00  0.00    +0.029 C 
ATOM     24  C   UNL     1      37.279 -26.488 -13.003  0.00  0.00    -0.000 C 
ATOM     25  C   UNL     1      38.327 -26.101 -12.166  0.00  0.00    +0.002 C 
ENDBRANCH  18  20
ENDBRANCH   4  18
BRANCH  11  26
ATOM     26  C   UNL     1      35.983 -22.050 -20.074  0.00  0.00    +0.067 C 
BRANCH  26  27
ATOM     27  C   UNL     1      35.713 -20.607 -20.480  0.00  0.00    -0.019 C 
ATOM     28  C   UNL     1      36.783 -19.751 -20.641  0.00  0.00    -0.003 C 
ATOM     29  C   UNL     1      34.409 -20.202 -20.672  0.00  0.00    -0.003 C 
ATOM     30  C   UNL     1      36.535 -18.429 -21.013  0.00  0.00    +0.014 C 
ATOM     31  C   UNL     1      34.163 -18.881 -21.043  0.00  0.00    +0.014 C 
ATOM     32  C   UNL     1      35.226 -17.994 -21.214  0.00  0.00    +0.050 C 
BRANCH  32  34
ATOM     33  O   UNL     1      34.960 -16.746 -23.942  0.00  0.00    -0.275 OA
ATOM     34  N   UNL     1      34.979 -16.671 -21.585  0.00  0.00    -0.284 N 
ATOM     35  C   UNL     1      34.866 -16.143 -22.877  0.00  0.00    +0.227 C 
ATOM     36  C   UNL     1      34.594 -14.660 -22.852  0.00  0.00    +0.095 C 
ATOM     37  H   UNL     1      34.870 -16.031 -20.846  0.00  0.00    +0.155 HD
ENDBRANCH  32  34
ENDBRANCH  26  27
ENDBRANCH  11  26
TORSDOF 8
ENDMDL
MODEL 3
REMARK VINA RESULT:      -9.6      9.405     14.845
REMARK  Name = 447371
REMARK  8 active torsions:
REMARK  status: ('A' for Active; 'I' for Inactive)
REMARK    1  A    between atoms: N_3  and  C_14
REMARK    2  A    between atoms: N_4  and  C_18
REMARK    3  A    between atoms: C_11  and  C_26
REMARK    4  A    between atoms: C_14  and  C_15
REMARK    5  A    between atoms: C_15  and  C_16
REMARK    6  A    between atoms: C_18  and  C_20
REMARK    7  A    between atoms: C_26  and  C_27
REMARK    8  A    between atoms: C_32  and  N_34
REMARK                            x       y       z     vdW  Elec       q    Type
REMARK                         _______ _______ _______ _____ _____    ______ ____
ROOT
ATOM      1  O   UNL     1      33.915 -24.691 -12.344  0.00  0.00    -0.246 OA
ATOM      2  O   UNL     1      32.466 -24.150 -16.778  0.00  0.00    -0.265 OA
ATOM      3  N   UNL     1      35.332 -23.613 -13.840  0.00  0.00    -0.269 N 
ATOM      4  N   UNL     1      33.168 -24.435 -14.549  0.00  0.00    -0.243 N 
ATOM      5  N   UNL     1      35.084 -22.793 -17.237  0.00  0.00    -0.313 N 
ATOM      6  N   UNL     1      36.610 -22.516 -15.636  0.00  0.00    -0.304 N 
ATOM      7  C   UNL     1      35.512 -23.169 -15.145  0.00  0.00    +0.132 A 
ATOM      8  C   UNL     1      34.558 -23.352 -16.108  0.00  0.00    +0.133 A 
ATOM      9  C   UNL     1      34.130 -24.275 -13.489  0.00  0.00    +0.335 A 
ATOM     10  C   UNL     1      33.305 -24.000 -15.894  0.00  0.00    +0.280 A 
ATOM     11  C   UNL     1      36.320 -22.304 -16.903  0.00  0.00    +0.149 C 
ATOM     12  H   UNL     1      34.657 -22.750 -18.123  0.00  0.00    +0.148 HD
ATOM     13  H   UNL     1      37.430 -22.263 -15.153  0.00  0.00    +0.150 HD
ENDROOT
BRANCH   3  14
ATOM     14  C   UNL     1      36.378 -23.394 -12.849  0.00  0.00    +0.112 C 
BRANCH  14  15
ATOM     15  C   UNL     1      37.557 -24.343 -13.027  0.00  0.00    +0.025 C 
BRANCH  15  16
ATOM     16  C   UNL     1      37.282 -25.736 -12.455  0.00  0.00    +0.002 C 
ATOM     17  C   UNL     1      37.147 -26.772 -13.560  0.00  0.00    +0.000 C 
ENDBRANCH  15  16
ENDBRANCH  14  15
ENDBRANCH   3  14
BRANCH   4  18
ATOM     18  C   UNL     1      31.922 -25.114 -14.206  0.00  0.00    +0.143 C 
BRANCH  18  20
ATOM     19  F   UNL     1      29.806 -26.163 -15.759  0.00  0.00    -0.204 F 
ATOM     20  C   UNL     1      30.718 -24.306 -14.593  0.00  0.00    +0.028 C 
ATOM     21  C   UNL     1      29.713 -24.887 -15.359  0.00  0.00    +0.138 C 
ATOM     22  C   UNL     1      30.619 -22.983 -14.182  0.00  0.00    -0.000 C 
ATOM     23  C   UNL     1      28.595 -24.133 -15.718  0.00  0.00    +0.029 C 
ATOM     24  C   UNL     1      29.502 -22.229 -14.540  0.00  0.00    -0.000 C 
ATOM     25  C   UNL     1      28.489 -22.804 -15.308  0.00  0.00    +0.002 C 
ENDBRANCH  18  20
ENDBRANCH   4  18
BRANCH  11  26
ATOM     26  C   UNL     1      37.171 -21.627 -17.900  0.00  0.00    +0.067 C 
BRANCH  26  27
ATOM     27  C   UNL     1      36.399 -21.024 -19.066  0.00  0.00    -0.019 C 
ATOM     28  C   UNL     1      35.119 -21.473 -19.320  0.00  0.00    -0.003 C 
ATOM     29  C   UNL     1      37.003 -20.050 -19.833  0.00  0.00    -0.003 C 
ATOM     30  C   UNL     1      34.412 -20.920 -20.388  0.00  0.00    +0.014 C 
ATOM     31  C   UNL     1      36.296 -19.499 -20.901  0.00  0.00    +0.014 C 
ATOM     32  C   UNL     1      35.000 -19.934 -21.178  0.00  0.00    +0.050 C 
BRANCH  32  34
ATOM     33  O   UNL     1      35.159 -20.504 -24.132  0.00  0.00    -0.275 OA
ATOM     34  N   UNL     1      34.293 -19.382 -22.248  0.00  0.00    -0.284 N 
ATOM     35  C   UNL     1      34.409 -19.685 -23.610  0.00  0.00    +0.227 C 
ATOM     36  C   UNL     1      33.461 -18.863 -24.447  0.00  0.00    +0.095 C 
ATOM     37  H   UNL     1      33.630 -18.693 -22.014  0.00  0.00    +0.155 HD
ENDBRANCH  32  34
ENDBRANCH  26  27
ENDBRANCH  11  26
TORSDOF 8
ENDMDL
MODEL 4
REMARK VINA RESULT:      -9.6      3.281     10.002
REMARK  Name = 447371
REMARK  8 active torsions:
REMARK  status: ('A' for Active; 'I' for Inactive)
REMARK    1  A    between atoms: N_3  and  C_14
REMARK    2  A    between atoms: N_4  and  C_18
REMARK    3  A    between atoms: C_11  and  C_26
REMARK    4  A    between atoms: C_14  and  C_15
REMARK    5  A    between atoms: C_15  and  C_16
REMARK    6  A    between atoms: C_18  and  C_20
REMARK    7  A    between atoms: C_26  and  C_27
REMARK    8  A    between atoms: C_32  and  N_34
REMARK                            x       y       z     vdW  Elec       q    Type
REMARK                         _______ _______ _______ _____ _____    ______ ____
ROOT
ATOM      1  O   UNL     1      34.927 -16.701 -24.587  0.00  0.00    -0.246 OA
ATOM      2  O   UNL     1      35.186 -16.357 -19.912  0.00  0.00    -0.265 OA
ATOM      3  N   UNL     1      33.637 -15.079 -23.531  0.00  0.00    -0.269 N 
ATOM      4  N   UNL     1      35.074 -16.552 -22.255  0.00  0.00    -0.243 N 
ATOM      5  N   UNL     1      33.212 -14.134 -20.184  0.00  0.00    -0.313 N 
ATOM      6  N   UNL     1      32.395 -13.465 -22.147  0.00  0.00    -0.304 N 
ATOM      7  C   UNL     1      33.275 -14.499 -22.321  0.00  0.00    +0.132 A 
ATOM      8  C   UNL     1      33.793 -14.930 -21.131  0.00  0.00    +0.133 A 
ATOM      9  C   UNL     1      34.567 -16.147 -23.542  0.00  0.00    +0.335 A 
ATOM     10  C   UNL     1      34.736 -15.992 -20.994  0.00  0.00    +0.280 A 
ATOM     11  C   UNL     1      32.379 -13.269 -20.845  0.00  0.00    +0.149 C 
ATOM     12  H   UNL     1      33.363 -14.175 -19.212  0.00  0.00    +0.148 HD
ATOM     13  H   UNL     1      31.889 -12.979 -22.838  0.00  0.00    +0.150 HD
ENDROOT
BRANCH   3  14
ATOM     14  C   UNL     1      33.058 -14.585 -24.774  0.00  0.00    +0.112 C 
BRANCH  14  15
ATOM     15  C   UNL     1      33.810 -13.380 -25.328  0.00  0.00    +0.025 C 
BRANCH  15  16
ATOM     16  C   UNL     1      33.373 -12.066 -24.678  0.00  0.00    +0.002 C 
ATOM     17  C   UNL     1      34.504 -11.443 -23.873  0.00  0.00    +0.000 C 
ENDBRANCH  15  16
ENDBRANCH  14  15
ENDBRANCH   3  14
BRANCH   4  18
ATOM     18  C   UNL     1      36.035 -17.650 -22.246  0.00  0.00    +0.143 C 
BRANCH  18  20
ATOM     19  F   UNL     1      37.712 -19.216 -20.595  0.00  0.00    -0.204 F 
ATOM     20  C   UNL     1      35.535 -18.827 -21.459  0.00  0.00    +0.028 C 
ATOM     21  C   UNL     1      36.416 -19.553 -20.666  0.00  0.00    +0.138 C 
ATOM     22  C   UNL     1      34.193 -19.179 -21.532  0.00  0.00    -0.000 C 
ATOM     23  C   UNL     1      35.948 -20.646 -19.936  0.00  0.00    +0.029 C 
ATOM     24  C   UNL     1      33.724 -20.271 -20.802  0.00  0.00    -0.000 C 
ATOM     25  C   UNL     1      34.602 -21.006 -20.004  0.00  0.00    +0.002 C 
ENDBRANCH  18  20
ENDBRANCH   4  18
BRANCH  11  26
ATOM     26  C   UNL     1      31.588 -12.260 -20.115  0.00  0.00    +0.067 C 
BRANCH  26  27
ATOM     27  C   UNL     1      31.731 -10.847 -20.662  0.00  0.00    -0.019 C 
ATOM     28  C   UNL     1      31.372 -10.601 -21.972  0.00  0.00    -0.003 C 
ATOM     29  C   UNL     1      32.214  -9.857 -19.833  0.00  0.00    -0.003 C 
ATOM     30  C   UNL     1      31.503  -9.305 -22.472  0.00  0.00    +0.014 C 
ATOM     31  C   UNL     1      32.345  -8.562 -20.334  0.00  0.00    +0.014 C 
ATOM     32  C   UNL     1      31.989  -8.286 -21.654  0.00  0.00    +0.050 C 
BRANCH  32  34
ATOM     33  O   UNL     1      30.171  -5.899 -21.403  0.00  0.00    -0.275 OA
ATOM     34  N   UNL     1      32.120  -6.990 -22.156  0.00  0.00    -0.284 N 
ATOM     35  C   UNL     1      31.238  -5.913 -22.009  0.00  0.00    +0.227 C 
ATOM     36  C   UNL     1      31.746  -4.676 -22.706  0.00  0.00    +0.095 C 
ATOM     37  H   UNL     1      32.935  -6.812 -22.678  0.00  0.00    +0.155 HD
ENDBRANCH  32  34
ENDBRANCH  26  27
ENDBRANCH  11  26
TORSDOF 8
ENDMDL
MODEL 5
REMARK VINA RESULT:      -9.5      9.155     14.690
REMARK  Name = 447371
REMARK  8 active torsions:
REMARK  status: ('A' for Active; 'I' for Inactive)
REMARK    1  A    between atoms: N_3  and  C_14
REMARK    2  A    between atoms: N_4  and  C_18
REMARK    3  A    between atoms: C_11  and  C_26
REMARK    4  A    between atoms: C_14  and  C_15
REMARK    5  A    between atoms: C_15  and  C_16
REMARK    6  A    between atoms: C_18  and  C_20
REMARK    7  A    between atoms: C_26  and  C_27
REMARK    8  A    between atoms: C_32  and  N_34
REMARK                            x       y       z     vdW  Elec       q    Type
REMARK                         _______ _______ _______ _____ _____    ______ ____
ROOT
ATOM      1  O   UNL     1      33.264 -24.996 -12.693  0.00  0.00    -0.246 OA
ATOM      2  O   UNL     1      32.032 -24.113 -17.137  0.00  0.00    -0.265 OA
ATOM      3  N   UNL     1      34.789 -23.892 -14.058  0.00  0.00    -0.269 N 
ATOM      4  N   UNL     1      32.624 -24.569 -14.905  0.00  0.00    -0.243 N 
ATOM      5  N   UNL     1      34.724 -22.851 -17.402  0.00  0.00    -0.313 N 
ATOM      6  N   UNL     1      36.190 -22.745 -15.727  0.00  0.00    -0.304 N 
ATOM      7  C   UNL     1      35.044 -23.376 -15.323  0.00  0.00    +0.132 A 
ATOM      8  C   UNL     1      34.125 -23.455 -16.333  0.00  0.00    +0.133 A 
ATOM      9  C   UNL     1      33.546 -24.520 -13.798  0.00  0.00    +0.335 A 
ATOM     10  C   UNL     1      32.838 -24.058 -16.212  0.00  0.00    +0.280 A 
ATOM     11  C   UNL     1      35.964 -22.441 -16.988  0.00  0.00    +0.149 C 
ATOM     12  H   UNL     1      34.337 -22.733 -18.300  0.00  0.00    +0.148 HD
ATOM     13  H   UNL     1      36.997 -22.560 -15.195  0.00  0.00    +0.150 HD
ENDROOT
BRANCH   3  14
ATOM     14  C   UNL     1      35.800 -23.783 -13.013  0.00  0.00    +0.112 C 
BRANCH  14  15
ATOM     15  C   UNL     1      36.669 -25.032 -12.912  0.00  0.00    +0.025 C 
BRANCH  15  16
ATOM     16  C   UNL     1      38.126 -24.707 -12.574  0.00  0.00    +0.002 C 
ATOM     17  C   UNL     1      39.082 -25.679 -13.250  0.00  0.00    +0.000 C 
ENDBRANCH  15  16
ENDBRANCH  14  15
ENDBRANCH   3  14
BRANCH   4  18
ATOM     18  C   UNL     1      31.337 -25.211 -14.656  0.00  0.00    +0.143 C 
BRANCH  18  20
ATOM     19  F   UNL     1      30.985 -22.601 -13.630  0.00  0.00    -0.204 F 
ATOM     20  C   UNL     1      30.186 -24.330 -15.047  0.00  0.00    +0.028 C 
ATOM     21  C   UNL     1      30.075 -23.055 -14.504  0.00  0.00    +0.138 C 
ATOM     22  C   UNL     1      29.241 -24.799 -15.951  0.00  0.00    -0.000 C 
ATOM     23  C   UNL     1      29.004 -22.239 -14.869  0.00  0.00    +0.029 C 
ATOM     24  C   UNL     1      28.171 -23.984 -16.318  0.00  0.00    -0.000 C 
ATOM     25  C   UNL     1      28.052 -22.703 -15.776  0.00  0.00    +0.002 C 
ENDBRANCH  18  20
ENDBRANCH   4  18
BRANCH  11  26
ATOM     26  C   UNL     1      36.885 -21.742 -17.905  0.00  0.00    +0.067 C 
BRANCH  26  27
ATOM     27  C   UNL     1      36.195 -21.077 -19.088  0.00  0.00    -0.019 C 
ATOM     28  C   UNL     1      36.904 -20.169 -19.847  0.00  0.00    -0.003 C 
ATOM     29  C   UNL     1      34.883 -21.403 -19.364  0.00  0.00    -0.003 C 
ATOM     30  C   UNL     1      36.271 -19.561 -20.932  0.00  0.00    +0.014 C 
ATOM     31  C   UNL     1      34.251 -20.794 -20.448  0.00  0.00    +0.014 C 
ATOM     32  C   UNL     1      34.946 -19.873 -21.232  0.00  0.00    +0.050 C 
BRANCH  32  34
ATOM     33  O   UNL     1      35.033 -20.531 -24.169  0.00  0.00    -0.275 OA
ATOM     34  N   UNL     1      34.313 -19.263 -22.317  0.00  0.00    -0.284 N 
ATOM     35  C   UNL     1      34.391 -19.612 -23.671  0.00  0.00    +0.227 C 
ATOM     36  C   UNL     1      33.553 -18.700 -24.531  0.00  0.00    +0.095 C 
ATOM     37  H   UNL     1      33.741 -18.492 -22.102  0.00  0.00    +0.155 HD
ENDBRANCH  32  34
ENDBRANCH  26  27
ENDBRANCH  11  26
TORSDOF 8
ENDMDL
MODEL 6
REMARK VINA RESULT:      -9.2      8.411     15.401
REMARK  Name = 447371
REMARK  8 active torsions:
REMARK  status: ('A' for Active; 'I' for Inactive)
REMARK    1  A    between atoms: N_3  and  C_14
REMARK    2  A    between atoms: N_4  and  C_18
REMARK    3  A    between atoms: C_11  and  C_26
REMARK    4  A    between atoms: C_14  and  C_15
REMARK    5  A    between atoms: C_15  and  C_16
REMARK    6  A    between atoms: C_18  and  C_20
REMARK    7  A    between atoms: C_26  and  C_27
REMARK    8  A    between atoms: C_32  and  N_34
REMARK                            x       y       z     vdW  Elec       q    Type
REMARK                         _______ _______ _______ _____ _____    ______ ____
ROOT
ATOM      1  O   UNL     1      34.772 -24.615 -12.031  0.00  0.00    -0.246 OA
ATOM      2  O   UNL     1      37.314 -22.727 -15.498  0.00  0.00    -0.265 OA
ATOM      3  N   UNL     1      33.739 -24.264 -14.086  0.00  0.00    -0.269 N 
ATOM      4  N   UNL     1      36.062 -23.671 -13.743  0.00  0.00    -0.243 N 
ATOM      5  N   UNL     1      34.832 -22.945 -17.142  0.00  0.00    -0.313 N 
ATOM      6  N   UNL     1      32.920 -23.779 -16.356  0.00  0.00    -0.304 N 
ATOM      7  C   UNL     1      33.887 -23.799 -15.387  0.00  0.00    +0.132 A 
ATOM      8  C   UNL     1      35.072 -23.292 -15.843  0.00  0.00    +0.133 A 
ATOM      9  C   UNL     1      34.843 -24.216 -13.199  0.00  0.00    +0.335 A 
ATOM     10  C   UNL     1      36.261 -23.184 -15.062  0.00  0.00    +0.280 A 
ATOM     11  C   UNL     1      33.523 -23.257 -17.404  0.00  0.00    +0.149 C 
ATOM     12  H   UNL     1      35.477 -22.547 -17.771  0.00  0.00    +0.148 HD
ATOM     13  H   UNL     1      31.987 -24.085 -16.286  0.00  0.00    +0.150 HD
ENDROOT
BRANCH   3  14
ATOM     14  C   UNL     1      32.455 -24.795 -13.646  0.00  0.00    +0.112 C 
BRANCH  14  15
ATOM     15  C   UNL     1      31.426 -23.698 -13.398  0.00  0.00    +0.025 C 
BRANCH  15  16
ATOM     16  C   UNL     1      30.125 -23.928 -14.170  0.00  0.00    +0.002 C 
ATOM     17  C   UNL     1      29.802 -25.410 -14.283  0.00  0.00    +0.000 C 
ENDBRANCH  15  16
ENDBRANCH  14  15
ENDBRANCH   3  14
BRANCH   4  18
ATOM     18  C   UNL     1      37.211 -23.615 -12.845  0.00  0.00    +0.143 C 
BRANCH  18  20
ATOM     19  F   UNL     1      37.309 -26.192 -11.686  0.00  0.00    -0.204 F 
ATOM     20  C   UNL     1      38.255 -24.631 -13.206  0.00  0.00    +0.028 C 
ATOM     21  C   UNL     1      38.243 -25.881 -12.596  0.00  0.00    +0.138 C 
ATOM     22  C   UNL     1      39.226 -24.311 -14.147  0.00  0.00    -0.000 C 
ATOM     23  C   UNL     1      39.216 -26.823 -12.933  0.00  0.00    +0.029 C 
ATOM     24  C   UNL     1      40.198 -25.253 -14.485  0.00  0.00    -0.000 C 
ATOM     25  C   UNL     1      40.193 -26.510 -13.878  0.00  0.00    +0.002 C 
ENDBRANCH  18  20
ENDBRANCH   4  18
BRANCH  11  26
ATOM     26  C   UNL     1      32.928 -23.010 -18.731  0.00  0.00    +0.067 C 
BRANCH  26  27
ATOM     27  C   UNL     1      33.514 -21.808 -19.459  0.00  0.00    -0.019 C 
ATOM     28  C   UNL     1      34.883 -21.718 -19.602  0.00  0.00    -0.003 C 
ATOM     29  C   UNL     1      32.657 -20.845 -19.951  0.00  0.00    -0.003 C 
ATOM     30  C   UNL     1      35.419 -20.617 -20.269  0.00  0.00    +0.014 C 
ATOM     31  C   UNL     1      33.194 -19.743 -20.617  0.00  0.00    +0.014 C 
ATOM     32  C   UNL     1      34.575 -19.629 -20.776  0.00  0.00    +0.050 C 
BRANCH  32  34
ATOM     33  O   UNL     1      34.242 -18.714 -23.626  0.00  0.00    -0.275 OA
ATOM     34  N   UNL     1      35.111 -18.526 -21.442  0.00  0.00    -0.284 N 
ATOM     35  C   UNL     1      34.923 -18.147 -22.778  0.00  0.00    +0.227 C 
ATOM     36  C   UNL     1      35.680 -16.887 -23.112  0.00  0.00    +0.095 C 
ATOM     37  H   UNL     1      35.695 -17.943 -20.907  0.00  0.00    +0.155 HD
ENDBRANCH  32  34
ENDBRANCH  26  27
ENDBRANCH  11  26
TORSDOF 8
ENDMDL
MODEL 7
REMARK VINA RESULT:      -9.1      3.016      9.538
REMARK  Name = 447371
REMARK  8 active torsions:
REMARK  status: ('A' for Active; 'I' for Inactive)
REMARK    1  A    between atoms: N_3  and  C_14
REMARK    2  A    between atoms: N_4  and  C_18
REMARK    3  A    between atoms: C_11  and  C_26
REMARK    4  A    between atoms: C_14  and  C_15
REMARK    5  A    between atoms: C_15  and  C_16
REMARK    6  A    between atoms: C_18  and  C_20
REMARK    7  A    between atoms: C_26  and  C_27
REMARK    8  A    between atoms: C_32  and  N_34
REMARK                            x       y       z     vdW  Elec       q    Type
REMARK                         _______ _______ _______ _____ _____    ______ ____
ROOT
ATOM      1  O   UNL     1      30.828 -11.675 -21.477  0.00  0.00    -0.246 OA
ATOM      2  O   UNL     1      34.508 -12.159 -24.353  0.00  0.00    -0.265 OA
ATOM      3  N   UNL     1      32.136  -9.802 -21.913  0.00  0.00    -0.269 N 
ATOM      4  N   UNL     1      32.658 -11.945 -22.914  0.00  0.00    -0.243 N 
ATOM      5  N   UNL     1      34.987  -9.252 -23.874  0.00  0.00    -0.313 N 
ATOM      6  N   UNL     1      33.692  -8.005 -22.555  0.00  0.00    -0.304 N 
ATOM      7  C   UNL     1      33.240  -9.298 -22.589  0.00  0.00    +0.132 A 
ATOM      8  C   UNL     1      34.018 -10.086 -23.392  0.00  0.00    +0.133 A 
ATOM      9  C   UNL     1      31.799 -11.171 -22.053  0.00  0.00    +0.335 A 
ATOM     10  C   UNL     1      33.794 -11.476 -23.624  0.00  0.00    +0.280 A 
ATOM     11  C   UNL     1      34.748  -8.012 -23.342  0.00  0.00    +0.149 C 
ATOM     12  H   UNL     1      35.717  -9.496 -24.487  0.00  0.00    +0.148 HD
ATOM     13  H   UNL     1      33.314  -7.246 -22.057  0.00  0.00    +0.150 HD
ENDROOT
BRANCH   3  14
ATOM     14  C   UNL     1      31.338  -8.923 -21.068  0.00  0.00    +0.112 C 
BRANCH  14  15
ATOM     15  C   UNL     1      32.027  -8.604 -19.745  0.00  0.00    +0.025 C 
BRANCH  15  16
ATOM     16  C   UNL     1      31.350  -9.283 -18.553  0.00  0.00    +0.002 C 
ATOM     17  C   UNL     1      31.835 -10.715 -18.382  0.00  0.00    +0.000 C 
ENDBRANCH  15  16
ENDBRANCH  14  15
ENDBRANCH   3  14
BRANCH   4  18
ATOM     18  C   UNL     1      32.325 -13.357 -23.072  0.00  0.00    +0.143 C 
BRANCH  18  20
ATOM     19  F   UNL     1      34.038 -15.260 -24.269  0.00  0.00    -0.204 F 
ATOM     20  C   UNL     1      33.241 -14.242 -22.278  0.00  0.00    +0.028 C 
ATOM     21  C   UNL     1      34.058 -15.156 -22.933  0.00  0.00    +0.138 C 
ATOM     22  C   UNL     1      33.262 -14.138 -20.892  0.00  0.00    -0.000 C 
ATOM     23  C   UNL     1      34.908 -15.978 -22.192  0.00  0.00    +0.029 C 
ATOM     24  C   UNL     1      34.113 -14.958 -20.151  0.00  0.00    -0.000 C 
ATOM     25  C   UNL     1      34.936 -15.879 -20.801  0.00  0.00    +0.002 C 
ENDBRANCH  18  20
ENDBRANCH   4  18
BRANCH  11  26
ATOM     26  C   UNL     1      35.617  -6.862 -23.660  0.00  0.00    +0.067 C 
BRANCH  26  27
ATOM     27  C   UNL     1      35.012  -5.888 -24.663  0.00  0.00    -0.019 C 
ATOM     28  C   UNL     1      33.757  -5.371 -24.415  0.00  0.00    -0.003 C 
ATOM     29  C   UNL     1      35.738  -5.554 -25.787  0.00  0.00    -0.003 C 
ATOM     30  C   UNL     1      33.205  -4.479 -25.333  0.00  0.00    +0.014 C 
ATOM     31  C   UNL     1      35.184  -4.662 -26.705  0.00  0.00    +0.014 C 
ATOM     32  C   UNL     1      33.917  -4.125 -26.478  0.00  0.00    +0.050 C 
BRANCH  32  34
ATOM     33  O   UNL     1      32.827  -4.593 -29.246  0.00  0.00    -0.275 OA
ATOM     34  N   UNL     1      33.363  -3.232 -27.397  0.00  0.00    -0.284 N 
ATOM     35  C   UNL     1      32.871  -3.505 -28.680  0.00  0.00    +0.227 C 
ATOM     36  C   UNL     1      32.354  -2.260 -29.356  0.00  0.00    +0.095 C 
ATOM     37  H   UNL     1      33.313  -2.293 -27.107  0.00  0.00    +0.155 HD
ENDBRANCH  32  34
ENDBRANCH  26  27
ENDBRANCH  11  26
TORSDOF 8
ENDMDL
MODEL 8
REMARK VINA RESULT:      -9.0      1.860      3.509
REMARK  Name = 447371
REMARK  8 active torsions:
REMARK  status: ('A' for Active; 'I' for Inactive)
REMARK    1  A    between atoms: N_3  and  C_14
REMARK    2  A    between atoms: N_4  and  C_18
REMARK    3  A    between atoms: C_11  and  C_26
REMARK    4  A    between atoms: C_14  and  C_15
REMARK    5  A    between atoms: C_15  and  C_16
REMARK    6  A    between atoms: C_18  and  C_20
REMARK    7  A    between atoms: C_26  and  C_27
REMARK    8  A    between atoms: C_32  and  N_34
REMARK                            x       y       z     vdW  Elec       q    Type
REMARK                         _______ _______ _______ _____ _____    ______ ____
ROOT
ATOM      1  O   UNL     1      34.248  -7.497 -22.216  0.00  0.00    -0.246 OA
ATOM      2  O   UNL     1      30.791 -10.597 -21.518  0.00  0.00    -0.265 OA
ATOM      3  N   UNL     1      34.412  -9.577 -23.244  0.00  0.00    -0.269 N 
ATOM      4  N   UNL     1      32.510  -9.025 -21.850  0.00  0.00    -0.243 N 
ATOM      5  N   UNL     1      32.366 -12.420 -23.279  0.00  0.00    -0.313 N 
ATOM      6  N   UNL     1      34.314 -11.845 -24.198  0.00  0.00    -0.304 N 
ATOM      7  C   UNL     1      33.818 -10.818 -23.439  0.00  0.00    +0.132 A 
ATOM      8  C   UNL     1      32.622 -11.145 -22.864  0.00  0.00    +0.133 A 
ATOM      9  C   UNL     1      33.767  -8.617 -22.426  0.00  0.00    +0.335 A 
ATOM     10  C   UNL     1      31.864 -10.278 -22.020  0.00  0.00    +0.280 A 
ATOM     11  C   UNL     1      33.413 -12.798 -24.080  0.00  0.00    +0.149 C 
ATOM     12  H   UNL     1      31.579 -12.965 -23.048  0.00  0.00    +0.148 HD
ATOM     13  H   UNL     1      35.153 -11.865 -24.713  0.00  0.00    +0.150 HD
ENDROOT
BRANCH   3  14
ATOM     14  C   UNL     1      35.689  -9.275 -23.879  0.00  0.00    +0.112 C 
BRANCH  14  15
ATOM     15  C   UNL     1      35.519  -8.622 -25.247  0.00  0.00    +0.025 C 
BRANCH  15  16
ATOM     16  C   UNL     1      35.273  -7.115 -25.151  0.00  0.00    +0.002 C 
ATOM     17  C   UNL     1      33.896  -6.743 -25.678  0.00  0.00    +0.000 C 
ENDBRANCH  15  16
ENDBRANCH  14  15
ENDBRANCH   3  14
BRANCH   4  18
ATOM     18  C   UNL     1      31.830  -8.048 -21.006  0.00  0.00    +0.143 C 
BRANCH  18  20
ATOM     19  F   UNL     1      30.799  -7.762 -23.622  0.00  0.00    -0.204 F 
ATOM     20  C   UNL     1      31.693  -6.717 -21.687  0.00  0.00    +0.028 C 
ATOM     21  C   UNL     1      31.176  -6.650 -22.976  0.00  0.00    +0.138 C 
ATOM     22  C   UNL     1      32.084  -5.562 -21.019  0.00  0.00    -0.000 C 
ATOM     23  C   UNL     1      31.050  -5.411 -23.606  0.00  0.00    +0.029 C 
ATOM     24  C   UNL     1      31.958  -4.324 -21.649  0.00  0.00    -0.000 C 
ATOM     25  C   UNL     1      31.441  -4.248 -22.942  0.00  0.00    +0.002 C 
ENDBRANCH  18  20
ENDBRANCH   4  18
BRANCH  11  26
ATOM     26  C   UNL     1      33.456 -14.134 -24.704  0.00  0.00    +0.067 C 
BRANCH  26  27
ATOM     27  C   UNL     1      34.079 -15.209 -23.825  0.00  0.00    -0.019 C 
ATOM     28  C   UNL     1      34.417 -16.420 -24.393  0.00  0.00    -0.003 C 
ATOM     29  C   UNL     1      34.285 -14.940 -22.488  0.00  0.00    -0.003 C 
ATOM     30  C   UNL     1      34.988 -17.405 -23.586  0.00  0.00    +0.014 C 
ATOM     31  C   UNL     1      34.855 -15.925 -21.682  0.00  0.00    +0.014 C 
ATOM     32  C   UNL     1      35.207 -17.158 -22.232  0.00  0.00    +0.050 C 
BRANCH  32  34
ATOM     33  O   UNL     1      34.233 -19.921 -21.535  0.00  0.00    -0.275 OA
ATOM     34  N   UNL     1      35.778 -18.143 -21.425  0.00  0.00    -0.284 N 
ATOM     35  C   UNL     1      35.277 -19.418 -21.132  0.00  0.00    +0.227 C 
ATOM     36  C   UNL     1      36.199 -20.183 -20.217  0.00  0.00    +0.095 C 
ATOM     37  H   UNL     1      36.640 -17.913 -21.010  0.00  0.00    +0.155 HD
ENDBRANCH  32  34
ENDBRANCH  26  27
ENDBRANCH  11  26
TORSDOF 8
ENDMDL
MODEL 9
REMARK VINA RESULT:      -8.8      7.509     14.422
REMARK  Name = 447371
REMARK  8 active torsions:
REMARK  status: ('A' for Active; 'I' for Inactive)
REMARK    1  A    between atoms: N_3  and  C_14
REMARK    2  A    between atoms: N_4  and  C_18
REMARK    3  A    between atoms: C_11  and  C_26
REMARK    4  A    between atoms: C_14  and  C_15
REMARK    5  A    between atoms: C_15  and  C_16
REMARK    6  A    between atoms: C_18  and  C_20
REMARK    7  A    between atoms: C_26  and  C_27
REMARK    8  A    between atoms: C_32  and  N_34
REMARK                            x       y       z     vdW  Elec       q    Type
REMARK                         _______ _______ _______ _____ _____    ______ ____
ROOT
ATOM      1  O   UNL     1      34.013 -23.857 -13.047  0.00  0.00    -0.246 OA
ATOM      2  O   UNL     1      31.347 -22.648 -16.718  0.00  0.00    -0.265 OA
ATOM      3  N   UNL     1      35.064 -23.443 -15.081  0.00  0.00    -0.269 N 
ATOM      4  N   UNL     1      32.660 -23.257 -14.862  0.00  0.00    -0.243 N 
ATOM      5  N   UNL     1      33.903 -22.515 -18.253  0.00  0.00    -0.313 N 
ATOM      6  N   UNL     1      35.893 -22.948 -17.345  0.00  0.00    -0.304 N 
ATOM      7  C   UNL     1      34.899 -23.086 -16.413  0.00  0.00    +0.132 A 
ATOM      8  C   UNL     1      33.666 -22.826 -16.944  0.00  0.00    +0.133 A 
ATOM      9  C   UNL     1      33.928 -23.544 -14.240  0.00  0.00    +0.335 A 
ATOM     10  C   UNL     1      32.441 -22.888 -16.216  0.00  0.00    +0.280 A 
ATOM     11  C   UNL     1      35.258 -22.602 -18.446  0.00  0.00    +0.149 C 
ATOM     12  H   UNL     1      33.229 -22.274 -18.929  0.00  0.00    +0.148 HD
ATOM     13  H   UNL     1      36.861 -23.077 -17.221  0.00  0.00    +0.150 HD
ENDROOT
BRANCH   3  14
ATOM     14  C   UNL     1      36.399 -23.711 -14.560  0.00  0.00    +0.112 C 
BRANCH  14  15
ATOM     15  C   UNL     1      36.767 -25.189 -14.634  0.00  0.00    +0.025 C 
BRANCH  15  16
ATOM     16  C   UNL     1      37.814 -25.586 -13.591  0.00  0.00    +0.002 C 
ATOM     17  C   UNL     1      37.853 -24.594 -12.439  0.00  0.00    +0.000 C 
ENDBRANCH  15  16
ENDBRANCH  14  15
ENDBRANCH   3  14
BRANCH   4  18
ATOM     18  C   UNL     1      31.477 -23.353 -14.012  0.00  0.00    +0.143 C 
BRANCH  18  20
ATOM     19  F   UNL     1      29.095 -21.959 -14.621  0.00  0.00    -0.204 F 
ATOM     20  C   UNL     1      30.321 -23.989 -14.728  0.00  0.00    +0.028 C 
ATOM     21  C   UNL     1      29.179 -23.243 -14.996  0.00  0.00    +0.138 C 
ATOM     22  C   UNL     1      30.405 -25.321 -15.117  0.00  0.00    -0.000 C 
ATOM     23  C   UNL     1      28.107 -23.837 -15.661  0.00  0.00    +0.029 C 
ATOM     24  C   UNL     1      29.333 -25.915 -15.783  0.00  0.00    -0.000 C 
ATOM     25  C   UNL     1      28.184 -25.173 -16.055  0.00  0.00    +0.002 C 
ENDBRANCH  18  20
ENDBRANCH   4  18
BRANCH  11  26
ATOM     26  C   UNL     1      35.863 -22.325 -19.762  0.00  0.00    +0.067 C 
BRANCH  26  27
ATOM     27  C   UNL     1      35.659 -20.896 -20.249  0.00  0.00    -0.019 C 
ATOM     28  C   UNL     1      36.749 -20.052 -20.307  0.00  0.00    -0.003 C 
ATOM     29  C   UNL     1      34.393 -20.491 -20.615  0.00  0.00    -0.003 C 
ATOM     30  C   UNL     1      36.562 -18.744 -20.754  0.00  0.00    +0.014 C 
ATOM     31  C   UNL     1      34.207 -19.183 -21.061  0.00  0.00    +0.014 C 
ATOM     32  C   UNL     1      35.292 -18.309 -21.130  0.00  0.00    +0.050 C 
BRANCH  32  34
ATOM     33  O   UNL     1      34.856 -17.232 -23.909  0.00  0.00    -0.275 OA
ATOM     34  N   UNL     1      35.105 -16.999 -21.576  0.00  0.00    -0.284 N 
ATOM     35  C   UNL     1      34.907 -16.553 -22.888  0.00  0.00    +0.227 C 
ATOM     36  C   UNL     1      34.745 -15.055 -22.950  0.00  0.00    +0.095 C 
ATOM     37  H   UNL     1      35.114 -16.303 -20.880  0.00  0.00    +0.155 HD
ENDBRANCH  32  34
ENDBRANCH  26  27
ENDBRANCH  11  26
TORSDOF 8
ENDMDL
