MODEL 1
REMARK VINA RESULT:     -11.2      0.000      0.000
REMARK  Name = 5327686
REMARK  3 active torsions:
REMARK  status: ('A' for Active; 'I' for Inactive)
REMARK    1  A    between atoms: C_4  and  C_10
REMARK    2  A    between atoms: C_5  and  C_23
REMARK    3  A    between atoms: C_17  and  N_21
REMARK                            x       y       z     vdW  Elec       q    Type
REMARK                         _______ _______ _______ _____ _____    ______ ____
ROOT
ATOM      1  O   UNL     1      31.568 -23.142 -17.242  0.00  0.00    -0.270 OA
ATOM      2  O   UNL     1      31.519 -25.428 -13.276  0.00  0.00    -0.270 OA
ATOM      3  N   UNL     1      31.155 -24.344 -15.297  0.00  0.00    -0.248 N 
ATOM      4  C   UNL     1      33.311 -23.698 -15.675  0.00  0.00    +0.059 C 
ATOM      5  C   UNL     1      33.295 -24.360 -14.504  0.00  0.00    +0.059 C 
ATOM      6  C   UNL     1      31.923 -23.675 -16.203  0.00  0.00    +0.252 C 
ATOM      7  C   UNL     1      31.897 -24.790 -14.244  0.00  0.00    +0.252 C 
ATOM      8  H   UNL     1      30.185 -24.485 -15.390  0.00  0.00    +0.158 HD
ENDROOT
BRANCH   4  10
ATOM      9  N   UNL     1      36.467 -22.373 -16.796  0.00  0.00    -0.284 N 
ATOM     10  C   UNL     1      34.405 -23.077 -16.354  0.00  0.00    +0.021 C 
ATOM     11  C   UNL     1      34.386 -22.387 -17.601  0.00  0.00    +0.015 C 
ATOM     12  C   UNL     1      35.691 -21.957 -17.855  0.00  0.00    +0.053 C 
ATOM     13  C   UNL     1      35.701 -23.050 -15.885  0.00  0.00    +0.066 C 
ATOM     14  C   UNL     1      33.380 -22.088 -18.540  0.00  0.00    +0.003 C 
ATOM     15  C   UNL     1      36.040 -21.242 -19.005  0.00  0.00    +0.039 C 
ATOM     16  C   UNL     1      37.888 -22.139 -16.652  0.00  0.00    +0.117 C 
ATOM     17  C   UNL     1      35.025 -20.956 -19.922  0.00  0.00    +0.144 C 
ATOM     18  C   UNL     1      33.715 -21.373 -19.696  0.00  0.00    +0.024 C 
BRANCH  17  21
ATOM     19  O   UNL     1      34.527 -20.253 -22.060  0.00  0.00    -0.126 OA
ATOM     20  O   UNL     1      36.410 -19.584 -21.154  0.00  0.00    -0.126 OA
ATOM     21  N   UNL     1      35.335 -20.229 -21.103  0.00  0.00    +0.058 N 
ENDBRANCH  17  21
ENDBRANCH   4  10
BRANCH   5  23
ATOM     22  N   UNL     1      35.647 -24.662 -11.797  0.00  0.00    -0.284 N 
ATOM     23  C   UNL     1      34.373 -24.664 -13.615  0.00  0.00    +0.021 C 
ATOM     24  C   UNL     1      35.484 -25.520 -13.850  0.00  0.00    +0.015 C 
ATOM     25  C   UNL     1      36.267 -25.502 -12.693  0.00  0.00    +0.052 C 
ATOM     26  C   UNL     1      34.501 -24.150 -12.345  0.00  0.00    +0.066 C 
ATOM     27  C   UNL     1      35.899 -26.314 -14.938  0.00  0.00    +0.001 C 
ATOM     28  C   UNL     1      37.451 -26.239 -12.572  0.00  0.00    +0.015 C 
ATOM     29  C   UNL     1      36.125 -24.350 -10.468  0.00  0.00    +0.117 C 
ATOM     30  C   UNL     1      37.081 -27.056 -14.830  0.00  0.00    +0.000 C 
ATOM     31  C   UNL     1      37.843 -27.018 -13.664  0.00  0.00    +0.001 C 
ENDBRANCH   5  23
TORSDOF 3
ENDMDL
MODEL 2
REMARK VINA RESULT:     -10.6      2.674      6.369
REMARK  Name = 5327686
REMARK  3 active torsions:
REMARK  status: ('A' for Active; 'I' for Inactive)
REMARK    1  A    between atoms: C_4  and  C_10
REMARK    2  A    between atoms: C_5  and  C_23
REMARK    3  A    between atoms: C_17  and  N_21
REMARK                            x       y       z     vdW  Elec       q    Type
REMARK                         _______ _______ _______ _____ _____    ______ ____
ROOT
ATOM      1  O   UNL     1      31.891 -25.429 -12.736  0.00  0.00    -0.270 OA
ATOM      2  O   UNL     1      31.608 -23.245 -16.749  0.00  0.00    -0.270 OA
ATOM      3  N   UNL     1      31.363 -24.416 -14.759  0.00  0.00    -0.248 N 
ATOM      4  C   UNL     1      33.536 -24.286 -14.074  0.00  0.00    +0.059 C 
ATOM      5  C   UNL     1      33.455 -23.654 -15.259  0.00  0.00    +0.059 C 
ATOM      6  C   UNL     1      32.182 -24.792 -13.735  0.00  0.00    +0.252 C 
ATOM      7  C   UNL     1      32.045 -23.727 -15.718  0.00  0.00    +0.252 C 
ATOM      8  H   UNL     1      30.400 -24.617 -14.801  0.00  0.00    +0.158 HD
ENDROOT
BRANCH   4  10
ATOM      9  N   UNL     1      35.929 -24.642 -11.406  0.00  0.00    -0.284 N 
ATOM     10  C   UNL     1      34.673 -24.504 -13.234  0.00  0.00    +0.021 C 
ATOM     11  C   UNL     1      35.983 -24.909 -13.620  0.00  0.00    +0.015 C 
ATOM     12  C   UNL     1      36.750 -24.989 -12.454  0.00  0.00    +0.053 C 
ATOM     13  C   UNL     1      34.673 -24.347 -11.866  0.00  0.00    +0.066 C 
ATOM     14  C   UNL     1      36.591 -25.219 -14.853  0.00  0.00    +0.003 C 
ATOM     15  C   UNL     1      38.098 -25.364 -12.461  0.00  0.00    +0.039 C 
ATOM     16  C   UNL     1      36.319 -24.592 -10.012  0.00  0.00    +0.117 C 
ATOM     17  C   UNL     1      38.679 -25.665 -13.695  0.00  0.00    +0.144 C 
ATOM     18  C   UNL     1      37.939 -25.595 -14.874  0.00  0.00    +0.024 C 
BRANCH  17  21
ATOM     19  O   UNL     1      40.925 -25.204 -13.451  0.00  0.00    -0.126 OA
ATOM     20  O   UNL     1      40.336 -27.219 -14.090  0.00  0.00    -0.126 OA
ATOM     21  N   UNL     1      40.047 -26.048 -13.748  0.00  0.00    +0.058 N 
ENDBRANCH  17  21
ENDBRANCH   4  10
BRANCH   5  23
ATOM     22  N   UNL     1      36.350 -21.891 -16.467  0.00  0.00    -0.284 N 
ATOM     23  C   UNL     1      34.476 -22.986 -16.006  0.00  0.00    +0.021 C 
ATOM     24  C   UNL     1      34.523 -22.758 -17.409  0.00  0.00    +0.015 C 
ATOM     25  C   UNL     1      35.710 -22.069 -17.672  0.00  0.00    +0.052 C 
ATOM     26  C   UNL     1      35.612 -22.441 -15.454  0.00  0.00    +0.066 C 
ATOM     27  C   UNL     1      33.669 -23.073 -18.485  0.00  0.00    +0.001 C 
ATOM     28  C   UNL     1      36.086 -21.677 -18.962  0.00  0.00    +0.015 C 
ATOM     29  C   UNL     1      37.617 -21.217 -16.279  0.00  0.00    +0.117 C 
ATOM     30  C   UNL     1      34.033 -22.687 -19.780  0.00  0.00    +0.000 C 
ATOM     31  C   UNL     1      35.223 -22.000 -20.013  0.00  0.00    +0.001 C 
ENDBRANCH   5  23
TORSDOF 3
ENDMDL
MODEL 3
REMARK VINA RESULT:     -10.1     10.701     15.564
REMARK  Name = 5327686
REMARK  3 active torsions:
REMARK  status: ('A' for Active; 'I' for Inactive)
REMARK    1  A    between atoms: C_4  and  C_10
REMARK    2  A    between atoms: C_5  and  C_23
REMARK    3  A    between atoms: C_17  and  N_21
REMARK                            x       y       z     vdW  Elec       q    Type
REMARK                         _______ _______ _______ _____ _____    ______ ____
ROOT
ATOM      1  O   UNL     1      31.185 -12.622 -20.039  0.00  0.00    -0.270 OA
ATOM      2  O   UNL     1      31.643  -8.088 -20.473  0.00  0.00    -0.270 OA
ATOM      3  N   UNL     1      31.207 -10.302 -19.925  0.00  0.00    -0.248 N 
ATOM      4  C   UNL     1      32.299 -11.260 -21.685  0.00  0.00    +0.059 C 
ATOM      5  C   UNL     1      32.423  -9.927 -21.818  0.00  0.00    +0.059 C 
ATOM      6  C   UNL     1      31.505 -11.521 -20.457  0.00  0.00    +0.252 C 
ATOM      7  C   UNL     1      31.720  -9.288 -20.678  0.00  0.00    +0.252 C 
ATOM      8  H   UNL     1      30.685 -10.170 -19.100  0.00  0.00    +0.158 HD
ENDROOT
BRANCH   4  10
ATOM      9  N   UNL     1      33.260 -13.467 -24.363  0.00  0.00    -0.284 N 
ATOM     10  C   UNL     1      32.783 -12.308 -22.527  0.00  0.00    +0.021 C 
ATOM     11  C   UNL     1      33.432 -13.516 -22.139  0.00  0.00    +0.015 C 
ATOM     12  C   UNL     1      33.721 -14.223 -23.309  0.00  0.00    +0.053 C 
ATOM     13  C   UNL     1      32.692 -12.310 -23.902  0.00  0.00    +0.066 C 
ATOM     14  C   UNL     1      33.804 -14.075 -20.901  0.00  0.00    +0.003 C 
ATOM     15  C   UNL     1      34.364 -15.465 -23.301  0.00  0.00    +0.039 C 
ATOM     16  C   UNL     1      33.354 -13.829 -25.762  0.00  0.00    +0.117 C 
ATOM     17  C   UNL     1      34.722 -16.001 -22.061  0.00  0.00    +0.144 C 
ATOM     18  C   UNL     1      34.449 -15.318 -20.878  0.00  0.00    +0.024 C 
BRANCH  17  21
ATOM     19  O   UNL     1      35.597 -17.877 -23.077  0.00  0.00    -0.126 OA
ATOM     20  O   UNL     1      35.713 -17.722 -20.891  0.00  0.00    -0.126 OA
ATOM     21  N   UNL     1      35.376 -17.261 -22.007  0.00  0.00    +0.058 N 
ENDBRANCH  17  21
ENDBRANCH   4  10
BRANCH   5  23
ATOM     22  N   UNL     1      34.692  -8.532 -24.238  0.00  0.00    -0.284 N 
ATOM     23  C   UNL     1      33.107  -9.173 -22.824  0.00  0.00    +0.021 C 
ATOM     24  C   UNL     1      32.643  -8.023 -23.519  0.00  0.00    +0.015 C 
ATOM     25  C   UNL     1      33.656  -7.640 -24.401  0.00  0.00    +0.052 C 
ATOM     26  C   UNL     1      34.370  -9.461 -23.286  0.00  0.00    +0.066 C 
ATOM     27  C   UNL     1      31.453  -7.268 -23.485  0.00  0.00    +0.001 C 
ATOM     28  C   UNL     1      33.539  -6.536 -25.253  0.00  0.00    +0.015 C 
ATOM     29  C   UNL     1      35.948  -8.501 -24.956  0.00  0.00    +0.117 C 
ATOM     30  C   UNL     1      31.322  -6.161 -24.331  0.00  0.00    +0.000 C 
ATOM     31  C   UNL     1      32.351  -5.802 -25.201  0.00  0.00    +0.001 C 
ENDBRANCH   5  23
TORSDOF 3
ENDMDL
MODEL 4
REMARK VINA RESULT:      -9.6     11.477     15.280
REMARK  Name = 5327686
REMARK  3 active torsions:
REMARK  status: ('A' for Active; 'I' for Inactive)
REMARK    1  A    between atoms: C_4  and  C_10
REMARK    2  A    between atoms: C_5  and  C_23
REMARK    3  A    between atoms: C_17  and  N_21
REMARK                            x       y       z     vdW  Elec       q    Type
REMARK                         _______ _______ _______ _____ _____    ______ ____
ROOT
ATOM      1  O   UNL     1      31.657  -9.174 -19.937  0.00  0.00    -0.270 OA
ATOM      2  O   UNL     1      31.548 -13.739 -20.265  0.00  0.00    -0.270 OA
ATOM      3  N   UNL     1      31.416 -11.477 -19.755  0.00  0.00    -0.248 N 
ATOM      4  C   UNL     1      32.453 -10.692 -21.630  0.00  0.00    +0.059 C 
ATOM      5  C   UNL     1      32.430 -12.035 -21.721  0.00  0.00    +0.059 C 
ATOM      6  C   UNL     1      31.799 -10.312 -20.352  0.00  0.00    +0.252 C 
ATOM      7  C   UNL     1      31.755 -12.561 -20.508  0.00  0.00    +0.252 C 
ATOM      8  H   UNL     1      30.953 -11.528 -18.887  0.00  0.00    +0.158 HD
ENDROOT
BRANCH   4  10
ATOM      9  N   UNL     1      34.409  -8.747 -23.945  0.00  0.00    -0.284 N 
ATOM     10  C   UNL     1      33.002  -9.728 -22.532  0.00  0.00    +0.021 C 
ATOM     11  C   UNL     1      32.430  -8.490 -22.946  0.00  0.00    +0.015 C 
ATOM     12  C   UNL     1      33.332  -7.896 -23.833  0.00  0.00    +0.053 C 
ATOM     13  C   UNL     1      34.219  -9.855 -23.164  0.00  0.00    +0.066 C 
ATOM     14  C   UNL     1      31.227  -7.818 -22.652  0.00  0.00    +0.003 C 
ATOM     15  C   UNL     1      33.090  -6.660 -24.440  0.00  0.00    +0.039 C 
ATOM     16  C   UNL     1      35.579  -8.518 -24.766  0.00  0.00    +0.117 C 
ATOM     17  C   UNL     1      31.891  -6.011 -24.133  0.00  0.00    +0.144 C 
ATOM     18  C   UNL     1      30.972  -6.580 -23.254  0.00  0.00    +0.024 C 
BRANCH  17  21
ATOM     19  O   UNL     1      32.247  -4.403 -25.746  0.00  0.00    -0.126 OA
ATOM     20  O   UNL     1      30.721  -4.026 -24.214  0.00  0.00    -0.126 OA
ATOM     21  N   UNL     1      31.606  -4.752 -24.726  0.00  0.00    +0.058 N 
ENDBRANCH  17  21
ENDBRANCH   4  10
BRANCH   5  23
ATOM     22  N   UNL     1      33.316 -13.682 -24.795  0.00  0.00    -0.284 N 
ATOM     23  C   UNL     1      32.919 -12.885 -22.762  0.00  0.00    +0.021 C 
ATOM     24  C   UNL     1      33.693 -14.070 -22.631  0.00  0.00    +0.015 C 
ATOM     25  C   UNL     1      33.929 -14.550 -23.922  0.00  0.00    +0.052 C 
ATOM     26  C   UNL     1      32.702 -12.672 -24.105  0.00  0.00    +0.066 C 
ATOM     27  C   UNL     1      34.219 -14.783 -21.535  0.00  0.00    +0.001 C 
ATOM     28  C   UNL     1      34.666 -15.714 -24.172  0.00  0.00    +0.015 C 
ATOM     29  C   UNL     1      33.307 -13.806 -26.237  0.00  0.00    +0.117 C 
ATOM     30  C   UNL     1      34.959 -15.948 -21.771  0.00  0.00    +0.000 C 
ATOM     31  C   UNL     1      35.178 -16.404 -23.069  0.00  0.00    +0.001 C 
ENDBRANCH   5  23
TORSDOF 3
ENDMDL
MODEL 5
REMARK VINA RESULT:      -9.5     10.261     15.033
REMARK  Name = 5327686
REMARK  3 active torsions:
REMARK  status: ('A' for Active; 'I' for Inactive)
REMARK    1  A    between atoms: C_4  and  C_10
REMARK    2  A    between atoms: C_5  and  C_23
REMARK    3  A    between atoms: C_17  and  N_21
REMARK                            x       y       z     vdW  Elec       q    Type
REMARK                         _______ _______ _______ _____ _____    ______ ____
ROOT
ATOM      1  O   UNL     1      32.271 -13.187 -19.438  0.00  0.00    -0.270 OA
ATOM      2  O   UNL     1      31.346  -8.710 -19.681  0.00  0.00    -0.270 OA
ATOM      3  N   UNL     1      31.717 -10.946 -19.177  0.00  0.00    -0.248 N 
ATOM      4  C   UNL     1      32.370 -11.612 -21.259  0.00  0.00    +0.059 C 
ATOM      5  C   UNL     1      32.088 -10.299 -21.333  0.00  0.00    +0.059 C 
ATOM      6  C   UNL     1      32.130 -12.051 -19.861  0.00  0.00    +0.252 C 
ATOM      7  C   UNL     1      31.663  -9.849 -19.983  0.00  0.00    +0.252 C 
ATOM      8  H   UNL     1      31.486 -10.942 -18.219  0.00  0.00    +0.158 HD
ENDROOT
BRANCH   4  10
ATOM      9  N   UNL     1      33.169 -13.358 -24.306  0.00  0.00    -0.284 N 
ATOM     10  C   UNL     1      32.804 -12.509 -22.285  0.00  0.00    +0.021 C 
ATOM     11  C   UNL     1      33.478 -13.755 -22.133  0.00  0.00    +0.015 C 
ATOM     12  C   UNL     1      33.695 -14.266 -23.415  0.00  0.00    +0.053 C 
ATOM     13  C   UNL     1      32.629 -12.294 -23.634  0.00  0.00    +0.066 C 
ATOM     14  C   UNL     1      33.926 -14.499 -21.023  0.00  0.00    +0.003 C 
ATOM     15  C   UNL     1      34.340 -15.486 -23.643  0.00  0.00    +0.039 C 
ATOM     16  C   UNL     1      33.177 -13.493 -25.748  0.00  0.00    +0.117 C 
ATOM     17  C   UNL     1      34.775 -16.206 -22.527  0.00  0.00    +0.144 C 
ATOM     18  C   UNL     1      34.573 -15.722 -21.237  0.00  0.00    +0.024 C 
BRANCH  17  21
ATOM     19  O   UNL     1      36.157 -17.899 -21.793  0.00  0.00    -0.126 OA
ATOM     20  O   UNL     1      35.270 -18.068 -23.793  0.00  0.00    -0.126 OA
ATOM     21  N   UNL     1      35.433 -17.452 -22.713  0.00  0.00    +0.058 N 
ENDBRANCH  17  21
ENDBRANCH   4  10
BRANCH   5  23
ATOM     22  N   UNL     1      31.552  -8.031 -24.075  0.00  0.00    -0.284 N 
ATOM     23  C   UNL     1      32.172  -9.411 -22.451  0.00  0.00    +0.021 C 
ATOM     24  C   UNL     1      33.339  -8.992 -23.148  0.00  0.00    +0.015 C 
ATOM     25  C   UNL     1      32.922  -8.126 -24.162  0.00  0.00    +0.052 C 
ATOM     26  C   UNL     1      31.089  -8.804 -23.045  0.00  0.00    +0.066 C 
ATOM     27  C   UNL     1      34.715  -9.266 -23.012  0.00  0.00    +0.001 C 
ATOM     28  C   UNL     1      33.816  -7.519 -25.051  0.00  0.00    +0.015 C 
ATOM     29  C   UNL     1      30.708  -7.238 -24.942  0.00  0.00    +0.117 C 
ATOM     30  C   UNL     1      35.620  -8.666 -23.895  0.00  0.00    +0.000 C 
ATOM     31  C   UNL     1      35.176  -7.806 -24.898  0.00  0.00    +0.001 C 
ENDBRANCH   5  23
TORSDOF 3
ENDMDL
MODEL 6
REMARK VINA RESULT:      -9.1     15.240     20.182
REMARK  Name = 5327686
REMARK  3 active torsions:
REMARK  status: ('A' for Active; 'I' for Inactive)
REMARK    1  A    between atoms: C_4  and  C_10
REMARK    2  A    between atoms: C_5  and  C_23
REMARK    3  A    between atoms: C_17  and  N_21
REMARK                            x       y       z     vdW  Elec       q    Type
REMARK                         _______ _______ _______ _____ _____    ______ ____
ROOT
ATOM      1  O   UNL     1      32.225  -5.089 -22.211  0.00  0.00    -0.270 OA
ATOM      2  O   UNL     1      32.850  -2.615 -26.012  0.00  0.00    -0.270 OA
ATOM      3  N   UNL     1      32.361  -3.544 -23.941  0.00  0.00    -0.248 N 
ATOM      4  C   UNL     1      33.260  -5.606 -24.325  0.00  0.00    +0.059 C 
ATOM      5  C   UNL     1      33.433  -4.883 -25.446  0.00  0.00    +0.059 C 
ATOM      6  C   UNL     1      32.558  -4.750 -23.335  0.00  0.00    +0.252 C 
ATOM      7  C   UNL     1      32.856  -3.535 -25.211  0.00  0.00    +0.252 C 
ATOM      8  H   UNL     1      31.915  -2.776 -23.515  0.00  0.00    +0.158 HD
ENDROOT
BRANCH   4  10
ATOM      9  N   UNL     1      34.847  -8.812 -23.911  0.00  0.00    -0.284 N 
ATOM     10  C   UNL     1      33.625  -6.961 -24.050  0.00  0.00    +0.021 C 
ATOM     11  C   UNL     1      32.818  -7.990 -23.484  0.00  0.00    +0.015 C 
ATOM     12  C   UNL     1      33.609  -9.139 -23.407  0.00  0.00    +0.053 C 
ATOM     13  C   UNL     1      34.868  -7.500 -24.302  0.00  0.00    +0.066 C 
ATOM     14  C   UNL     1      31.487  -8.051 -23.027  0.00  0.00    +0.003 C 
ATOM     15  C   UNL     1      33.132 -10.350 -22.895  0.00  0.00    +0.039 C 
ATOM     16  C   UNL     1      35.976  -9.713 -24.019  0.00  0.00    +0.117 C 
ATOM     17  C   UNL     1      31.809 -10.388 -22.448  0.00  0.00    +0.144 C 
ATOM     18  C   UNL     1      30.997  -9.257 -22.511  0.00  0.00    +0.024 C 
BRANCH  17  21
ATOM     19  O   UNL     1      31.794 -12.687 -22.278  0.00  0.00    -0.126 OA
ATOM     20  O   UNL     1      30.324 -11.545 -21.116  0.00  0.00    -0.126 OA
ATOM     21  N   UNL     1      31.283 -11.599 -21.922  0.00  0.00    +0.058 N 
ENDBRANCH  17  21
ENDBRANCH   4  10
BRANCH   5  23
ATOM     22  N   UNL     1      34.338  -6.049 -28.727  0.00  0.00    -0.284 N 
ATOM     23  C   UNL     1      34.065  -5.248 -26.676  0.00  0.00    +0.021 C 
ATOM     24  C   UNL     1      35.426  -5.066 -27.046  0.00  0.00    +0.015 C 
ATOM     25  C   UNL     1      35.571  -5.578 -28.338  0.00  0.00    +0.052 C 
ATOM     26  C   UNL     1      33.421  -5.855 -27.730  0.00  0.00    +0.066 C 
ATOM     27  C   UNL     1      36.553  -4.513 -26.405  0.00  0.00    +0.001 C 
ATOM     28  C   UNL     1      36.791  -5.564 -29.023  0.00  0.00    +0.015 C 
ATOM     29  C   UNL     1      34.038  -6.668 -30.000  0.00  0.00    +0.117 C 
ATOM     30  C   UNL     1      37.780  -4.494 -27.078  0.00  0.00    +0.000 C 
ATOM     31  C   UNL     1      37.895  -5.012 -28.367  0.00  0.00    +0.001 C 
ENDBRANCH   5  23
TORSDOF 3
ENDMDL
MODEL 7
REMARK VINA RESULT:      -8.9     17.475     20.844
REMARK  Name = 5327686
REMARK  3 active torsions:
REMARK  status: ('A' for Active; 'I' for Inactive)
REMARK    1  A    between atoms: C_4  and  C_10
REMARK    2  A    between atoms: C_5  and  C_23
REMARK    3  A    between atoms: C_17  and  N_21
REMARK                            x       y       z     vdW  Elec       q    Type
REMARK                         _______ _______ _______ _____ _____    ______ ____
ROOT
ATOM      1  O   UNL     1      33.564  -1.786 -26.756  0.00  0.00    -0.270 OA
ATOM      2  O   UNL     1      31.665  -3.411 -22.921  0.00  0.00    -0.270 OA
ATOM      3  N   UNL     1      32.524  -2.231 -24.727  0.00  0.00    -0.248 N 
ATOM      4  C   UNL     1      33.289  -4.025 -25.912  0.00  0.00    +0.059 C 
ATOM      5  C   UNL     1      32.740  -4.502 -24.780  0.00  0.00    +0.059 C 
ATOM      6  C   UNL     1      33.160  -2.546 -25.892  0.00  0.00    +0.252 C 
ATOM      7  C   UNL     1      32.235  -3.346 -23.998  0.00  0.00    +0.252 C 
ATOM      8  H   UNL     1      32.303  -1.313 -24.447  0.00  0.00    +0.158 HD
ENDROOT
BRANCH   4  10
ATOM      9  N   UNL     1      34.182  -5.965 -28.812  0.00  0.00    -0.284 N 
ATOM     10  C   UNL     1      33.923  -4.729 -26.983  0.00  0.00    +0.021 C 
ATOM     11  C   UNL     1      35.317  -4.851 -27.248  0.00  0.00    +0.015 C 
ATOM     12  C   UNL     1      35.452  -5.630 -28.401  0.00  0.00    +0.053 C 
ATOM     13  C   UNL     1      33.252  -5.427 -27.964  0.00  0.00    +0.066 C 
ATOM     14  C   UNL     1      36.481  -4.370 -26.616  0.00  0.00    +0.003 C 
ATOM     15  C   UNL     1      36.696  -5.952 -28.954  0.00  0.00    +0.039 C 
ATOM     16  C   UNL     1      33.859  -6.769 -29.972  0.00  0.00    +0.117 C 
ATOM     17  C   UNL     1      37.836  -5.465 -28.309  0.00  0.00    +0.144 C 
ATOM     18  C   UNL     1      37.733  -4.685 -27.159  0.00  0.00    +0.024 C 
BRANCH  17  21
ATOM     19  O   UNL     1      39.974  -4.856 -28.920  0.00  0.00    -0.126 OA
ATOM     20  O   UNL     1      39.362  -6.945 -29.202  0.00  0.00    -0.126 OA
ATOM     21  N   UNL     1      39.120  -5.770 -28.836  0.00  0.00    +0.058 N 
ENDBRANCH  17  21
ENDBRANCH   4  10
BRANCH   5  23
ATOM     22  N   UNL     1      31.656  -7.746 -23.661  0.00  0.00    -0.284 N 
ATOM     23  C   UNL     1      32.602  -5.854 -24.335  0.00  0.00    +0.021 C 
ATOM     24  C   UNL     1      33.632  -6.806 -24.099  0.00  0.00    +0.015 C 
ATOM     25  C   UNL     1      33.011  -7.985 -23.678  0.00  0.00    +0.052 C 
ATOM     26  C   UNL     1      31.398  -6.461 -24.056  0.00  0.00    +0.066 C 
ATOM     27  C   UNL     1      35.037  -6.779 -24.205  0.00  0.00    +0.001 C 
ATOM     28  C   UNL     1      33.730  -9.142 -23.355  0.00  0.00    +0.015 C 
ATOM     29  C   UNL     1      30.639  -8.701 -23.279  0.00  0.00    +0.117 C 
ATOM     30  C   UNL     1      35.767  -7.930 -23.885  0.00  0.00    +0.000 C 
ATOM     31  C   UNL     1      35.122  -9.092 -23.467  0.00  0.00    +0.001 C 
ENDBRANCH   5  23
TORSDOF 3
ENDMDL
MODEL 8
REMARK VINA RESULT:      -8.7     18.010     22.257
REMARK  Name = 5327686
REMARK  3 active torsions:
REMARK  status: ('A' for Active; 'I' for Inactive)
REMARK    1  A    between atoms: C_4  and  C_10
REMARK    2  A    between atoms: C_5  and  C_23
REMARK    3  A    between atoms: C_17  and  N_21
REMARK                            x       y       z     vdW  Elec       q    Type
REMARK                         _______ _______ _______ _____ _____    ______ ____
ROOT
ATOM      1  O   UNL     1      29.652  -1.864 -26.000  0.00  0.00    -0.270 OA
ATOM      2  O   UNL     1      32.414  -2.198 -29.636  0.00  0.00    -0.270 OA
ATOM      3  N   UNL     1      30.781  -1.814 -28.030  0.00  0.00    -0.248 N 
ATOM      4  C   UNL     1      31.778  -2.951 -26.321  0.00  0.00    +0.059 C 
ATOM      5  C   UNL     1      32.584  -3.059 -27.393  0.00  0.00    +0.059 C 
ATOM      6  C   UNL     1      30.595  -2.146 -26.720  0.00  0.00    +0.252 C 
ATOM      7  C   UNL     1      31.950  -2.321 -28.514  0.00  0.00    +0.252 C 
ATOM      8  H   UNL     1      30.148  -1.277 -28.560  0.00  0.00    +0.158 HD
ENDROOT
BRANCH   4  10
ATOM      9  N   UNL     1      32.021  -3.619 -22.790  0.00  0.00    -0.284 N 
ATOM     10  C   UNL     1      31.932  -3.495 -25.008  0.00  0.00    +0.021 C 
ATOM     11  C   UNL     1      32.231  -4.840 -24.645  0.00  0.00    +0.015 C 
ATOM     12  C   UNL     1      32.280  -4.890 -23.249  0.00  0.00    +0.053 C 
ATOM     13  C   UNL     1      31.810  -2.769 -23.843  0.00  0.00    +0.066 C 
ATOM     14  C   UNL     1      32.462  -6.024 -25.373  0.00  0.00    +0.003 C 
ATOM     15  C   UNL     1      32.550  -6.068 -22.545  0.00  0.00    +0.039 C 
ATOM     16  C   UNL     1      31.975  -3.220 -21.399  0.00  0.00    +0.117 C 
ATOM     17  C   UNL     1      32.778  -7.229 -23.289  0.00  0.00    +0.144 C 
ATOM     18  C   UNL     1      32.734  -7.210 -24.681  0.00  0.00    +0.024 C 
BRANCH  17  21
ATOM     19  O   UNL     1      33.499  -9.419 -23.272  0.00  0.00    -0.126 OA
ATOM     20  O   UNL     1      32.857  -8.516 -21.377  0.00  0.00    -0.126 OA
ATOM     21  N   UNL     1      33.058  -8.447 -22.613  0.00  0.00    +0.058 N 
ENDBRANCH  17  21
ENDBRANCH   4  10
BRANCH   5  23
ATOM     22  N   UNL     1      35.981  -4.228 -27.188  0.00  0.00    -0.284 N 
ATOM     23  C   UNL     1      33.846  -3.719 -27.520  0.00  0.00    +0.021 C 
ATOM     24  C   UNL     1      34.181  -4.807 -28.372  0.00  0.00    +0.015 C 
ATOM     25  C   UNL     1      35.526  -5.107 -28.144  0.00  0.00    +0.052 C 
ATOM     26  C   UNL     1      34.974  -3.385 -26.804  0.00  0.00    +0.066 C 
ATOM     27  C   UNL     1      33.467  -5.569 -29.318  0.00  0.00    +0.001 C 
ATOM     28  C   UNL     1      36.195  -6.135 -28.819  0.00  0.00    +0.015 C 
ATOM     29  C   UNL     1      37.327  -4.185 -26.658  0.00  0.00    +0.117 C 
ATOM     30  C   UNL     1      34.123  -6.600 -30.000  0.00  0.00    +0.000 C 
ATOM     31  C   UNL     1      35.467  -6.877 -29.753  0.00  0.00    +0.001 C 
ENDBRANCH   5  23
TORSDOF 3
ENDMDL
MODEL 9
REMARK VINA RESULT:      -8.7     16.449     21.272
REMARK  Name = 5327686
REMARK  3 active torsions:
REMARK  status: ('A' for Active; 'I' for Inactive)
REMARK    1  A    between atoms: C_4  and  C_10
REMARK    2  A    between atoms: C_5  and  C_23
REMARK    3  A    between atoms: C_17  and  N_21
REMARK                            x       y       z     vdW  Elec       q    Type
REMARK                         _______ _______ _______ _____ _____    ______ ____
ROOT
ATOM      1  O   UNL     1      30.817  -4.259 -22.643  0.00  0.00    -0.270 OA
ATOM      2  O   UNL     1      31.343  -1.903 -26.533  0.00  0.00    -0.270 OA
ATOM      3  N   UNL     1      30.804  -2.825 -24.471  0.00  0.00    -0.248 N 
ATOM      4  C   UNL     1      32.263  -4.578 -24.544  0.00  0.00    +0.059 C 
ATOM      5  C   UNL     1      32.409  -3.892 -25.692  0.00  0.00    +0.059 C 
ATOM      6  C   UNL     1      31.217  -3.898 -23.738  0.00  0.00    +0.252 C 
ATOM      7  C   UNL     1      31.467  -2.744 -25.659  0.00  0.00    +0.252 C 
ATOM      8  H   UNL     1      30.112  -2.188 -24.179  0.00  0.00    +0.158 HD
ENDROOT
BRANCH   4  10
ATOM      9  N   UNL     1      34.559  -7.163 -23.535  0.00  0.00    -0.284 N 
ATOM     10  C   UNL     1      32.926  -5.765 -24.102  0.00  0.00    +0.021 C 
ATOM     11  C   UNL     1      32.340  -7.002 -23.708  0.00  0.00    +0.015 C 
ATOM     12  C   UNL     1      33.385  -7.861 -23.357  0.00  0.00    +0.053 C 
ATOM     13  C   UNL     1      34.293  -5.898 -23.985  0.00  0.00    +0.066 C 
ATOM     14  C   UNL     1      31.016  -7.474 -23.614  0.00  0.00    +0.003 C 
ATOM     15  C   UNL     1      33.171  -9.171 -22.916  0.00  0.00    +0.039 C 
ATOM     16  C   UNL     1      35.889  -7.678 -23.288  0.00  0.00    +0.117 C 
ATOM     17  C   UNL     1      31.849  -9.617 -22.833  0.00  0.00    +0.144 C 
ATOM     18  C   UNL     1      30.787  -8.784 -23.175  0.00  0.00    +0.024 C 
BRANCH  17  21
ATOM     19  O   UNL     1      30.564 -11.160 -21.700  0.00  0.00    -0.126 OA
ATOM     20  O   UNL     1      32.385 -11.857 -22.708  0.00  0.00    -0.126 OA
ATOM     21  N   UNL     1      31.586 -10.942 -22.392  0.00  0.00    +0.058 N 
ENDBRANCH  17  21
ENDBRANCH   4  10
BRANCH   5  23
ATOM     22  N   UNL     1      34.177  -5.068 -28.597  0.00  0.00    -0.284 N 
ATOM     23  C   UNL     1      33.296  -4.131 -26.789  0.00  0.00    +0.021 C 
ATOM     24  C   UNL     1      34.458  -3.394 -27.149  0.00  0.00    +0.015 C 
ATOM     25  C   UNL     1      34.992  -4.003 -28.288  0.00  0.00    +0.052 C 
ATOM     26  C   UNL     1      33.150  -5.155 -27.697  0.00  0.00    +0.066 C 
ATOM     27  C   UNL     1      35.108  -2.263 -26.616  0.00  0.00    +0.001 C 
ATOM     28  C   UNL     1      36.149  -3.536 -28.921  0.00  0.00    +0.015 C 
ATOM     29  C   UNL     1      34.368  -5.978 -29.706  0.00  0.00    +0.117 C 
ATOM     30  C   UNL     1      36.267  -1.786 -27.239  0.00  0.00    +0.000 C 
ATOM     31  C   UNL     1      36.778  -2.413 -28.374  0.00  0.00    +0.001 C 
ENDBRANCH   5  23
TORSDOF 3
ENDMDL
