MODEL 1
REMARK VINA RESULT:     -12.2      0.000      0.000
REMARK  Name = 10267580
REMARK  2 active torsions:
REMARK  status: ('A' for Active; 'I' for Inactive)
REMARK    1  A    between atoms: N_1  and  C_21
REMARK    2  A    between atoms: C_7  and  C_14
REMARK                            x       y       z     vdW  Elec       q    Type
REMARK                         _______ _______ _______ _____ _____    ______ ____
ROOT
ATOM      1  N   UNL     1      32.691 -22.620 -18.218  0.00  0.00    -0.290 N 
ATOM      2  N   UNL     1      34.172 -23.464 -16.597  0.00  0.00    -0.327 NA
ATOM      3  N   UNL     1      33.347 -24.301 -14.494  0.00  0.00    -0.342 NA
ATOM      4  C   UNL     1      31.803 -23.450 -16.120  0.00  0.00    +0.143 C 
ATOM      5  C   UNL     1      32.898 -23.195 -16.940  0.00  0.00    +0.184 C 
ATOM      6  C   UNL     1      32.086 -24.022 -14.868  0.00  0.00    +0.133 C 
ATOM      7  C   UNL     1      34.321 -24.008 -15.378  0.00  0.00    +0.165 C 
ATOM      8  C   UNL     1      30.481 -23.160 -16.501  0.00  0.00    -0.011 C 
ATOM      9  C   UNL     1      31.015 -24.290 -14.020  0.00  0.00    +0.029 C 
ATOM     10  C   UNL     1      29.430 -23.440 -15.632  0.00  0.00    -0.004 C 
ATOM     11  C   UNL     1      29.698 -24.005 -14.391  0.00  0.00    +0.002 C 
ATOM     12  H   UNL     1      31.794 -22.746 -18.607  0.00  0.00    +0.154 HD
ENDROOT
BRANCH   7  14
ATOM     13  N   UNL     1      35.797 -25.400 -14.177  0.00  0.00    -0.398 NA
ATOM     14  C   UNL     1      35.668 -24.311 -14.970  0.00  0.00    +0.197 C 
ATOM     15  C   UNL     1      36.736 -23.523 -15.378  0.00  0.00    +0.098 C 
ATOM     16  C   UNL     1      37.051 -25.710 -13.776  0.00  0.00    +0.110 C 
ATOM     17  C   UNL     1      38.010 -23.874 -14.945  0.00  0.00    -0.016 C 
ATOM     18  C   UNL     1      38.178 -24.987 -14.129  0.00  0.00    +0.023 C 
ATOM     19  C   UNL     1      37.194 -26.911 -12.902  0.00  0.00    +0.066 C 
ENDBRANCH   7  14
BRANCH   1  21
ATOM     20  N   UNL     1      35.414 -20.436 -20.561  0.00  0.00    -0.242 NA
ATOM     21  C   UNL     1      33.587 -21.902 -18.988  0.00  0.00    +0.053 C 
ATOM     22  C   UNL     1      33.144 -20.907 -19.875  0.00  0.00    +0.035 C 
ATOM     23  C   UNL     1      34.967 -22.143 -18.909  0.00  0.00    +0.035 C 
ATOM     24  C   UNL     1      34.082 -20.216 -20.626  0.00  0.00    +0.100 C 
ATOM     25  C   UNL     1      35.824 -21.396 -19.702  0.00  0.00    +0.100 C 
ENDBRANCH   1  21
TORSDOF 2
ENDMDL
MODEL 2
REMARK VINA RESULT:     -12.1      1.489      6.732
REMARK  Name = 10267580
REMARK  2 active torsions:
REMARK  status: ('A' for Active; 'I' for Inactive)
REMARK    1  A    between atoms: N_1  and  C_21
REMARK    2  A    between atoms: C_7  and  C_14
REMARK                            x       y       z     vdW  Elec       q    Type
REMARK                         _______ _______ _______ _____ _____    ______ ____
ROOT
ATOM      1  N   UNL     1      35.778 -23.638 -16.243  0.00  0.00    -0.290 N 
ATOM      2  N   UNL     1      33.426 -23.588 -16.212  0.00  0.00    -0.327 NA
ATOM      3  N   UNL     1      32.200 -22.381 -17.898  0.00  0.00    -0.342 NA
ATOM      4  C   UNL     1      34.597 -22.407 -17.966  0.00  0.00    +0.143 C 
ATOM      5  C   UNL     1      34.562 -23.199 -16.822  0.00  0.00    +0.184 C 
ATOM      6  C   UNL     1      33.352 -22.010 -18.483  0.00  0.00    +0.133 C 
ATOM      7  C   UNL     1      32.299 -23.149 -16.795  0.00  0.00    +0.165 C 
ATOM      8  C   UNL     1      35.796 -22.013 -18.585  0.00  0.00    -0.011 C 
ATOM      9  C   UNL     1      33.348 -21.217 -19.627  0.00  0.00    +0.029 C 
ATOM     10  C   UNL     1      35.761 -21.219 -19.728  0.00  0.00    -0.004 C 
ATOM     11  C   UNL     1      34.536 -20.821 -20.249  0.00  0.00    +0.002 C 
ATOM     12  H   UNL     1      36.557 -23.665 -16.846  0.00  0.00    +0.154 HD
ENDROOT
BRANCH   7  14
ATOM     13  N   UNL     1      29.951 -22.963 -16.691  0.00  0.00    -0.398 NA
ATOM     14  C   UNL     1      31.061 -23.541 -16.174  0.00  0.00    +0.197 C 
ATOM     15  C   UNL     1      31.040 -24.448 -15.124  0.00  0.00    +0.098 C 
ATOM     16  C   UNL     1      28.771 -23.311 -16.128  0.00  0.00    +0.110 C 
ATOM     17  C   UNL     1      29.808 -24.781 -14.571  0.00  0.00    -0.016 C 
ATOM     18  C   UNL     1      28.648 -24.206 -15.078  0.00  0.00    +0.023 C 
ATOM     19  C   UNL     1      27.547 -22.676 -16.697  0.00  0.00    +0.066 C 
ENDBRANCH   7  14
BRANCH   1  21
ATOM     20  N   UNL     1      36.487 -24.831 -12.274  0.00  0.00    -0.242 NA
ATOM     21  C   UNL     1      36.011 -24.031 -14.938  0.00  0.00    +0.053 C 
ATOM     22  C   UNL     1      36.124 -23.085 -13.906  0.00  0.00    +0.035 C 
ATOM     23  C   UNL     1      36.143 -25.387 -14.601  0.00  0.00    +0.035 C 
ATOM     24  C   UNL     1      36.358 -23.529 -12.615  0.00  0.00    +0.100 C 
ATOM     25  C   UNL     1      36.376 -25.729 -13.278  0.00  0.00    +0.100 C 
ENDBRANCH   1  21
TORSDOF 2
ENDMDL
MODEL 3
REMARK VINA RESULT:     -11.9      1.316      5.741
REMARK  Name = 10267580
REMARK  2 active torsions:
REMARK  status: ('A' for Active; 'I' for Inactive)
REMARK    1  A    between atoms: N_1  and  C_21
REMARK    2  A    between atoms: C_7  and  C_14
REMARK                            x       y       z     vdW  Elec       q    Type
REMARK                         _______ _______ _______ _____ _____    ______ ____
ROOT
ATOM      1  N   UNL     1      34.792 -25.048 -13.922  0.00  0.00    -0.290 N 
ATOM      2  N   UNL     1      34.441 -23.783 -15.874  0.00  0.00    -0.327 NA
ATOM      3  N   UNL     1      32.209 -23.261 -16.617  0.00  0.00    -0.342 NA
ATOM      4  C   UNL     1      32.523 -24.553 -14.621  0.00  0.00    +0.143 C 
ATOM      5  C   UNL     1      33.894 -24.442 -14.835  0.00  0.00    +0.184 C 
ATOM      6  C   UNL     1      31.695 -23.927 -15.567  0.00  0.00    +0.133 C 
ATOM      7  C   UNL     1      33.553 -23.225 -16.713  0.00  0.00    +0.165 C 
ATOM      8  C   UNL     1      31.976 -25.248 -13.527  0.00  0.00    -0.011 C 
ATOM      9  C   UNL     1      30.318 -24.017 -15.386  0.00  0.00    +0.029 C 
ATOM     10  C   UNL     1      30.595 -25.321 -13.372  0.00  0.00    -0.004 C 
ATOM     11  C   UNL     1      29.766 -24.705 -14.302  0.00  0.00    +0.002 C 
ATOM     12  H   UNL     1      34.440 -25.213 -13.017  0.00  0.00    +0.154 HD
ENDROOT
BRANCH   7  14
ATOM     13  N   UNL     1      33.179 -21.898 -18.626  0.00  0.00    -0.398 NA
ATOM     14  C   UNL     1      34.095 -22.511 -17.840  0.00  0.00    +0.197 C 
ATOM     15  C   UNL     1      35.463 -22.472 -18.074  0.00  0.00    +0.098 C 
ATOM     16  C   UNL     1      33.658 -21.219 -19.693  0.00  0.00    +0.110 C 
ATOM     17  C   UNL     1      35.916 -21.763 -19.182  0.00  0.00    -0.016 C 
ATOM     18  C   UNL     1      35.003 -21.122 -20.011  0.00  0.00    +0.023 C 
ATOM     19  C   UNL     1      32.650 -20.543 -20.561  0.00  0.00    +0.066 C 
ENDBRANCH   7  14
BRANCH   1  21
ATOM     20  N   UNL     1      38.768 -26.241 -14.588  0.00  0.00    -0.242 NA
ATOM     21  C   UNL     1      36.099 -25.439 -14.141  0.00  0.00    +0.053 C 
ATOM     22  C   UNL     1      36.401 -26.732 -14.602  0.00  0.00    +0.035 C 
ATOM     23  C   UNL     1      37.169 -24.560 -13.910  0.00  0.00    +0.035 C 
ATOM     24  C   UNL     1      37.727 -27.076 -14.806  0.00  0.00    +0.100 C 
ATOM     25  C   UNL     1      38.461 -25.002 -14.145  0.00  0.00    +0.100 C 
ENDBRANCH   1  21
TORSDOF 2
ENDMDL
MODEL 4
REMARK VINA RESULT:     -11.3      1.964      6.175
REMARK  Name = 10267580
REMARK  2 active torsions:
REMARK  status: ('A' for Active; 'I' for Inactive)
REMARK    1  A    between atoms: N_1  and  C_21
REMARK    2  A    between atoms: C_7  and  C_14
REMARK                            x       y       z     vdW  Elec       q    Type
REMARK                         _______ _______ _______ _____ _____    ______ ____
ROOT
ATOM      1  N   UNL     1      32.903 -24.873 -13.369  0.00  0.00    -0.290 N 
ATOM      2  N   UNL     1      34.218 -23.800 -14.999  0.00  0.00    -0.327 NA
ATOM      3  N   UNL     1      36.512 -23.226 -14.544  0.00  0.00    -0.342 NA
ATOM      4  C   UNL     1      35.207 -24.319 -12.856  0.00  0.00    +0.143 C 
ATOM      5  C   UNL     1      34.145 -24.313 -13.756  0.00  0.00    +0.184 C 
ATOM      6  C   UNL     1      36.407 -23.747 -13.309  0.00  0.00    +0.133 C 
ATOM      7  C   UNL     1      35.413 -23.281 -15.321  0.00  0.00    +0.165 C 
ATOM      8  C   UNL     1      35.107 -24.860 -11.561  0.00  0.00    -0.011 C 
ATOM      9  C   UNL     1      37.491 -23.735 -12.435  0.00  0.00    +0.029 C 
ATOM     10  C   UNL     1      36.207 -24.834 -10.710  0.00  0.00    -0.004 C 
ATOM     11  C   UNL     1      37.400 -24.270 -11.148  0.00  0.00    +0.002 C 
ATOM     12  H   UNL     1      32.937 -25.537 -12.642  0.00  0.00    +0.154 HD
ENDROOT
BRANCH   7  14
ATOM     13  N   UNL     1      34.403 -22.753 -17.386  0.00  0.00    -0.398 NA
ATOM     14  C   UNL     1      35.534 -22.721 -16.643  0.00  0.00    +0.197 C 
ATOM     15  C   UNL     1      36.738 -22.195 -17.091  0.00  0.00    +0.098 C 
ATOM     16  C   UNL     1      34.486 -22.236 -18.633  0.00  0.00    +0.110 C 
ATOM     17  C   UNL     1      36.783 -21.671 -18.379  0.00  0.00    -0.016 C 
ATOM     18  C   UNL     1      35.640 -21.689 -19.170  0.00  0.00    +0.023 C 
ATOM     19  C   UNL     1      33.240 -22.271 -19.453  0.00  0.00    +0.066 C 
ENDBRANCH   7  14
BRANCH   1  21
ATOM     20  N   UNL     1      29.085 -24.058 -14.930  0.00  0.00    -0.242 NA
ATOM     21  C   UNL     1      31.648 -24.604 -13.882  0.00  0.00    +0.053 C 
ATOM     22  C   UNL     1      30.736 -25.640 -14.147  0.00  0.00    +0.035 C 
ATOM     23  C   UNL     1      31.241 -23.289 -14.156  0.00  0.00    +0.035 C 
ATOM     24  C   UNL     1      29.491 -25.319 -14.661  0.00  0.00    +0.100 C 
ATOM     25  C   UNL     1      29.973 -23.073 -14.670  0.00  0.00    +0.100 C 
ENDBRANCH   1  21
TORSDOF 2
ENDMDL
MODEL 5
REMARK VINA RESULT:     -11.1      1.548      4.969
REMARK  Name = 10267580
REMARK  2 active torsions:
REMARK  status: ('A' for Active; 'I' for Inactive)
REMARK    1  A    between atoms: N_1  and  C_21
REMARK    2  A    between atoms: C_7  and  C_14
REMARK                            x       y       z     vdW  Elec       q    Type
REMARK                         _______ _______ _______ _____ _____    ______ ____
ROOT
ATOM      1  N   UNL     1      31.350 -22.738 -16.839  0.00  0.00    -0.290 N 
ATOM      2  N   UNL     1      33.295 -23.512 -15.765  0.00  0.00    -0.327 NA
ATOM      3  N   UNL     1      35.465 -23.161 -16.749  0.00  0.00    -0.342 NA
ATOM      4  C   UNL     1      33.508 -22.356 -17.876  0.00  0.00    +0.143 C 
ATOM      5  C   UNL     1      32.760 -22.875 -16.824  0.00  0.00    +0.184 C 
ATOM      6  C   UNL     1      34.900 -22.529 -17.792  0.00  0.00    +0.133 C 
ATOM      7  C   UNL     1      34.633 -23.618 -15.793  0.00  0.00    +0.165 C 
ATOM      8  C   UNL     1      32.927 -21.694 -18.972  0.00  0.00    -0.011 C 
ATOM      9  C   UNL     1      35.681 -22.023 -18.828  0.00  0.00    +0.029 C 
ATOM     10  C   UNL     1      33.733 -21.199 -19.993  0.00  0.00    -0.004 C 
ATOM     11  C   UNL     1      35.111 -21.364 -19.920  0.00  0.00    +0.002 C 
ATOM     12  H   UNL     1      30.995 -22.002 -17.389  0.00  0.00    +0.154 HD
ENDROOT
BRANCH   7  14
ATOM     13  N   UNL     1      36.245 -25.148 -15.005  0.00  0.00    -0.398 NA
ATOM     14  C   UNL     1      35.247 -24.294 -14.679  0.00  0.00    +0.197 C 
ATOM     15  C   UNL     1      34.822 -24.064 -13.378  0.00  0.00    +0.098 C 
ATOM     16  C   UNL     1      36.840 -25.800 -13.980  0.00  0.00    +0.110 C 
ATOM     17  C   UNL     1      35.459 -24.753 -12.351  0.00  0.00    -0.016 C 
ATOM     18  C   UNL     1      36.488 -25.638 -12.650  0.00  0.00    +0.023 C 
ATOM     19  C   UNL     1      37.941 -26.741 -14.338  0.00  0.00    +0.066 C 
ENDBRANCH   7  14
BRANCH   1  21
ATOM     20  N   UNL     1      28.487 -25.079 -14.839  0.00  0.00    -0.242 NA
ATOM     21  C   UNL     1      30.409 -23.508 -16.182  0.00  0.00    +0.053 C 
ATOM     22  C   UNL     1      29.038 -23.224 -16.288  0.00  0.00    +0.035 C 
ATOM     23  C   UNL     1      30.792 -24.599 -15.386  0.00  0.00    +0.035 C 
ATOM     24  C   UNL     1      28.134 -24.025 -15.609  0.00  0.00    +0.100 C 
ATOM     25  C   UNL     1      29.810 -25.340 -14.747  0.00  0.00    +0.100 C 
ENDBRANCH   1  21
TORSDOF 2
ENDMDL
MODEL 6
REMARK VINA RESULT:     -11.0      1.670      5.071
REMARK  Name = 10267580
REMARK  2 active torsions:
REMARK  status: ('A' for Active; 'I' for Inactive)
REMARK    1  A    between atoms: N_1  and  C_21
REMARK    2  A    between atoms: C_7  and  C_14
REMARK                            x       y       z     vdW  Elec       q    Type
REMARK                         _______ _______ _______ _____ _____    ______ ____
ROOT
ATOM      1  N   UNL     1      31.718 -23.093 -16.415  0.00  0.00    -0.290 N 
ATOM      2  N   UNL     1      33.788 -23.693 -15.471  0.00  0.00    -0.327 NA
ATOM      3  N   UNL     1      35.851 -23.176 -16.603  0.00  0.00    -0.342 NA
ATOM      4  C   UNL     1      33.762 -22.547 -17.599  0.00  0.00    +0.143 C 
ATOM      5  C   UNL     1      33.132 -23.113 -16.495  0.00  0.00    +0.184 C 
ATOM      6  C   UNL     1      35.166 -22.604 -17.609  0.00  0.00    +0.133 C 
ATOM      7  C   UNL     1      35.126 -23.689 -15.590  0.00  0.00    +0.165 C 
ATOM      8  C   UNL     1      33.055 -21.947 -18.657  0.00  0.00    -0.011 C 
ATOM      9  C   UNL     1      35.831 -22.048 -18.698  0.00  0.00    +0.029 C 
ATOM     10  C   UNL     1      33.747 -21.400 -19.733  0.00  0.00    -0.004 C 
ATOM     11  C   UNL     1      35.136 -21.450 -19.753  0.00  0.00    +0.002 C 
ATOM     12  H   UNL     1      31.266 -22.395 -16.944  0.00  0.00    +0.154 HD
ENDROOT
BRANCH   7  14
ATOM     13  N   UNL     1      36.091 -23.500 -13.447  0.00  0.00    -0.398 NA
ATOM     14  C   UNL     1      35.867 -24.299 -14.516  0.00  0.00    +0.197 C 
ATOM     15  C   UNL     1      36.305 -25.613 -14.604  0.00  0.00    +0.098 C 
ATOM     16  C   UNL     1      36.786 -24.045 -12.422  0.00  0.00    +0.110 C 
ATOM     17  C   UNL     1      37.017 -26.137 -13.530  0.00  0.00    -0.016 C 
ATOM     18  C   UNL     1      37.265 -25.345 -12.415  0.00  0.00    +0.023 C 
ATOM     19  C   UNL     1      37.034 -23.166 -11.242  0.00  0.00    +0.066 C 
ENDBRANCH   7  14
BRANCH   1  21
ATOM     20  N   UNL     1      29.200 -25.639 -14.211  0.00  0.00    -0.242 NA
ATOM     21  C   UNL     1      30.891 -23.930 -15.690  0.00  0.00    +0.053 C 
ATOM     22  C   UNL     1      29.519 -24.020 -15.978  0.00  0.00    +0.035 C 
ATOM     23  C   UNL     1      31.393 -24.718 -14.643  0.00  0.00    +0.035 C 
ATOM     24  C   UNL     1      28.731 -24.873 -15.222  0.00  0.00    +0.100 C 
ATOM     25  C   UNL     1      30.522 -25.541 -13.947  0.00  0.00    +0.100 C 
ENDBRANCH   1  21
TORSDOF 2
ENDMDL
MODEL 7
REMARK VINA RESULT:     -10.8      1.869      6.278
REMARK  Name = 10267580
REMARK  2 active torsions:
REMARK  status: ('A' for Active; 'I' for Inactive)
REMARK    1  A    between atoms: N_1  and  C_21
REMARK    2  A    between atoms: C_7  and  C_14
REMARK                            x       y       z     vdW  Elec       q    Type
REMARK                         _______ _______ _______ _____ _____    ______ ____
ROOT
ATOM      1  N   UNL     1      32.452 -24.898 -13.806  0.00  0.00    -0.290 N 
ATOM      2  N   UNL     1      33.533 -23.789 -15.577  0.00  0.00    -0.327 NA
ATOM      3  N   UNL     1      35.838 -23.116 -15.381  0.00  0.00    -0.342 NA
ATOM      4  C   UNL     1      34.773 -24.244 -13.553  0.00  0.00    +0.143 C 
ATOM      5  C   UNL     1      33.620 -24.291 -14.331  0.00  0.00    +0.184 C 
ATOM      6  C   UNL     1      35.891 -23.628 -14.139  0.00  0.00    +0.133 C 
ATOM      7  C   UNL     1      34.663 -23.224 -16.033  0.00  0.00    +0.165 C 
ATOM      8  C   UNL     1      34.838 -24.775 -12.252  0.00  0.00    -0.011 C 
ATOM      9  C   UNL     1      37.063 -23.561 -13.390  0.00  0.00    +0.029 C 
ATOM     10  C   UNL     1      36.023 -24.694 -11.527  0.00  0.00    -0.004 C 
ATOM     11  C   UNL     1      37.136 -24.087 -12.097  0.00  0.00    +0.002 C 
ATOM     12  H   UNL     1      32.594 -25.552 -13.083  0.00  0.00    +0.154 HD
ENDROOT
BRANCH   7  14
ATOM     13  N   UNL     1      35.784 -22.164 -17.816  0.00  0.00    -0.398 NA
ATOM     14  C   UNL     1      34.615 -22.674 -17.362  0.00  0.00    +0.197 C 
ATOM     15  C   UNL     1      33.439 -22.681 -18.099  0.00  0.00    +0.098 C 
ATOM     16  C   UNL     1      35.771 -21.639 -19.062  0.00  0.00    +0.110 C 
ATOM     17  C   UNL     1      33.465 -22.131 -19.377  0.00  0.00    -0.016 C 
ATOM     18  C   UNL     1      34.649 -21.599 -19.874  0.00  0.00    +0.023 C 
ATOM     19  C   UNL     1      37.059 -21.077 -19.563  0.00  0.00    +0.066 C 
ENDBRANCH   7  14
BRANCH   1  21
ATOM     20  N   UNL     1      28.454 -24.258 -14.942  0.00  0.00    -0.242 NA
ATOM     21  C   UNL     1      31.138 -24.687 -14.179  0.00  0.00    +0.053 C 
ATOM     22  C   UNL     1      30.221 -25.750 -14.236  0.00  0.00    +0.035 C 
ATOM     23  C   UNL     1      30.675 -23.405 -14.515  0.00  0.00    +0.035 C 
ATOM     24  C   UNL     1      28.915 -25.487 -14.616  0.00  0.00    +0.100 C 
ATOM     25  C   UNL     1      29.349 -23.246 -14.883  0.00  0.00    +0.100 C 
ENDBRANCH   1  21
TORSDOF 2
ENDMDL
MODEL 8
REMARK VINA RESULT:     -10.3      1.971      5.676
REMARK  Name = 10267580
REMARK  2 active torsions:
REMARK  status: ('A' for Active; 'I' for Inactive)
REMARK    1  A    between atoms: N_1  and  C_21
REMARK    2  A    between atoms: C_7  and  C_14
REMARK                            x       y       z     vdW  Elec       q    Type
REMARK                         _______ _______ _______ _____ _____    ______ ____
ROOT
ATOM      1  N   UNL     1      34.165 -24.480 -12.606  0.00  0.00    -0.290 N 
ATOM      2  N   UNL     1      34.308 -23.673 -14.812  0.00  0.00    -0.327 NA
ATOM      3  N   UNL     1      32.396 -23.752 -16.276  0.00  0.00    -0.342 NA
ATOM      4  C   UNL     1      32.209 -24.584 -14.035  0.00  0.00    +0.143 C 
ATOM      5  C   UNL     1      33.545 -24.238 -13.857  0.00  0.00    +0.184 C 
ATOM      6  C   UNL     1      31.661 -24.314 -15.300  0.00  0.00    +0.133 C 
ATOM      7  C   UNL     1      33.678 -23.462 -15.979  0.00  0.00    +0.165 C 
ATOM      8  C   UNL     1      31.431 -25.174 -13.021  0.00  0.00    -0.011 C 
ATOM      9  C   UNL     1      30.327 -24.648 -15.515  0.00  0.00    +0.029 C 
ATOM     10  C   UNL     1      30.100 -25.497 -13.265  0.00  0.00    -0.004 C 
ATOM     11  C   UNL     1      29.548 -25.234 -14.513  0.00  0.00    +0.002 C 
ATOM     12  H   UNL     1      33.560 -24.552 -11.832  0.00  0.00    +0.154 HD
ENDROOT
BRANCH   7  14
ATOM     13  N   UNL     1      35.614 -22.282 -16.626  0.00  0.00    -0.398 NA
ATOM     14  C   UNL     1      34.458 -22.860 -17.029  0.00  0.00    +0.197 C 
ATOM     15  C   UNL     1      34.028 -22.887 -18.349  0.00  0.00    +0.098 C 
ATOM     16  C   UNL     1      36.369 -21.706 -17.590  0.00  0.00    +0.110 C 
ATOM     17  C   UNL     1      34.831 -22.285 -19.311  0.00  0.00    -0.016 C 
ATOM     18  C   UNL     1      36.025 -21.682 -18.932  0.00  0.00    +0.023 C 
ATOM     19  C   UNL     1      37.643 -21.069 -17.148  0.00  0.00    +0.066 C 
ENDBRANCH   7  14
BRANCH   1  21
ATOM     20  N   UNL     1      38.263 -24.937 -11.783  0.00  0.00    -0.242 NA
ATOM     21  C   UNL     1      35.512 -24.631 -12.336  0.00  0.00    +0.053 C 
ATOM     22  C   UNL     1      36.228 -23.639 -11.646  0.00  0.00    +0.035 C 
ATOM     23  C   UNL     1      36.210 -25.780 -12.741  0.00  0.00    +0.035 C 
ATOM     24  C   UNL     1      37.577 -23.837 -11.400  0.00  0.00    +0.100 C 
ATOM     25  C   UNL     1      37.560 -25.882 -12.446  0.00  0.00    +0.100 C 
ENDBRANCH   1  21
TORSDOF 2
ENDMDL
MODEL 9
REMARK VINA RESULT:      -9.3     10.818     14.663
REMARK  Name = 10267580
REMARK  2 active torsions:
REMARK  status: ('A' for Active; 'I' for Inactive)
REMARK    1  A    between atoms: N_1  and  C_21
REMARK    2  A    between atoms: C_7  and  C_14
REMARK                            x       y       z     vdW  Elec       q    Type
REMARK                         _______ _______ _______ _____ _____    ______ ____
ROOT
ATOM      1  N   UNL     1      32.554  -8.343 -22.883  0.00  0.00    -0.290 N 
ATOM      2  N   UNL     1      32.859 -10.657 -23.180  0.00  0.00    -0.327 NA
ATOM      3  N   UNL     1      32.455 -12.193 -21.368  0.00  0.00    -0.342 NA
ATOM      4  C   UNL     1      32.132  -9.842 -21.024  0.00  0.00    +0.143 C 
ATOM      5  C   UNL     1      32.515  -9.655 -22.349  0.00  0.00    +0.184 C 
ATOM      6  C   UNL     1      32.117 -11.169 -20.564  0.00  0.00    +0.133 C 
ATOM      7  C   UNL     1      32.808 -11.882 -22.631  0.00  0.00    +0.165 C 
ATOM      8  C   UNL     1      31.777  -8.778 -20.175  0.00  0.00    -0.011 C 
ATOM      9  C   UNL     1      31.739 -11.395 -19.243  0.00  0.00    +0.029 C 
ATOM     10  C   UNL     1      31.404  -9.034 -18.859  0.00  0.00    -0.004 C 
ATOM     11  C   UNL     1      31.385 -10.343 -18.393  0.00  0.00    +0.002 C 
ATOM     12  H   UNL     1      31.991  -7.675 -22.427  0.00  0.00    +0.154 HD
ENDROOT
BRANCH   7  14
ATOM     13  N   UNL     1      33.773 -14.021 -22.859  0.00  0.00    -0.398 NA
ATOM     14  C   UNL     1      33.168 -12.983 -23.485  0.00  0.00    +0.197 C 
ATOM     15  C   UNL     1      32.902 -12.953 -24.847  0.00  0.00    +0.098 C 
ATOM     16  C   UNL     1      34.125 -15.071 -23.636  0.00  0.00    +0.110 C 
ATOM     17  C   UNL     1      33.279 -14.052 -25.611  0.00  0.00    -0.016 C 
ATOM     18  C   UNL     1      33.902 -15.134 -25.002  0.00  0.00    +0.023 C 
ATOM     19  C   UNL     1      34.791 -16.215 -22.948  0.00  0.00    +0.066 C 
ENDBRANCH   7  14
BRANCH   1  21
ATOM     20  N   UNL     1      34.776  -6.938 -26.164  0.00  0.00    -0.242 NA
ATOM     21  C   UNL     1      33.284  -7.881 -23.962  0.00  0.00    +0.053 C 
ATOM     22  C   UNL     1      34.686  -7.969 -23.980  0.00  0.00    +0.035 C 
ATOM     23  C   UNL     1      32.650  -7.308 -25.076  0.00  0.00    +0.035 C 
ATOM     24  C   UNL     1      35.372  -7.492 -25.084  0.00  0.00    +0.100 C 
ATOM     25  C   UNL     1      33.427  -6.860 -26.132  0.00  0.00    +0.100 C 
ENDBRANCH   1  21
TORSDOF 2
ENDMDL
