MODEL 1
REMARK VINA RESULT:     -11.5      0.000      0.000
REMARK  Name = 16363
REMARK  6 active torsions:
REMARK  status: ('A' for Active; 'I' for Inactive)
REMARK    1  A    between atoms: N_1  and  C_19
REMARK    2  A    between atoms: C_2  and  N_9
REMARK    3  A    between atoms: C_19  and  C_20
REMARK    4  A    between atoms: C_20  and  C_21
REMARK    5  A    between atoms: C_21  and  C_23
REMARK    6  A    between atoms: C_23  and  C_25
REMARK                            x       y       z     vdW  Elec       q    Type
REMARK                         _______ _______ _______ _____ _____    ______ ____
ROOT
ATOM      1  N   UNL     1      33.805 -15.302 -23.797  0.00  0.00    +0.387 N 
ATOM      2  C   UNL     1      33.942 -12.403 -23.430  0.00  0.00    +0.086 C 
ATOM      3  C   UNL     1      33.191 -13.044 -24.597  0.00  0.00    -0.000 C 
ATOM      4  C   UNL     1      34.025 -13.379 -22.257  0.00  0.00    -0.000 C 
ATOM      5  C   UNL     1      33.787 -14.405 -24.961  0.00  0.00    -0.075 C 
ATOM      6  C   UNL     1      34.593 -14.730 -22.696  0.00  0.00    -0.075 C 
ATOM      7  H   UNL     1      32.846 -15.414 -23.470  0.00  0.00    -0.080 HD
ENDROOT
BRANCH   2   9
ATOM      8  O   UNL     1      31.266 -11.949 -22.115  0.00  0.00    -0.247 OA
ATOM      9  N   UNL     1      33.318 -11.168 -23.027  0.00  0.00    -0.282 N 
ATOM     10  N   UNL     1      31.846  -9.658 -22.197  0.00  0.00    -0.305 N 
ATOM     11  C   UNL     1      33.872  -9.890 -23.182  0.00  0.00    +0.079 A 
ATOM     12  C   UNL     1      32.043 -11.052 -22.409  0.00  0.00    +0.328 A 
ATOM     13  C   UNL     1      32.962  -8.967 -22.669  0.00  0.00    +0.076 A 
ATOM     14  C   UNL     1      35.076  -9.491 -23.722  0.00  0.00    +0.019 C 
ATOM     15  C   UNL     1      33.205  -7.611 -22.669  0.00  0.00    +0.019 C 
ATOM     16  C   UNL     1      35.347  -8.118 -23.733  0.00  0.00    +0.002 C 
ATOM     17  C   UNL     1      34.421  -7.189 -23.213  0.00  0.00    +0.002 C 
ATOM     18  H   UNL     1      31.052  -9.248 -21.783  0.00  0.00    +0.170 HD
ENDBRANCH   2   9
BRANCH   1  19
ATOM     19  C   UNL     1      34.330 -16.615 -24.171  0.00  0.00    -0.077 C 
BRANCH  19  20
ATOM     20  C   UNL     1      35.219 -17.167 -23.056  0.00  0.00    -0.015 C 
BRANCH  20  21
ATOM     21  C   UNL     1      34.890 -18.624 -22.717  0.00  0.00    +0.067 C 
BRANCH  21  23
ATOM     22  O   UNL     1      36.779 -18.755 -21.219  0.00  0.00    -0.291 OA
ATOM     23  C   UNL     1      35.651 -19.150 -21.508  0.00  0.00    +0.173 C 
BRANCH  23  25
ATOM     24  F   UNL     1      33.182 -22.949 -18.245  0.00  0.00    -0.204 F 
ATOM     25  C   UNL     1      34.992 -20.164 -20.636  0.00  0.00    +0.035 C 
ATOM     26  C   UNL     1      33.616 -20.203 -20.592  0.00  0.00    +0.005 C 
ATOM     27  C   UNL     1      35.783 -21.024 -19.908  0.00  0.00    +0.005 C 
ATOM     28  C   UNL     1      32.999 -21.152 -19.777  0.00  0.00    +0.030 C 
ATOM     29  C   UNL     1      35.166 -21.973 -19.093  0.00  0.00    +0.030 C 
ATOM     30  C   UNL     1      33.775 -22.037 -19.027  0.00  0.00    +0.140 C 
ENDBRANCH  23  25
ENDBRANCH  21  23
ENDBRANCH  20  21
ENDBRANCH  19  20
ENDBRANCH   1  19
TORSDOF 6
ENDMDL
MODEL 2
REMARK VINA RESULT:     -11.5      3.731      9.771
REMARK  Name = 16363
REMARK  6 active torsions:
REMARK  status: ('A' for Active; 'I' for Inactive)
REMARK    1  A    between atoms: N_1  and  C_19
REMARK    2  A    between atoms: C_2  and  N_9
REMARK    3  A    between atoms: C_19  and  C_20
REMARK    4  A    between atoms: C_20  and  C_21
REMARK    5  A    between atoms: C_21  and  C_23
REMARK    6  A    between atoms: C_23  and  C_25
REMARK                            x       y       z     vdW  Elec       q    Type
REMARK                         _______ _______ _______ _____ _____    ______ ____
ROOT
ATOM      1  N   UNL     1      33.907 -15.955 -23.329  0.00  0.00    +0.387 N 
ATOM      2  C   UNL     1      35.696 -17.850 -22.000  0.00  0.00    +0.086 C 
ATOM      3  C   UNL     1      35.004 -16.714 -21.247  0.00  0.00    -0.000 C 
ATOM      4  C   UNL     1      34.893 -18.222 -23.247  0.00  0.00    -0.000 C 
ATOM      5  C   UNL     1      34.708 -15.532 -22.173  0.00  0.00    -0.075 C 
ATOM      6  C   UNL     1      34.600 -16.991 -24.107  0.00  0.00    -0.075 C 
ATOM      7  H   UNL     1      33.036 -16.354 -22.980  0.00  0.00    -0.080 HD
ENDROOT
BRANCH   2   9
ATOM      8  O   UNL     1      38.248 -19.011 -20.888  0.00  0.00    -0.247 OA
ATOM      9  N   UNL     1      35.884 -18.998 -21.150  0.00  0.00    -0.282 N 
ATOM     10  N   UNL     1      36.835 -20.616 -19.879  0.00  0.00    -0.305 N 
ATOM     11  C   UNL     1      34.863 -19.824 -20.661  0.00  0.00    +0.079 A 
ATOM     12  C   UNL     1      37.136 -19.473 -20.672  0.00  0.00    +0.328 A 
ATOM     13  C   UNL     1      35.454 -20.815 -19.881  0.00  0.00    +0.076 A 
ATOM     14  C   UNL     1      33.498 -19.770 -20.846  0.00  0.00    +0.019 C 
ATOM     15  C   UNL     1      34.720 -21.795 -19.251  0.00  0.00    +0.019 C 
ATOM     16  C   UNL     1      32.729 -20.754 -20.215  0.00  0.00    +0.002 C 
ATOM     17  C   UNL     1      33.334 -21.756 -19.427  0.00  0.00    +0.002 C 
ATOM     18  H   UNL     1      37.493 -21.174 -19.405  0.00  0.00    +0.170 HD
ENDBRANCH   2   9
BRANCH   1  19
ATOM     19  C   UNL     1      33.589 -14.806 -24.178  0.00  0.00    -0.077 C 
BRANCH  19  20
ATOM     20  C   UNL     1      33.554 -13.525 -23.342  0.00  0.00    -0.015 C 
BRANCH  20  21
ATOM     21  C   UNL     1      32.138 -13.168 -22.884  0.00  0.00    +0.067 C 
BRANCH  21  23
ATOM     22  O   UNL     1      31.982 -13.921 -20.596  0.00  0.00    -0.291 OA
ATOM     23  C   UNL     1      32.020 -12.974 -21.379  0.00  0.00    +0.173 C 
BRANCH  23  25
ATOM     24  F   UNL     1      31.828  -7.771 -19.362  0.00  0.00    -0.204 F 
ATOM     25  C   UNL     1      31.970 -11.585 -20.840  0.00  0.00    +0.035 C 
ATOM     26  C   UNL     1      31.923 -10.533 -21.728  0.00  0.00    +0.005 C 
ATOM     27  C   UNL     1      31.970 -11.405 -19.475  0.00  0.00    +0.005 C 
ATOM     28  C   UNL     1      31.875  -9.234 -21.225  0.00  0.00    +0.030 C 
ATOM     29  C   UNL     1      31.922 -10.105 -18.972  0.00  0.00    +0.030 C 
ATOM     30  C   UNL     1      31.874  -9.019 -19.846  0.00  0.00    +0.140 C 
ENDBRANCH  23  25
ENDBRANCH  21  23
ENDBRANCH  20  21
ENDBRANCH  19  20
ENDBRANCH   1  19
TORSDOF 6
ENDMDL
MODEL 3
REMARK VINA RESULT:     -11.3      3.913      6.705
REMARK  Name = 16363
REMARK  6 active torsions:
REMARK  status: ('A' for Active; 'I' for Inactive)
REMARK    1  A    between atoms: N_1  and  C_19
REMARK    2  A    between atoms: C_2  and  N_9
REMARK    3  A    between atoms: C_19  and  C_20
REMARK    4  A    between atoms: C_20  and  C_21
REMARK    5  A    between atoms: C_21  and  C_23
REMARK    6  A    between atoms: C_23  and  C_25
REMARK                            x       y       z     vdW  Elec       q    Type
REMARK                         _______ _______ _______ _____ _____    ______ ____
ROOT
ATOM      1  N   UNL     1      35.843 -20.318 -19.739  0.00  0.00    +0.387 N 
ATOM      2  C   UNL     1      35.318 -18.806 -22.188  0.00  0.00    +0.086 C 
ATOM      3  C   UNL     1      34.196 -19.408 -21.343  0.00  0.00    -0.000 C 
ATOM      4  C   UNL     1      36.552 -18.555 -21.321  0.00  0.00    -0.000 C 
ATOM      5  C   UNL     1      34.677 -20.639 -20.574  0.00  0.00    -0.075 C 
ATOM      6  C   UNL     1      36.958 -19.813 -20.552  0.00  0.00    -0.075 C 
ATOM      7  H   UNL     1      35.570 -19.582 -19.088  0.00  0.00    -0.080 HD
ENDROOT
BRANCH   2   9
ATOM      8  O   UNL     1      34.641 -18.314 -25.085  0.00  0.00    -0.247 OA
ATOM      9  N   UNL     1      34.889 -17.591 -22.834  0.00  0.00    -0.282 N 
ATOM     10  N   UNL     1      34.213 -16.093 -24.394  0.00  0.00    -0.305 N 
ATOM     11  C   UNL     1      34.698 -16.357 -22.198  0.00  0.00    +0.079 A 
ATOM     12  C   UNL     1      34.590 -17.455 -24.217  0.00  0.00    +0.328 A 
ATOM     13  C   UNL     1      34.283 -15.441 -23.163  0.00  0.00    +0.076 A 
ATOM     14  C   UNL     1      34.858 -15.991 -20.878  0.00  0.00    +0.019 C 
ATOM     15  C   UNL     1      34.008 -14.125 -22.863  0.00  0.00    +0.019 C 
ATOM     16  C   UNL     1      34.584 -14.659 -20.548  0.00  0.00    +0.002 C 
ATOM     17  C   UNL     1      34.165 -13.737 -21.530  0.00  0.00    +0.002 C 
ATOM     18  H   UNL     1      33.946 -15.680 -25.247  0.00  0.00    +0.170 HD
ENDBRANCH   2   9
BRANCH   1  19
ATOM     19  C   UNL     1      36.261 -21.492 -18.971  0.00  0.00    -0.077 C 
BRANCH  19  20
ATOM     20  C   UNL     1      35.153 -22.547 -18.975  0.00  0.00    -0.015 C 
BRANCH  20  21
ATOM     21  C   UNL     1      34.626 -22.841 -17.568  0.00  0.00    +0.067 C 
BRANCH  21  23
ATOM     22  O   UNL     1      32.395 -22.527 -18.433  0.00  0.00    -0.291 OA
ATOM     23  C   UNL     1      33.107 -22.827 -17.476  0.00  0.00    +0.173 C 
BRANCH  23  25
ATOM     24  F   UNL     1      30.706 -24.260 -12.644  0.00  0.00    -0.204 F 
ATOM     25  C   UNL     1      32.465 -23.210 -16.187  0.00  0.00    +0.035 C 
ATOM     26  C   UNL     1      33.272 -23.543 -15.121  0.00  0.00    +0.005 C 
ATOM     27  C   UNL     1      31.091 -23.217 -16.108  0.00  0.00    +0.005 C 
ATOM     28  C   UNL     1      32.673 -23.901 -13.914  0.00  0.00    +0.030 C 
ATOM     29  C   UNL     1      30.492 -23.574 -14.900  0.00  0.00    +0.030 C 
ATOM     30  C   UNL     1      31.281 -23.916 -13.804  0.00  0.00    +0.140 C 
ENDBRANCH  23  25
ENDBRANCH  21  23
ENDBRANCH  20  21
ENDBRANCH  19  20
ENDBRANCH   1  19
TORSDOF 6
ENDMDL
MODEL 4
REMARK VINA RESULT:     -11.1      5.719     12.244
REMARK  Name = 16363
REMARK  6 active torsions:
REMARK  status: ('A' for Active; 'I' for Inactive)
REMARK    1  A    between atoms: N_1  and  C_19
REMARK    2  A    between atoms: C_2  and  N_9
REMARK    3  A    between atoms: C_19  and  C_20
REMARK    4  A    between atoms: C_20  and  C_21
REMARK    5  A    between atoms: C_21  and  C_23
REMARK    6  A    between atoms: C_23  and  C_25
REMARK                            x       y       z     vdW  Elec       q    Type
REMARK                         _______ _______ _______ _____ _____    ______ ____
ROOT
ATOM      1  N   UNL     1      35.553 -22.203 -19.043  0.00  0.00    +0.387 N 
ATOM      2  C   UNL     1      34.371 -22.837 -16.443  0.00  0.00    +0.086 C 
ATOM      3  C   UNL     1      33.679 -23.183 -17.762  0.00  0.00    -0.000 C 
ATOM      4  C   UNL     1      35.882 -22.741 -16.652  0.00  0.00    -0.000 C 
ATOM      5  C   UNL     1      34.093 -22.221 -18.876  0.00  0.00    -0.075 C 
ATOM      6  C   UNL     1      36.226 -21.793 -17.803  0.00  0.00    -0.075 C 
ATOM      7  H   UNL     1      35.856 -23.151 -19.266  0.00  0.00    -0.080 HD
ENDROOT
BRANCH   2   9
ATOM      8  O   UNL     1      36.093 -25.016 -15.268  0.00  0.00    -0.247 OA
ATOM      9  N   UNL     1      34.054 -23.803 -15.421  0.00  0.00    -0.282 N 
ATOM     10  N   UNL     1      34.200 -25.512 -13.941  0.00  0.00    -0.305 N 
ATOM     11  C   UNL     1      32.825 -23.908 -14.756  0.00  0.00    +0.079 A 
ATOM     12  C   UNL     1      34.939 -24.800 -14.928  0.00  0.00    +0.328 A 
ATOM     13  C   UNL     1      32.923 -24.960 -13.848  0.00  0.00    +0.076 A 
ATOM     14  C   UNL     1      31.667 -23.171 -14.885  0.00  0.00    +0.019 C 
ATOM     15  C   UNL     1      31.878 -25.328 -13.029  0.00  0.00    +0.019 C 
ATOM     16  C   UNL     1      30.591 -23.525 -14.064  0.00  0.00    +0.002 C 
ATOM     17  C   UNL     1      30.695 -24.592 -13.146  0.00  0.00    +0.002 C 
ATOM     18  H   UNL     1      34.536 -26.270 -13.410  0.00  0.00    +0.170 HD
ENDBRANCH   2   9
BRANCH   1  19
ATOM     19  C   UNL     1      35.931 -21.318 -20.146  0.00  0.00    -0.077 C 
BRANCH  19  20
ATOM     20  C   UNL     1      34.781 -20.364 -20.475  0.00  0.00    -0.015 C 
BRANCH  20  21
ATOM     21  C   UNL     1      34.827 -19.878 -21.926  0.00  0.00    +0.067 C 
BRANCH  21  23
ATOM     22  O   UNL     1      36.849 -18.573 -21.747  0.00  0.00    -0.291 OA
ATOM     23  C   UNL     1      35.680 -18.633 -22.121  0.00  0.00    +0.173 C 
BRANCH  23  25
ATOM     24  F   UNL     1      33.426 -14.217 -24.688  0.00  0.00    -0.204 F 
ATOM     25  C   UNL     1      35.077 -17.454 -22.807  0.00  0.00    +0.035 C 
ATOM     26  C   UNL     1      35.057 -16.246 -22.146  0.00  0.00    +0.005 C 
ATOM     27  C   UNL     1      34.565 -17.617 -24.074  0.00  0.00    +0.005 C 
ATOM     28  C   UNL     1      34.494 -15.143 -22.787  0.00  0.00    +0.030 C 
ATOM     29  C   UNL     1      34.002 -16.514 -24.715  0.00  0.00    +0.030 C 
ATOM     30  C   UNL     1      33.967 -15.277 -24.073  0.00  0.00    +0.140 C 
ENDBRANCH  23  25
ENDBRANCH  21  23
ENDBRANCH  20  21
ENDBRANCH  19  20
ENDBRANCH   1  19
TORSDOF 6
ENDMDL
MODEL 5
REMARK VINA RESULT:     -11.1      6.380     12.955
REMARK  Name = 16363
REMARK  6 active torsions:
REMARK  status: ('A' for Active; 'I' for Inactive)
REMARK    1  A    between atoms: N_1  and  C_19
REMARK    2  A    between atoms: C_2  and  N_9
REMARK    3  A    between atoms: C_19  and  C_20
REMARK    4  A    between atoms: C_20  and  C_21
REMARK    5  A    between atoms: C_21  and  C_23
REMARK    6  A    between atoms: C_23  and  C_25
REMARK                            x       y       z     vdW  Elec       q    Type
REMARK                         _______ _______ _______ _____ _____    ______ ____
ROOT
ATOM      1  N   UNL     1      34.253 -23.013 -17.927  0.00  0.00    +0.387 N 
ATOM      2  C   UNL     1      34.775 -23.298 -15.062  0.00  0.00    +0.086 C 
ATOM      3  C   UNL     1      33.567 -23.944 -15.741  0.00  0.00    -0.000 C 
ATOM      4  C   UNL     1      35.895 -23.080 -16.079  0.00  0.00    -0.000 C 
ATOM      5  C   UNL     1      33.138 -23.156 -16.980  0.00  0.00    -0.075 C 
ATOM      6  C   UNL     1      35.392 -22.321 -17.308  0.00  0.00    -0.075 C 
ATOM      7  H   UNL     1      34.561 -23.948 -18.194  0.00  0.00    -0.080 HD
ENDROOT
BRANCH   2   9
ATOM      8  O   UNL     1      33.303 -24.143 -12.570  0.00  0.00    -0.247 OA
ATOM      9  N   UNL     1      35.235 -24.095 -13.954  0.00  0.00    -0.282 N 
ATOM     10  N   UNL     1      35.323 -25.230 -11.994  0.00  0.00    -0.305 N 
ATOM     11  C   UNL     1      36.516 -24.650 -13.829  0.00  0.00    +0.079 A 
ATOM     12  C   UNL     1      34.462 -24.445 -12.813  0.00  0.00    +0.328 A 
ATOM     13  C   UNL     1      36.562 -25.345 -12.622  0.00  0.00    +0.076 A 
ATOM     14  C   UNL     1      37.608 -24.591 -14.669  0.00  0.00    +0.019 C 
ATOM     15  C   UNL     1      37.690 -26.011 -12.196  0.00  0.00    +0.019 C 
ATOM     16  C   UNL     1      38.766 -25.260 -14.259  0.00  0.00    +0.002 C 
ATOM     17  C   UNL     1      38.807 -25.962 -13.035  0.00  0.00    +0.002 C 
ATOM     18  H   UNL     1      35.081 -25.627 -11.125  0.00  0.00    +0.170 HD
ENDBRANCH   2   9
BRANCH   1  19
ATOM     19  C   UNL     1      33.815 -22.303 -19.129  0.00  0.00    -0.077 C 
BRANCH  19  20
ATOM     20  C   UNL     1      34.871 -21.280 -19.552  0.00  0.00    -0.015 C 
BRANCH  20  21
ATOM     21  C   UNL     1      34.357 -20.329 -20.637  0.00  0.00    +0.067 C 
BRANCH  21  23
ATOM     22  O   UNL     1      36.503 -19.226 -20.564  0.00  0.00    -0.291 OA
ATOM     23  C   UNL     1      35.394 -19.311 -21.089  0.00  0.00    +0.173 C 
BRANCH  23  25
ATOM     24  F   UNL     1      34.124 -15.904 -25.326  0.00  0.00    -0.204 F 
ATOM     25  C   UNL     1      35.056 -18.401 -22.220  0.00  0.00    +0.035 C 
ATOM     26  C   UNL     1      34.505 -18.942 -23.361  0.00  0.00    +0.005 C 
ATOM     27  C   UNL     1      35.306 -17.054 -22.083  0.00  0.00    +0.005 C 
ATOM     28  C   UNL     1      34.187 -18.092 -24.419  0.00  0.00    +0.030 C 
ATOM     29  C   UNL     1      34.988 -16.204 -23.142  0.00  0.00    +0.030 C 
ATOM     30  C   UNL     1      34.429 -16.721 -24.309  0.00  0.00    +0.140 C 
ENDBRANCH  23  25
ENDBRANCH  21  23
ENDBRANCH  20  21
ENDBRANCH  19  20
ENDBRANCH   1  19
TORSDOF 6
ENDMDL
MODEL 6
REMARK VINA RESULT:     -11.0      3.788     10.366
REMARK  Name = 16363
REMARK  6 active torsions:
REMARK  status: ('A' for Active; 'I' for Inactive)
REMARK    1  A    between atoms: N_1  and  C_19
REMARK    2  A    between atoms: C_2  and  N_9
REMARK    3  A    between atoms: C_19  and  C_20
REMARK    4  A    between atoms: C_20  and  C_21
REMARK    5  A    between atoms: C_21  and  C_23
REMARK    6  A    between atoms: C_23  and  C_25
REMARK                            x       y       z     vdW  Elec       q    Type
REMARK                         _______ _______ _______ _____ _____    ______ ____
ROOT
ATOM      1  N   UNL     1      34.935 -16.370 -24.036  0.00  0.00    +0.387 N 
ATOM      2  C   UNL     1      34.784 -18.355 -21.892  0.00  0.00    +0.086 C 
ATOM      3  C   UNL     1      34.919 -18.749 -23.363  0.00  0.00    -0.000 C 
ATOM      4  C   UNL     1      35.351 -16.953 -21.669  0.00  0.00    -0.000 C 
ATOM      5  C   UNL     1      34.322 -17.682 -24.282  0.00  0.00    -0.075 C 
ATOM      6  C   UNL     1      34.740 -15.944 -22.643  0.00  0.00    -0.075 C 
ATOM      7  H   UNL     1      35.938 -16.455 -24.202  0.00  0.00    -0.080 HD
ENDROOT
BRANCH   2   9
ATOM      8  O   UNL     1      37.713 -18.673 -21.249  0.00  0.00    -0.247 OA
ATOM      9  N   UNL     1      35.433 -19.314 -21.035  0.00  0.00    -0.282 N 
ATOM     10  N   UNL     1      37.008 -20.477 -19.892  0.00  0.00    -0.305 N 
ATOM     11  C   UNL     1      34.787 -20.323 -20.309  0.00  0.00    +0.079 A 
ATOM     12  C   UNL     1      36.832 -19.387 -20.791  0.00  0.00    +0.328 A 
ATOM     13  C   UNL     1      35.761 -21.033 -19.609  0.00  0.00    +0.076 A 
ATOM     14  C   UNL     1      33.451 -20.653 -20.220  0.00  0.00    +0.019 C 
ATOM     15  C   UNL     1      35.453 -22.099 -18.793  0.00  0.00    +0.019 C 
ATOM     16  C   UNL     1      33.113 -21.732 -19.397  0.00  0.00    +0.002 C 
ATOM     17  C   UNL     1      34.104 -22.447 -18.691  0.00  0.00    +0.002 C 
ATOM     18  H   UNL     1      37.869 -20.787 -19.529  0.00  0.00    +0.170 HD
ENDBRANCH   2   9
BRANCH   1  19
ATOM     19  C   UNL     1      34.391 -15.371 -24.957  0.00  0.00    -0.077 C 
BRANCH  19  20
ATOM     20  C   UNL     1      33.329 -14.525 -24.251  0.00  0.00    -0.015 C 
BRANCH  20  21
ATOM     21  C   UNL     1      33.580 -13.023 -24.415  0.00  0.00    +0.067 C 
BRANCH  21  23
ATOM     22  O   UNL     1      32.534 -12.702 -22.264  0.00  0.00    -0.291 OA
ATOM     23  C   UNL     1      33.121 -12.200 -23.220  0.00  0.00    +0.173 C 
BRANCH  23  25
ATOM     24  F   UNL     1      34.214  -6.725 -23.169  0.00  0.00    -0.204 F 
ATOM     25  C   UNL     1      33.412 -10.738 -23.205  0.00  0.00    +0.035 C 
ATOM     26  C   UNL     1      34.649 -10.307 -23.632  0.00  0.00    +0.005 C 
ATOM     27  C   UNL     1      32.435  -9.873 -22.767  0.00  0.00    +0.005 C 
ATOM     28  C   UNL     1      34.922  -8.940 -23.620  0.00  0.00    +0.030 C 
ATOM     29  C   UNL     1      32.709  -8.505 -22.755  0.00  0.00    +0.030 C 
ATOM     30  C   UNL     1      33.951  -8.038 -23.181  0.00  0.00    +0.140 C 
ENDBRANCH  23  25
ENDBRANCH  21  23
ENDBRANCH  20  21
ENDBRANCH  19  20
ENDBRANCH   1  19
TORSDOF 6
ENDMDL
MODEL 7
REMARK VINA RESULT:     -10.9      6.569     12.552
REMARK  Name = 16363
REMARK  6 active torsions:
REMARK  status: ('A' for Active; 'I' for Inactive)
REMARK    1  A    between atoms: N_1  and  C_19
REMARK    2  A    between atoms: C_2  and  N_9
REMARK    3  A    between atoms: C_19  and  C_20
REMARK    4  A    between atoms: C_20  and  C_21
REMARK    5  A    between atoms: C_21  and  C_23
REMARK    6  A    between atoms: C_23  and  C_25
REMARK                            x       y       z     vdW  Elec       q    Type
REMARK                         _______ _______ _______ _____ _____    ______ ____
ROOT
ATOM      1  N   UNL     1      35.805 -22.625 -17.347  0.00  0.00    +0.387 N 
ATOM      2  C   UNL     1      33.629 -23.132 -15.458  0.00  0.00    +0.086 C 
ATOM      3  C   UNL     1      33.503 -23.438 -16.951  0.00  0.00    -0.000 C 
ATOM      4  C   UNL     1      35.098 -23.159 -15.037  0.00  0.00    -0.000 C 
ATOM      5  C   UNL     1      34.405 -22.525 -17.783  0.00  0.00    -0.075 C 
ATOM      6  C   UNL     1      35.950 -22.255 -15.932  0.00  0.00    -0.075 C 
ATOM      7  H   UNL     1      36.097 -23.597 -17.449  0.00  0.00    -0.080 HD
ENDROOT
BRANCH   2   9
ATOM      8  O   UNL     1      34.496 -24.896 -13.171  0.00  0.00    -0.247 OA
ATOM      9  N   UNL     1      32.853 -24.057 -14.671  0.00  0.00    -0.282 N 
ATOM     10  N   UNL     1      32.239 -25.601 -13.130  0.00  0.00    -0.305 N 
ATOM     11  C   UNL     1      31.486 -24.316 -14.835  0.00  0.00    +0.079 A 
ATOM     12  C   UNL     1      33.353 -24.852 -13.603  0.00  0.00    +0.328 A 
ATOM     13  C   UNL     1      31.116 -25.265 -13.885  0.00  0.00    +0.076 A 
ATOM     14  C   UNL     1      30.573 -23.796 -15.729  0.00  0.00    +0.019 C 
ATOM     15  C   UNL     1      29.827 -25.740 -13.779  0.00  0.00    +0.019 C 
ATOM     16  C   UNL     1      29.257 -24.262 -15.641  0.00  0.00    +0.002 C 
ATOM     17  C   UNL     1      28.889 -25.224 -14.677  0.00  0.00    +0.002 C 
ATOM     18  H   UNL     1      32.258 -26.249 -12.389  0.00  0.00    +0.170 HD
ENDBRANCH   2   9
BRANCH   1  19
ATOM     19  C   UNL     1      36.662 -21.787 -18.185  0.00  0.00    -0.077 C 
BRANCH  19  20
ATOM     20  C   UNL     1      36.155 -21.787 -19.628  0.00  0.00    -0.015 C 
BRANCH  20  21
ATOM     21  C   UNL     1      36.185 -20.390 -20.255  0.00  0.00    +0.067 C 
BRANCH  21  23
ATOM     22  O   UNL     1      33.777 -20.400 -20.417  0.00  0.00    -0.291 OA
ATOM     23  C   UNL     1      34.846 -19.957 -20.834  0.00  0.00    +0.173 C 
BRANCH  23  25
ATOM     24  F   UNL     1      34.799 -16.176 -24.941  0.00  0.00    -0.204 F 
ATOM     25  C   UNL     1      34.834 -18.948 -21.930  0.00  0.00    +0.035 C 
ATOM     26  C   UNL     1      34.397 -19.333 -23.178  0.00  0.00    +0.005 C 
ATOM     27  C   UNL     1      35.260 -17.668 -21.655  0.00  0.00    +0.005 C 
ATOM     28  C   UNL     1      34.385 -18.389 -24.204  0.00  0.00    +0.030 C 
ATOM     29  C   UNL     1      35.248 -16.723 -22.681  0.00  0.00    +0.030 C 
ATOM     30  C   UNL     1      34.811 -17.083 -23.955  0.00  0.00    +0.140 C 
ENDBRANCH  23  25
ENDBRANCH  21  23
ENDBRANCH  20  21
ENDBRANCH  19  20
ENDBRANCH   1  19
TORSDOF 6
ENDMDL
MODEL 8
REMARK VINA RESULT:     -10.9      4.449     10.375
REMARK  Name = 16363
REMARK  6 active torsions:
REMARK  status: ('A' for Active; 'I' for Inactive)
REMARK    1  A    between atoms: N_1  and  C_19
REMARK    2  A    between atoms: C_2  and  N_9
REMARK    3  A    between atoms: C_19  and  C_20
REMARK    4  A    between atoms: C_20  and  C_21
REMARK    5  A    between atoms: C_21  and  C_23
REMARK    6  A    between atoms: C_23  and  C_25
REMARK                            x       y       z     vdW  Elec       q    Type
REMARK                         _______ _______ _______ _____ _____    ______ ____
ROOT
ATOM      1  N   UNL     1      31.884 -10.898 -22.698  0.00  0.00    +0.387 N 
ATOM      2  C   UNL     1      33.518 -13.322 -22.808  0.00  0.00    +0.086 C 
ATOM      3  C   UNL     1      32.106 -13.314 -22.222  0.00  0.00    -0.000 C 
ATOM      4  C   UNL     1      33.676 -12.185 -23.817  0.00  0.00    -0.000 C 
ATOM      5  C   UNL     1      31.742 -11.935 -21.668  0.00  0.00    -0.075 C 
ATOM      6  C   UNL     1      33.260 -10.843 -23.212  0.00  0.00    -0.075 C 
ATOM      7  H   UNL     1      31.269 -11.138 -23.475  0.00  0.00    -0.080 HD
ENDROOT
BRANCH   2   9
ATOM      8  O   UNL     1      33.103 -14.232 -25.653  0.00  0.00    -0.247 OA
ATOM      9  N   UNL     1      33.821 -14.593 -23.416  0.00  0.00    -0.282 N 
ATOM     10  N   UNL     1      34.038 -16.276 -24.919  0.00  0.00    -0.305 N 
ATOM     11  C   UNL     1      34.393 -15.691 -22.760  0.00  0.00    +0.079 A 
ATOM     12  C   UNL     1      33.588 -14.932 -24.776  0.00  0.00    +0.328 A 
ATOM     13  C   UNL     1      34.524 -16.721 -23.689  0.00  0.00    +0.076 A 
ATOM     14  C   UNL     1      34.794 -15.848 -21.450  0.00  0.00    +0.019 C 
ATOM     15  C   UNL     1      35.056 -17.949 -23.362  0.00  0.00    +0.019 C 
ATOM     16  C   UNL     1      35.339 -17.086 -21.093  0.00  0.00    +0.002 C 
ATOM     17  C   UNL     1      35.468 -18.125 -22.039  0.00  0.00    +0.002 C 
ATOM     18  H   UNL     1      34.012 -16.803 -25.750  0.00  0.00    +0.170 HD
ENDBRANCH   2   9
BRANCH   1  19
ATOM     19  C   UNL     1      31.484  -9.593 -22.169  0.00  0.00    -0.077 C 
BRANCH  19  20
ATOM     20  C   UNL     1      31.851  -9.489 -20.687  0.00  0.00    -0.015 C 
BRANCH  20  21
ATOM     21  C   UNL     1      32.711  -8.259 -20.386  0.00  0.00    +0.067 C 
BRANCH  21  23
ATOM     22  O   UNL     1      31.389  -6.359 -21.069  0.00  0.00    -0.291 OA
ATOM     23  C   UNL     1      32.379  -7.060 -21.263  0.00  0.00    +0.173 C 
BRANCH  23  25
ATOM     24  F   UNL     1      35.833  -5.781 -25.460  0.00  0.00    -0.204 F 
ATOM     25  C   UNL     1      33.301  -6.718 -22.384  0.00  0.00    +0.035 C 
ATOM     26  C   UNL     1      34.487  -7.409 -22.497  0.00  0.00    +0.005 C 
ATOM     27  C   UNL     1      32.934  -5.725 -23.263  0.00  0.00    +0.005 C 
ATOM     28  C   UNL     1      35.350  -7.090 -23.545  0.00  0.00    +0.030 C 
ATOM     29  C   UNL     1      33.796  -5.406 -24.311  0.00  0.00    +0.030 C 
ATOM     30  C   UNL     1      35.004  -6.088 -24.453  0.00  0.00    +0.140 C 
ENDBRANCH  23  25
ENDBRANCH  21  23
ENDBRANCH  20  21
ENDBRANCH  19  20
ENDBRANCH   1  19
TORSDOF 6
ENDMDL
MODEL 9
REMARK VINA RESULT:     -10.9      3.486      9.597
REMARK  Name = 16363
REMARK  6 active torsions:
REMARK  status: ('A' for Active; 'I' for Inactive)
REMARK    1  A    between atoms: N_1  and  C_19
REMARK    2  A    between atoms: C_2  and  N_9
REMARK    3  A    between atoms: C_19  and  C_20
REMARK    4  A    between atoms: C_20  and  C_21
REMARK    5  A    between atoms: C_21  and  C_23
REMARK    6  A    between atoms: C_23  and  C_25
REMARK                            x       y       z     vdW  Elec       q    Type
REMARK                         _______ _______ _______ _____ _____    ______ ____
ROOT
ATOM      1  N   UNL     1      35.328 -16.184 -23.323  0.00  0.00    +0.387 N 
ATOM      2  C   UNL     1      34.862 -18.473 -21.560  0.00  0.00    +0.086 C 
ATOM      3  C   UNL     1      35.331 -18.637 -23.006  0.00  0.00    -0.000 C 
ATOM      4  C   UNL     1      35.273 -17.101 -21.026  0.00  0.00    -0.000 C 
ATOM      5  C   UNL     1      34.870 -17.466 -23.877  0.00  0.00    -0.075 C 
ATOM      6  C   UNL     1      34.815 -15.979 -21.961  0.00  0.00    -0.075 C 
ATOM      7  H   UNL     1      36.346 -16.207 -23.275  0.00  0.00    -0.080 HD
ENDROOT
BRANCH   2   9
ATOM      8  O   UNL     1      37.713 -19.077 -20.786  0.00  0.00    -0.247 OA
ATOM      9  N   UNL     1      35.379 -19.526 -20.724  0.00  0.00    -0.282 N 
ATOM     10  N   UNL     1      36.783 -20.876 -19.566  0.00  0.00    -0.305 N 
ATOM     11  C   UNL     1      34.610 -20.508 -20.086  0.00  0.00    +0.079 A 
ATOM     12  C   UNL     1      36.751 -19.732 -20.413  0.00  0.00    +0.328 A 
ATOM     13  C   UNL     1      35.479 -21.334 -19.377  0.00  0.00    +0.076 A 
ATOM     14  C   UNL     1      33.248 -20.723 -20.084  0.00  0.00    +0.019 C 
ATOM     15  C   UNL     1      35.038 -22.408 -18.635  0.00  0.00    +0.019 C 
ATOM     16  C   UNL     1      32.775 -21.808 -19.337  0.00  0.00    +0.002 C 
ATOM     17  C   UNL     1      33.660 -22.641 -18.621  0.00  0.00    +0.002 C 
ATOM     18  H   UNL     1      37.593 -21.278 -19.176  0.00  0.00    +0.170 HD
ENDBRANCH   2   9
BRANCH   1  19
ATOM     19  C   UNL     1      34.924 -15.079 -24.192  0.00  0.00    -0.077 C 
BRANCH  19  20
ATOM     20  C   UNL     1      33.467 -15.252 -24.625  0.00  0.00    -0.015 C 
BRANCH  20  21
ATOM     21  C   UNL     1      32.698 -13.928 -24.622  0.00  0.00    +0.067 C 
BRANCH  21  23
ATOM     22  O   UNL     1      34.467 -12.340 -24.203  0.00  0.00    -0.291 OA
ATOM     23  C   UNL     1      33.397 -12.825 -23.840  0.00  0.00    +0.173 C 
BRANCH  23  25
ATOM     24  F   UNL     1      30.970 -10.881 -19.203  0.00  0.00    -0.204 F 
ATOM     25  C   UNL     1      32.749 -12.306 -22.602  0.00  0.00    +0.035 C 
ATOM     26  C   UNL     1      32.632 -13.144 -21.516  0.00  0.00    +0.005 C 
ATOM     27  C   UNL     1      32.291 -11.007 -22.590  0.00  0.00    +0.005 C 
ATOM     28  C   UNL     1      32.026 -12.659 -20.358  0.00  0.00    +0.030 C 
ATOM     29  C   UNL     1      31.685 -10.522 -21.432  0.00  0.00    +0.030 C 
ATOM     30  C   UNL     1      31.552 -11.347 -20.316  0.00  0.00    +0.140 C 
ENDBRANCH  23  25
ENDBRANCH  21  23
ENDBRANCH  20  21
ENDBRANCH  19  20
ENDBRANCH   1  19
TORSDOF 6
ENDMDL
