MODEL 1
REMARK VINA RESULT:     -11.5      0.000      0.000
REMARK  Name = 10477723
REMARK  8 active torsions:
REMARK  status: ('A' for Active; 'I' for Inactive)
REMARK    1  A    between atoms: C_1  and  C_9
REMARK    2  A    between atoms: C_2  and  N_24
REMARK    3  A    between atoms: N_8  and  C_13
REMARK    4  A    between atoms: C_11  and  C_21
REMARK    5  A    between atoms: C_12  and  C_20
REMARK    6  A    between atoms: C_21  and  C_22
REMARK    7  A    between atoms: N_24  and  C_26
REMARK    8  A    between atoms: C_26  and  C_29
REMARK                            x       y       z     vdW  Elec       q    Type
REMARK                         _______ _______ _______ _____ _____    ______ ____
ROOT
ATOM      1  C   UNL     1      34.245 -15.654 -23.020  0.00  0.00    +0.067 C 
ATOM      2  C   UNL     1      33.625 -14.416 -22.772  0.00  0.00    +0.049 C 
ATOM      3  C   UNL     1      34.407 -16.124 -24.324  0.00  0.00    +0.006 C 
ATOM      4  C   UNL     1      33.173 -13.664 -23.871  0.00  0.00    +0.014 C 
ATOM      5  C   UNL     1      33.951 -15.364 -25.400  0.00  0.00    +0.000 C 
ATOM      6  C   UNL     1      33.334 -14.133 -25.174  0.00  0.00    +0.001 C 
ENDROOT
BRANCH   1   9
ATOM      7  O   UNL     1      34.940 -15.937 -20.818  0.00  0.00    -0.270 OA
ATOM      8  N   UNL     1      34.901 -17.835 -22.197  0.00  0.00    -0.280 N 
ATOM      9  C   UNL     1      34.732 -16.473 -21.917  0.00  0.00    +0.251 C 
ATOM     10  H   UNL     1      34.694 -18.112 -23.119  0.00  0.00    +0.155 HD
BRANCH   8  13
ATOM     11  C   UNL     1      36.174 -20.881 -19.625  0.00  0.00    -0.018 C 
ATOM     12  C   UNL     1      34.833 -20.801 -20.003  0.00  0.00    +0.069 C 
ATOM     13  C   UNL     1      35.331 -18.866 -21.327  0.00  0.00    +0.050 C 
ATOM     14  C   UNL     1      37.090 -19.944 -20.105  0.00  0.00    -0.003 C 
ATOM     15  C   UNL     1      34.409 -19.786 -20.860  0.00  0.00    +0.018 C 
ATOM     16  C   UNL     1      36.665 -18.929 -20.962  0.00  0.00    +0.014 C 
BRANCH  12  20
ATOM     17  F   UNL     1      34.204 -23.091 -19.710  0.00  0.00    -0.166 F 
ATOM     18  F   UNL     1      33.600 -21.699 -18.160  0.00  0.00    -0.166 F 
ATOM     19  F   UNL     1      32.616 -21.656 -20.099  0.00  0.00    -0.166 F 
ATOM     20  C   UNL     1      33.835 -21.793 -19.501  0.00  0.00    +0.418 C 
ENDBRANCH  12  20
BRANCH  11  21
ATOM     21  C   UNL     1      36.651 -21.959 -18.709  0.00  0.00    +0.026 C 
BRANCH  21  22
ATOM     22  C   UNL     1      36.863 -21.450 -17.276  0.00  0.00    +0.005 C 
ATOM     23  C   UNL     1      36.721 -22.563 -16.252  0.00  0.00    +0.000 C 
ENDBRANCH  21  22
ENDBRANCH  11  21
ENDBRANCH   8  13
ENDBRANCH   1   9
BRANCH   2  24
ATOM     24  N   UNL     1      33.454 -13.931 -21.481  0.00  0.00    -0.329 N 
ATOM     25  H   UNL     1      34.258 -13.770 -20.937  0.00  0.00    +0.147 HD
BRANCH  24  26
ATOM     26  C   UNL     1      32.174 -13.647 -20.893  0.00  0.00    +0.116 C 
BRANCH  26  29
ATOM     27  O   UNL     1      31.693  -8.183 -20.003  0.00  0.00    -0.270 OA
ATOM     28  N   UNL     1      31.798  -9.951 -21.485  0.00  0.00    -0.280 N 
ATOM     29  C   UNL     1      32.041 -12.170 -20.702  0.00  0.00    +0.012 C 
ATOM     30  C   UNL     1      31.916 -11.300 -21.716  0.00  0.00    +0.061 C 
ATOM     31  C   UNL     1      32.049 -11.659 -19.346  0.00  0.00    +0.003 C 
ATOM     32  C   UNL     1      31.936 -10.349 -19.090  0.00  0.00    +0.058 C 
ATOM     33  C   UNL     1      31.797  -9.387 -20.221  0.00  0.00    +0.250 C 
ATOM     34  H   UNL     1      31.707  -9.353 -22.262  0.00  0.00    +0.155 HD
ENDBRANCH  26  29
ENDBRANCH  24  26
ENDBRANCH   2  24
TORSDOF 8
ENDMDL
MODEL 2
REMARK VINA RESULT:     -11.1      6.293     11.411
REMARK  Name = 10477723
REMARK  8 active torsions:
REMARK  status: ('A' for Active; 'I' for Inactive)
REMARK    1  A    between atoms: C_1  and  C_9
REMARK    2  A    between atoms: C_2  and  N_24
REMARK    3  A    between atoms: N_8  and  C_13
REMARK    4  A    between atoms: C_11  and  C_21
REMARK    5  A    between atoms: C_12  and  C_20
REMARK    6  A    between atoms: C_21  and  C_22
REMARK    7  A    between atoms: N_24  and  C_26
REMARK    8  A    between atoms: C_26  and  C_29
REMARK                            x       y       z     vdW  Elec       q    Type
REMARK                         _______ _______ _______ _____ _____    ______ ____
ROOT
ATOM      1  C   UNL     1      31.324 -23.991 -15.472  0.00  0.00    +0.067 C 
ATOM      2  C   UNL     1      31.662 -24.888 -14.443  0.00  0.00    +0.049 C 
ATOM      3  C   UNL     1      30.001 -23.856 -15.896  0.00  0.00    +0.006 C 
ATOM      4  C   UNL     1      30.634 -25.645 -13.851  0.00  0.00    +0.014 C 
ATOM      5  C   UNL     1      28.996 -24.616 -15.298  0.00  0.00    +0.000 C 
ATOM      6  C   UNL     1      29.313 -25.510 -14.275  0.00  0.00    +0.001 C 
ENDROOT
BRANCH   1   9
ATOM      7  O   UNL     1      33.337 -22.826 -15.457  0.00  0.00    -0.270 OA
ATOM      8  N   UNL     1      32.137 -22.897 -17.473  0.00  0.00    -0.280 N 
ATOM      9  C   UNL     1      32.350 -23.184 -16.118  0.00  0.00    +0.251 C 
ATOM     10  H   UNL     1      31.304 -23.251 -17.860  0.00  0.00    +0.155 HD
BRANCH   8  13
ATOM     11  C   UNL     1      34.581 -20.729 -20.089  0.00  0.00    -0.018 C 
ATOM     12  C   UNL     1      35.154 -21.534 -19.104  0.00  0.00    +0.069 C 
ATOM     13  C   UNL     1      32.965 -22.164 -18.358  0.00  0.00    +0.050 C 
ATOM     14  C   UNL     1      33.193 -20.647 -20.200  0.00  0.00    -0.003 C 
ATOM     15  C   UNL     1      34.340 -22.257 -18.232  0.00  0.00    +0.018 C 
ATOM     16  C   UNL     1      32.379 -21.369 -19.328  0.00  0.00    +0.014 C 
BRANCH  12  20
ATOM     17  F   UNL     1      37.240 -22.269 -20.016  0.00  0.00    -0.166 F 
ATOM     18  F   UNL     1      37.262 -20.428 -18.869  0.00  0.00    -0.166 F 
ATOM     19  F   UNL     1      37.012 -22.335 -17.854  0.00  0.00    -0.166 F 
ATOM     20  C   UNL     1      36.638 -21.638 -18.966  0.00  0.00    +0.418 C 
ENDBRANCH  12  20
BRANCH  11  21
ATOM     21  C   UNL     1      35.433 -19.947 -21.033  0.00  0.00    +0.026 C 
BRANCH  21  22
ATOM     22  C   UNL     1      34.744 -19.726 -22.387  0.00  0.00    +0.005 C 
ATOM     23  C   UNL     1      35.040 -18.348 -22.956  0.00  0.00    +0.000 C 
ENDBRANCH  21  22
ENDBRANCH  11  21
ENDBRANCH   8  13
ENDBRANCH   1   9
BRANCH   2  24
ATOM     24  N   UNL     1      32.972 -25.038 -14.006  0.00  0.00    -0.329 N 
ATOM     25  H   UNL     1      33.613 -25.480 -14.608  0.00  0.00    +0.147 HD
BRANCH  24  26
ATOM     26  C   UNL     1      33.449 -24.584 -12.728  0.00  0.00    +0.116 C 
BRANCH  26  29
ATOM     27  O   UNL     1      39.004 -24.512 -12.596  0.00  0.00    -0.270 OA
ATOM     28  N   UNL     1      37.051 -24.977 -13.739  0.00  0.00    -0.280 N 
ATOM     29  C   UNL     1      34.945 -24.583 -12.738  0.00  0.00    +0.012 C 
ATOM     30  C   UNL     1      35.678 -24.999 -13.781  0.00  0.00    +0.061 C 
ATOM     31  C   UNL     1      35.629 -24.104 -11.554  0.00  0.00    +0.003 C 
ATOM     32  C   UNL     1      36.966 -24.071 -11.484  0.00  0.00    +0.058 C 
ATOM     33  C   UNL     1      37.777 -24.535 -12.646  0.00  0.00    +0.250 C 
ATOM     34  H   UNL     1      37.546 -25.293 -14.530  0.00  0.00    +0.155 HD
ENDBRANCH  26  29
ENDBRANCH  24  26
ENDBRANCH   2  24
TORSDOF 8
ENDMDL
MODEL 3
REMARK VINA RESULT:     -11.0      2.092      3.331
REMARK  Name = 10477723
REMARK  8 active torsions:
REMARK  status: ('A' for Active; 'I' for Inactive)
REMARK    1  A    between atoms: C_1  and  C_9
REMARK    2  A    between atoms: C_2  and  N_24
REMARK    3  A    between atoms: N_8  and  C_13
REMARK    4  A    between atoms: C_11  and  C_21
REMARK    5  A    between atoms: C_12  and  C_20
REMARK    6  A    between atoms: C_21  and  C_22
REMARK    7  A    between atoms: N_24  and  C_26
REMARK    8  A    between atoms: C_26  and  C_29
REMARK                            x       y       z     vdW  Elec       q    Type
REMARK                         _______ _______ _______ _____ _____    ______ ____
ROOT
ATOM      1  C   UNL     1      35.074 -18.756 -22.349  0.00  0.00    +0.067 C 
ATOM      2  C   UNL     1      35.028 -17.367 -22.567  0.00  0.00    +0.049 C 
ATOM      3  C   UNL     1      34.646 -19.648 -23.333  0.00  0.00    +0.006 C 
ATOM      4  C   UNL     1      34.542 -16.900 -23.801  0.00  0.00    +0.014 C 
ATOM      5  C   UNL     1      34.166 -19.166 -24.550  0.00  0.00    +0.000 C 
ATOM      6  C   UNL     1      34.114 -17.792 -24.785  0.00  0.00    +0.001 C 
ENDROOT
BRANCH   1   9
ATOM      7  O   UNL     1      36.480 -18.693 -20.496  0.00  0.00    -0.270 OA
ATOM      8  N   UNL     1      34.937 -20.455 -20.629  0.00  0.00    -0.280 N 
ATOM      9  C   UNL     1      35.569 -19.292 -21.087  0.00  0.00    +0.251 C 
ATOM     10  H   UNL     1      34.228 -20.815 -21.210  0.00  0.00    +0.155 HD
BRANCH   8  13
ATOM     11  C   UNL     1      35.670 -22.597 -17.110  0.00  0.00    -0.018 C 
ATOM     12  C   UNL     1      34.386 -22.569 -17.655  0.00  0.00    +0.069 C 
ATOM     13  C   UNL     1      35.184 -21.180 -19.438  0.00  0.00    +0.050 C 
ATOM     14  C   UNL     1      36.709 -21.911 -17.738  0.00  0.00    -0.003 C 
ATOM     15  C   UNL     1      34.141 -21.855 -18.828  0.00  0.00    +0.018 C 
ATOM     16  C   UNL     1      36.464 -21.197 -18.911  0.00  0.00    +0.014 C 
BRANCH  12  20
ATOM     17  F   UNL     1      32.025 -22.852 -17.386  0.00  0.00    -0.166 F 
ATOM     18  F   UNL     1      33.251 -24.637 -17.256  0.00  0.00    -0.166 F 
ATOM     19  F   UNL     1      33.280 -23.182 -15.640  0.00  0.00    -0.166 F 
ATOM     20  C   UNL     1      33.257 -23.296 -16.999  0.00  0.00    +0.418 C 
ENDBRANCH  12  20
BRANCH  11  21
ATOM     21  C   UNL     1      35.955 -23.355 -15.855  0.00  0.00    +0.026 C 
BRANCH  21  22
ATOM     22  C   UNL     1      37.412 -23.197 -15.401  0.00  0.00    +0.005 C 
ATOM     23  C   UNL     1      37.907 -24.419 -14.646  0.00  0.00    +0.000 C 
ENDBRANCH  21  22
ENDBRANCH  11  21
ENDBRANCH   8  13
ENDBRANCH   1   9
BRANCH   2  24
ATOM     24  N   UNL     1      35.449 -16.462 -21.600  0.00  0.00    -0.329 N 
ATOM     25  H   UNL     1      36.388 -16.168 -21.619  0.00  0.00    +0.147 HD
BRANCH  24  26
ATOM     26  C   UNL     1      34.595 -15.929 -20.574  0.00  0.00    +0.116 C 
BRANCH  26  29
ATOM     27  O   UNL     1      31.867 -11.448 -22.407  0.00  0.00    -0.270 OA
ATOM     28  N   UNL     1      33.638 -12.917 -22.614  0.00  0.00    -0.280 N 
ATOM     29  C   UNL     1      33.894 -14.718 -21.103  0.00  0.00    +0.012 C 
ATOM     30  C   UNL     1      34.319 -14.023 -22.169  0.00  0.00    +0.061 C 
ATOM     31  C   UNL     1      32.692 -14.281 -20.422  0.00  0.00    +0.003 C 
ATOM     32  C   UNL     1      32.007 -13.206 -20.833  0.00  0.00    +0.058 C 
ATOM     33  C   UNL     1      32.484 -12.437 -22.018  0.00  0.00    +0.250 C 
ATOM     34  H   UNL     1      33.989 -12.441 -23.401  0.00  0.00    +0.155 HD
ENDBRANCH  26  29
ENDBRANCH  24  26
ENDBRANCH   2  24
TORSDOF 8
ENDMDL
MODEL 4
REMARK VINA RESULT:     -10.8      6.819     11.369
REMARK  Name = 10477723
REMARK  8 active torsions:
REMARK  status: ('A' for Active; 'I' for Inactive)
REMARK    1  A    between atoms: C_1  and  C_9
REMARK    2  A    between atoms: C_2  and  N_24
REMARK    3  A    between atoms: N_8  and  C_13
REMARK    4  A    between atoms: C_11  and  C_21
REMARK    5  A    between atoms: C_12  and  C_20
REMARK    6  A    between atoms: C_21  and  C_22
REMARK    7  A    between atoms: N_24  and  C_26
REMARK    8  A    between atoms: C_26  and  C_29
REMARK                            x       y       z     vdW  Elec       q    Type
REMARK                         _______ _______ _______ _____ _____    ______ ____
ROOT
ATOM      1  C   UNL     1      36.458 -24.561 -13.914  0.00  0.00    +0.067 C 
ATOM      2  C   UNL     1      35.598 -24.991 -12.887  0.00  0.00    +0.049 C 
ATOM      3  C   UNL     1      37.832 -24.447 -13.694  0.00  0.00    +0.006 C 
ATOM      4  C   UNL     1      36.157 -25.303 -11.634  0.00  0.00    +0.014 C 
ATOM      5  C   UNL     1      38.366 -24.760 -12.445  0.00  0.00    +0.000 C 
ATOM      6  C   UNL     1      37.529 -25.189 -11.415  0.00  0.00    +0.001 C 
ENDROOT
BRANCH   1   9
ATOM      7  O   UNL     1      35.097 -24.980 -15.753  0.00  0.00    -0.270 OA
ATOM      8  N   UNL     1      36.407 -23.033 -15.791  0.00  0.00    -0.280 N 
ATOM      9  C   UNL     1      35.931 -24.225 -15.230  0.00  0.00    +0.251 C 
ATOM     10  H   UNL     1      37.069 -22.541 -15.254  0.00  0.00    +0.155 HD
BRANCH   8  13
ATOM     11  C   UNL     1      35.384 -21.293 -19.457  0.00  0.00    -0.018 C 
ATOM     12  C   UNL     1      34.390 -21.827 -18.636  0.00  0.00    +0.069 C 
ATOM     13  C   UNL     1      36.060 -22.444 -17.031  0.00  0.00    +0.050 C 
ATOM     14  C   UNL     1      36.719 -21.340 -19.055  0.00  0.00    -0.003 C 
ATOM     15  C   UNL     1      34.731 -22.407 -17.414  0.00  0.00    +0.018 C 
ATOM     16  C   UNL     1      37.060 -21.920 -17.833  0.00  0.00    +0.014 C 
BRANCH  12  20
ATOM     17  F   UNL     1      32.536 -20.552 -19.450  0.00  0.00    -0.166 F 
ATOM     18  F   UNL     1      32.661 -22.622 -20.085  0.00  0.00    -0.166 F 
ATOM     19  F   UNL     1      32.112 -22.149 -18.035  0.00  0.00    -0.166 F 
ATOM     20  C   UNL     1      32.954 -21.788 -19.046  0.00  0.00    +0.418 C 
ENDBRANCH  12  20
BRANCH  11  21
ATOM     21  C   UNL     1      35.043 -20.667 -20.769  0.00  0.00    +0.026 C 
BRANCH  21  22
ATOM     22  C   UNL     1      35.797 -19.349 -20.996  0.00  0.00    +0.005 C 
ATOM     23  C   UNL     1      35.560 -18.794 -22.391  0.00  0.00    +0.000 C 
ENDBRANCH  21  22
ENDBRANCH  11  21
ENDBRANCH   8  13
ENDBRANCH   1   9
BRANCH   2  24
ATOM     24  N   UNL     1      34.228 -25.112 -13.085  0.00  0.00    -0.329 N 
ATOM     25  H   UNL     1      33.883 -25.970 -13.420  0.00  0.00    +0.147 HD
BRANCH  24  26
ATOM     26  C   UNL     1      33.285 -24.059 -12.828  0.00  0.00    +0.116 C 
BRANCH  26  29
ATOM     27  O   UNL     1      28.645 -24.960 -15.751  0.00  0.00    -0.270 OA
ATOM     28  N   UNL     1      30.020 -25.528 -13.984  0.00  0.00    -0.280 N 
ATOM     29  C   UNL     1      32.025 -24.338 -13.584  0.00  0.00    +0.012 C 
ATOM     30  C   UNL     1      31.165 -25.314 -13.255  0.00  0.00    +0.061 C 
ATOM     31  C   UNL     1      31.725 -23.505 -14.731  0.00  0.00    +0.003 C 
ATOM     32  C   UNL     1      30.617 -23.690 -15.461  0.00  0.00    +0.058 C 
ATOM     33  C   UNL     1      29.665 -24.777 -15.091  0.00  0.00    +0.250 C 
ATOM     34  H   UNL     1      29.420 -26.256 -13.703  0.00  0.00    +0.155 HD
ENDBRANCH  26  29
ENDBRANCH  24  26
ENDBRANCH   2  24
TORSDOF 8
ENDMDL
MODEL 5
REMARK VINA RESULT:     -10.8      3.676      6.118
REMARK  Name = 10477723
REMARK  8 active torsions:
REMARK  status: ('A' for Active; 'I' for Inactive)
REMARK    1  A    between atoms: C_1  and  C_9
REMARK    2  A    between atoms: C_2  and  N_24
REMARK    3  A    between atoms: N_8  and  C_13
REMARK    4  A    between atoms: C_11  and  C_21
REMARK    5  A    between atoms: C_12  and  C_20
REMARK    6  A    between atoms: C_21  and  C_22
REMARK    7  A    between atoms: N_24  and  C_26
REMARK    8  A    between atoms: C_26  and  C_29
REMARK                            x       y       z     vdW  Elec       q    Type
REMARK                         _______ _______ _______ _____ _____    ______ ____
ROOT
ATOM      1  C   UNL     1      32.049 -11.259 -20.539  0.00  0.00    +0.067 C 
ATOM      2  C   UNL     1      32.017 -10.047 -21.253  0.00  0.00    +0.049 C 
ATOM      3  C   UNL     1      31.836 -11.280 -19.160  0.00  0.00    +0.006 C 
ATOM      4  C   UNL     1      31.763  -8.859 -20.544  0.00  0.00    +0.014 C 
ATOM      5  C   UNL     1      31.587 -10.092 -18.474  0.00  0.00    +0.000 C 
ATOM      6  C   UNL     1      31.550  -8.881 -19.166  0.00  0.00    +0.001 C 
ENDROOT
BRANCH   1   9
ATOM      7  O   UNL     1      31.551 -12.866 -22.145  0.00  0.00    -0.270 OA
ATOM      8  N   UNL     1      33.433 -13.229 -20.791  0.00  0.00    -0.280 N 
ATOM      9  C   UNL     1      32.307 -12.518 -21.225  0.00  0.00    +0.251 C 
ATOM     10  H   UNL     1      33.936 -12.823 -20.048  0.00  0.00    +0.155 HD
BRANCH   8  13
ATOM     11  C   UNL     1      34.935 -16.858 -22.236  0.00  0.00    -0.018 C 
ATOM     12  C   UNL     1      34.340 -15.950 -23.113  0.00  0.00    +0.069 C 
ATOM     13  C   UNL     1      33.941 -14.457 -21.281  0.00  0.00    +0.050 C 
ATOM     14  C   UNL     1      35.029 -16.555 -20.878  0.00  0.00    -0.003 C 
ATOM     15  C   UNL     1      33.840 -14.741 -22.632  0.00  0.00    +0.018 C 
ATOM     16  C   UNL     1      34.528 -15.346 -20.396  0.00  0.00    +0.014 C 
BRANCH  12  20
ATOM     17  F   UNL     1      33.464 -17.350 -24.844  0.00  0.00    -0.166 F 
ATOM     18  F   UNL     1      33.672 -15.239 -25.297  0.00  0.00    -0.166 F 
ATOM     19  F   UNL     1      35.441 -16.495 -25.150  0.00  0.00    -0.166 F 
ATOM     20  C   UNL     1      34.229 -16.252 -24.572  0.00  0.00    +0.418 C 
ENDBRANCH  12  20
BRANCH  11  21
ATOM     21  C   UNL     1      35.479 -18.158 -22.729  0.00  0.00    +0.026 C 
BRANCH  21  22
ATOM     22  C   UNL     1      34.547 -19.335 -22.407  0.00  0.00    +0.005 C 
ATOM     23  C   UNL     1      34.947 -20.038 -21.121  0.00  0.00    +0.000 C 
ENDBRANCH  21  22
ENDBRANCH  11  21
ENDBRANCH   8  13
ENDBRANCH   1   9
BRANCH   2  24
ATOM     24  N   UNL     1      32.227 -10.004 -22.626  0.00  0.00    -0.329 N 
ATOM     25  H   UNL     1      31.449 -10.123 -23.217  0.00  0.00    +0.147 HD
BRANCH  24  26
ATOM     26  C   UNL     1      33.511  -9.794 -23.235  0.00  0.00    +0.116 C 
BRANCH  26  29
ATOM     27  O   UNL     1      33.949  -4.576 -25.096  0.00  0.00    -0.270 OA
ATOM     28  N   UNL     1      32.684  -6.491 -24.835  0.00  0.00    -0.280 N 
ATOM     29  C   UNL     1      33.583  -8.392 -23.752  0.00  0.00    +0.012 C 
ATOM     30  C   UNL     1      32.566  -7.782 -24.379  0.00  0.00    +0.061 C 
ATOM     31  C   UNL     1      34.820  -7.663 -23.561  0.00  0.00    +0.003 C 
ATOM     32  C   UNL     1      34.965  -6.404 -23.995  0.00  0.00    +0.058 C 
ATOM     33  C   UNL     1      33.832  -5.730 -24.691  0.00  0.00    +0.250 C 
ATOM     34  H   UNL     1      31.910  -6.086 -25.288  0.00  0.00    +0.155 HD
ENDBRANCH  26  29
ENDBRANCH  24  26
ENDBRANCH   2  24
TORSDOF 8
ENDMDL
MODEL 6
REMARK VINA RESULT:     -10.6      6.762      9.958
REMARK  Name = 10477723
REMARK  8 active torsions:
REMARK  status: ('A' for Active; 'I' for Inactive)
REMARK    1  A    between atoms: C_1  and  C_9
REMARK    2  A    between atoms: C_2  and  N_24
REMARK    3  A    between atoms: N_8  and  C_13
REMARK    4  A    between atoms: C_11  and  C_21
REMARK    5  A    between atoms: C_12  and  C_20
REMARK    6  A    between atoms: C_21  and  C_22
REMARK    7  A    between atoms: N_24  and  C_26
REMARK    8  A    between atoms: C_26  and  C_29
REMARK                            x       y       z     vdW  Elec       q    Type
REMARK                         _______ _______ _______ _____ _____    ______ ____
ROOT
ATOM      1  C   UNL     1      34.518 -21.563 -19.501  0.00  0.00    +0.067 C 
ATOM      2  C   UNL     1      35.870 -21.294 -19.221  0.00  0.00    +0.049 C 
ATOM      3  C   UNL     1      33.832 -20.836 -20.475  0.00  0.00    +0.006 C 
ATOM      4  C   UNL     1      36.513 -20.275 -19.947  0.00  0.00    +0.014 C 
ATOM      5  C   UNL     1      34.486 -19.829 -21.183  0.00  0.00    +0.000 C 
ATOM      6  C   UNL     1      35.827 -19.548 -20.920  0.00  0.00    +0.001 C 
ENDROOT
BRANCH   1   9
ATOM      7  O   UNL     1      33.989 -23.792 -19.098  0.00  0.00    -0.270 OA
ATOM      8  N   UNL     1      32.972 -22.171 -17.740  0.00  0.00    -0.280 N 
ATOM      9  C   UNL     1      33.805 -22.608 -18.778  0.00  0.00    +0.251 C 
ATOM     10  H   UNL     1      32.929 -21.197 -17.606  0.00  0.00    +0.155 HD
BRANCH   8  13
ATOM     11  C   UNL     1      30.642 -24.471 -15.133  0.00  0.00    -0.018 C 
ATOM     12  C   UNL     1      30.029 -23.586 -16.020  0.00  0.00    +0.069 C 
ATOM     13  C   UNL     1      32.183 -22.949 -16.858  0.00  0.00    +0.050 C 
ATOM     14  C   UNL     1      32.032 -24.589 -15.115  0.00  0.00    -0.003 C 
ATOM     15  C   UNL     1      30.805 -22.820 -16.889  0.00  0.00    +0.018 C 
ATOM     16  C   UNL     1      32.808 -23.822 -15.984  0.00  0.00    +0.014 C 
BRANCH  12  20
ATOM     17  F   UNL     1      28.005 -23.034 -14.871  0.00  0.00    -0.166 F 
ATOM     18  F   UNL     1      28.105 -22.538 -16.980  0.00  0.00    -0.166 F 
ATOM     19  F   UNL     1      27.912 -24.614 -16.363  0.00  0.00    -0.166 F 
ATOM     20  C   UNL     1      28.542 -23.443 -16.057  0.00  0.00    +0.418 C 
ENDBRANCH  12  20
BRANCH  11  21
ATOM     21  C   UNL     1      29.832 -25.302 -14.194  0.00  0.00    +0.026 C 
BRANCH  21  22
ATOM     22  C   UNL     1      30.414 -25.307 -12.774  0.00  0.00    +0.005 C 
ATOM     23  C   UNL     1      30.856 -23.920 -12.338  0.00  0.00    +0.000 C 
ENDBRANCH  21  22
ENDBRANCH  11  21
ENDBRANCH   8  13
ENDBRANCH   1   9
BRANCH   2  24
ATOM     24  N   UNL     1      36.571 -22.005 -18.255  0.00  0.00    -0.329 N 
ATOM     25  H   UNL     1      36.784 -22.948 -18.439  0.00  0.00    +0.147 HD
BRANCH  24  26
ATOM     26  C   UNL     1      37.004 -21.448 -17.004  0.00  0.00    +0.116 C 
BRANCH  26  29
ATOM     27  O   UNL     1      36.990 -25.426 -13.124  0.00  0.00    -0.270 OA
ATOM     28  N   UNL     1      38.073 -24.344 -14.855  0.00  0.00    -0.280 N 
ATOM     29  C   UNL     1      37.045 -22.532 -15.974  0.00  0.00    +0.012 C 
ATOM     30  C   UNL     1      38.086 -23.364 -15.817  0.00  0.00    +0.061 C 
ATOM     31  C   UNL     1      35.896 -22.684 -15.105  0.00  0.00    +0.003 C 
ATOM     32  C   UNL     1      35.854 -23.630 -14.158  0.00  0.00    +0.058 C 
ATOM     33  C   UNL     1      37.014 -24.553 -13.988  0.00  0.00    +0.250 C 
ATOM     34  H   UNL     1      38.861 -24.929 -14.777  0.00  0.00    +0.155 HD
ENDBRANCH  26  29
ENDBRANCH  24  26
ENDBRANCH   2  24
TORSDOF 8
ENDMDL
MODEL 7
REMARK VINA RESULT:     -10.3      6.262     10.520
REMARK  Name = 10477723
REMARK  8 active torsions:
REMARK  status: ('A' for Active; 'I' for Inactive)
REMARK    1  A    between atoms: C_1  and  C_9
REMARK    2  A    between atoms: C_2  and  N_24
REMARK    3  A    between atoms: N_8  and  C_13
REMARK    4  A    between atoms: C_11  and  C_21
REMARK    5  A    between atoms: C_12  and  C_20
REMARK    6  A    between atoms: C_21  and  C_22
REMARK    7  A    between atoms: N_24  and  C_26
REMARK    8  A    between atoms: C_26  and  C_29
REMARK                            x       y       z     vdW  Elec       q    Type
REMARK                         _______ _______ _______ _____ _____    ______ ____
ROOT
ATOM      1  C   UNL     1      36.407 -23.488 -15.578  0.00  0.00    +0.067 C 
ATOM      2  C   UNL     1      35.335 -24.180 -14.985  0.00  0.00    +0.049 C 
ATOM      3  C   UNL     1      37.727 -23.857 -15.316  0.00  0.00    +0.006 C 
ATOM      4  C   UNL     1      35.627 -25.253 -14.123  0.00  0.00    +0.014 C 
ATOM      5  C   UNL     1      37.996 -24.923 -14.458  0.00  0.00    +0.000 C 
ATOM      6  C   UNL     1      36.946 -25.621 -13.862  0.00  0.00    +0.001 C 
ENDROOT
BRANCH   1   9
ATOM      7  O   UNL     1      36.595 -21.248 -16.176  0.00  0.00    -0.270 OA
ATOM      8  N   UNL     1      35.454 -22.674 -17.649  0.00  0.00    -0.280 N 
ATOM      9  C   UNL     1      36.159 -22.370 -16.478  0.00  0.00    +0.251 C 
ATOM     10  H   UNL     1      35.173 -23.612 -17.749  0.00  0.00    +0.155 HD
BRANCH   8  13
ATOM     11  C   UNL     1      34.383 -20.113 -20.781  0.00  0.00    -0.018 C 
ATOM     12  C   UNL     1      35.701 -20.141 -20.323  0.00  0.00    +0.069 C 
ATOM     13  C   UNL     1      35.093 -21.807 -18.710  0.00  0.00    +0.050 C 
ATOM     14  C   UNL     1      33.424 -20.938 -20.195  0.00  0.00    -0.003 C 
ATOM     15  C   UNL     1      36.058 -20.995 -19.279  0.00  0.00    +0.018 C 
ATOM     16  C   UNL     1      33.781 -21.792 -19.152  0.00  0.00    +0.014 C 
BRANCH  12  20
ATOM     17  F   UNL     1      37.944 -19.312 -20.283  0.00  0.00    -0.166 F 
ATOM     18  F   UNL     1      37.031 -19.585 -22.231  0.00  0.00    -0.166 F 
ATOM     19  F   UNL     1      36.384 -17.952 -20.950  0.00  0.00    -0.166 F 
ATOM     20  C   UNL     1      36.746 -19.267 -20.935  0.00  0.00    +0.418 C 
ENDBRANCH  12  20
BRANCH  11  21
ATOM     21  C   UNL     1      33.978 -19.208 -21.897  0.00  0.00    +0.026 C 
BRANCH  21  22
ATOM     22  C   UNL     1      34.280 -19.815 -23.275  0.00  0.00    +0.005 C 
ATOM     23  C   UNL     1      34.124 -18.795 -24.390  0.00  0.00    +0.000 C 
ENDBRANCH  21  22
ENDBRANCH  11  21
ENDBRANCH   8  13
ENDBRANCH   1   9
BRANCH   2  24
ATOM     24  N   UNL     1      34.013 -23.829 -15.232  0.00  0.00    -0.329 N 
ATOM     25  H   UNL     1      33.756 -23.620 -16.159  0.00  0.00    +0.147 HD
BRANCH  24  26
ATOM     26  C   UNL     1      33.000 -23.753 -14.217  0.00  0.00    +0.116 C 
BRANCH  26  29
ATOM     27  O   UNL     1      27.941 -24.030 -16.501  0.00  0.00    -0.270 OA
ATOM     28  N   UNL     1      30.094 -23.193 -16.539  0.00  0.00    -0.280 N 
ATOM     29  C   UNL     1      31.653 -23.797 -14.866  0.00  0.00    +0.012 C 
ATOM     30  C   UNL     1      31.348 -23.118 -15.982  0.00  0.00    +0.061 C 
ATOM     31  C   UNL     1      30.631 -24.620 -14.251  0.00  0.00    +0.003 C 
ATOM     32  C   UNL     1      29.401 -24.713 -14.771  0.00  0.00    +0.058 C 
ATOM     33  C   UNL     1      29.066 -23.956 -16.012  0.00  0.00    +0.250 C 
ATOM     34  H   UNL     1      29.918 -22.677 -17.359  0.00  0.00    +0.155 HD
ENDBRANCH  26  29
ENDBRANCH  24  26
ENDBRANCH   2  24
TORSDOF 8
ENDMDL
MODEL 8
REMARK VINA RESULT:     -10.2      7.272     12.486
REMARK  Name = 10477723
REMARK  8 active torsions:
REMARK  status: ('A' for Active; 'I' for Inactive)
REMARK    1  A    between atoms: C_1  and  C_9
REMARK    2  A    between atoms: C_2  and  N_24
REMARK    3  A    between atoms: N_8  and  C_13
REMARK    4  A    between atoms: C_11  and  C_21
REMARK    5  A    between atoms: C_12  and  C_20
REMARK    6  A    between atoms: C_21  and  C_22
REMARK    7  A    between atoms: N_24  and  C_26
REMARK    8  A    between atoms: C_26  and  C_29
REMARK                            x       y       z     vdW  Elec       q    Type
REMARK                         _______ _______ _______ _____ _____    ______ ____
ROOT
ATOM      1  C   UNL     1      32.089  -9.784 -21.308  0.00  0.00    +0.067 C 
ATOM      2  C   UNL     1      32.121 -11.185 -21.423  0.00  0.00    +0.049 C 
ATOM      3  C   UNL     1      31.883  -9.174 -20.070  0.00  0.00    +0.006 C 
ATOM      4  C   UNL     1      31.943 -11.956 -20.260  0.00  0.00    +0.014 C 
ATOM      5  C   UNL     1      31.707  -9.955 -18.928  0.00  0.00    +0.000 C 
ATOM      6  C   UNL     1      31.738 -11.346 -19.023  0.00  0.00    +0.001 C 
ENDROOT
BRANCH   1   9
ATOM      7  O   UNL     1      31.501  -9.083 -23.447  0.00  0.00    -0.270 OA
ATOM      8  N   UNL     1      33.301  -7.998 -22.403  0.00  0.00    -0.280 N 
ATOM      9  C   UNL     1      32.268  -8.939 -22.482  0.00  0.00    +0.251 C 
ATOM     10  H   UNL     1      33.825  -8.005 -21.570  0.00  0.00    +0.155 HD
BRANCH   8  13
ATOM     11  C   UNL     1      34.456  -5.159 -25.253  0.00  0.00    -0.018 C 
ATOM     12  C   UNL     1      33.206  -5.063 -24.639  0.00  0.00    +0.069 C 
ATOM     13  C   UNL     1      33.691  -7.036 -23.368  0.00  0.00    +0.050 C 
ATOM     14  C   UNL     1      35.319  -6.201 -24.917  0.00  0.00    -0.003 C 
ATOM     15  C   UNL     1      32.822  -6.009 -23.689  0.00  0.00    +0.018 C 
ATOM     16  C   UNL     1      34.935  -7.147 -23.967  0.00  0.00    +0.014 C 
BRANCH  12  20
ATOM     17  F   UNL     1      32.704  -2.724 -24.588  0.00  0.00    -0.166 F 
ATOM     18  F   UNL     1      32.028  -3.838 -26.322  0.00  0.00    -0.166 F 
ATOM     19  F   UNL     1      31.039  -4.112 -24.404  0.00  0.00    -0.166 F 
ATOM     20  C   UNL     1      32.265  -3.955 -24.983  0.00  0.00    +0.418 C 
ENDBRANCH  12  20
BRANCH  11  21
ATOM     21  C   UNL     1      34.889  -4.157 -26.272  0.00  0.00    +0.026 C 
BRANCH  21  22
ATOM     22  C   UNL     1      35.352  -4.821 -27.577  0.00  0.00    +0.005 C 
ATOM     23  C   UNL     1      34.192  -5.435 -28.343  0.00  0.00    +0.000 C 
ENDBRANCH  21  22
ENDBRANCH  11  21
ENDBRANCH   8  13
ENDBRANCH   1   9
BRANCH   2  24
ATOM     24  N   UNL     1      32.324 -11.813 -22.646  0.00  0.00    -0.329 N 
ATOM     25  H   UNL     1      31.536 -12.152 -23.129  0.00  0.00    +0.147 HD
BRANCH  24  26
ATOM     26  C   UNL     1      33.615 -11.996 -23.250  0.00  0.00    +0.116 C 
BRANCH  26  29
ATOM     27  O   UNL     1      34.202 -17.314 -24.751  0.00  0.00    -0.270 OA
ATOM     28  N   UNL     1      33.403 -15.196 -25.214  0.00  0.00    -0.280 N 
ATOM     29  C   UNL     1      33.749 -13.417 -23.696  0.00  0.00    +0.012 C 
ATOM     30  C   UNL     1      33.252 -13.880 -24.852  0.00  0.00    +0.061 C 
ATOM     31  C   UNL     1      34.454 -14.336 -22.825  0.00  0.00    +0.003 C 
ATOM     32  C   UNL     1      34.617 -15.624 -23.151  0.00  0.00    +0.058 C 
ATOM     33  C   UNL     1      34.062 -16.134 -24.438  0.00  0.00    +0.250 C 
ATOM     34  H   UNL     1      33.021 -15.489 -26.074  0.00  0.00    +0.155 HD
ENDBRANCH  26  29
ENDBRANCH  24  26
ENDBRANCH   2  24
TORSDOF 8
ENDMDL
MODEL 9
REMARK VINA RESULT:     -10.0      6.853     12.475
REMARK  Name = 10477723
REMARK  8 active torsions:
REMARK  status: ('A' for Active; 'I' for Inactive)
REMARK    1  A    between atoms: C_1  and  C_9
REMARK    2  A    between atoms: C_2  and  N_24
REMARK    3  A    between atoms: N_8  and  C_13
REMARK    4  A    between atoms: C_11  and  C_21
REMARK    5  A    between atoms: C_12  and  C_20
REMARK    6  A    between atoms: C_21  and  C_22
REMARK    7  A    between atoms: N_24  and  C_26
REMARK    8  A    between atoms: C_26  and  C_29
REMARK                            x       y       z     vdW  Elec       q    Type
REMARK                         _______ _______ _______ _____ _____    ______ ____
ROOT
ATOM      1  C   UNL     1      31.863  -9.560 -21.162  0.00  0.00    +0.067 C 
ATOM      2  C   UNL     1      32.011 -10.948 -21.342  0.00  0.00    +0.049 C 
ATOM      3  C   UNL     1      31.720  -9.017 -19.885  0.00  0.00    +0.006 C 
ATOM      4  C   UNL     1      32.012 -11.773 -20.203  0.00  0.00    +0.014 C 
ATOM      5  C   UNL     1      31.723  -9.852 -18.768  0.00  0.00    +0.000 C 
ATOM      6  C   UNL     1      31.869 -11.230 -18.927  0.00  0.00    +0.001 C 
ENDROOT
BRANCH   1   9
ATOM      7  O   UNL     1      30.957  -8.777 -23.156  0.00  0.00    -0.270 OA
ATOM      8  N   UNL     1      32.875  -7.702 -22.338  0.00  0.00    -0.280 N 
ATOM      9  C   UNL     1      31.855  -8.661 -22.308  0.00  0.00    +0.251 C 
ATOM     10  H   UNL     1      33.517  -7.735 -21.592  0.00  0.00    +0.155 HD
BRANCH   8  13
ATOM     11  C   UNL     1      33.553  -4.712 -25.187  0.00  0.00    -0.018 C 
ATOM     12  C   UNL     1      34.165  -5.959 -25.325  0.00  0.00    +0.069 C 
ATOM     13  C   UNL     1      33.105  -6.691 -23.303  0.00  0.00    +0.050 C 
ATOM     14  C   UNL     1      32.715  -4.463 -24.100  0.00  0.00    -0.003 C 
ATOM     15  C   UNL     1      33.939  -6.955 -24.375  0.00  0.00    +0.018 C 
ATOM     16  C   UNL     1      32.490  -5.460 -23.151  0.00  0.00    +0.014 C 
BRANCH  12  20
ATOM     17  F   UNL     1      36.107  -5.373 -26.593  0.00  0.00    -0.166 F 
ATOM     18  F   UNL     1      35.641  -7.485 -26.426  0.00  0.00    -0.166 F 
ATOM     19  F   UNL     1      34.412  -6.199 -27.678  0.00  0.00    -0.166 F 
ATOM     20  C   UNL     1      35.065  -6.248 -26.481  0.00  0.00    +0.418 C 
ENDBRANCH  12  20
BRANCH  11  21
ATOM     21  C   UNL     1      33.779  -3.631 -26.191  0.00  0.00    +0.026 C 
BRANCH  21  22
ATOM     22  C   UNL     1      32.480  -3.208 -26.892  0.00  0.00    +0.005 C 
ATOM     23  C   UNL     1      32.452  -3.646 -28.347  0.00  0.00    +0.000 C 
ENDBRANCH  21  22
ENDBRANCH  11  21
ENDBRANCH   8  13
ENDBRANCH   1   9
BRANCH   2  24
ATOM     24  N   UNL     1      32.154 -11.509 -22.605  0.00  0.00    -0.329 N 
ATOM     25  H   UNL     1      31.345 -11.833 -23.062  0.00  0.00    +0.147 HD
BRANCH  24  26
ATOM     26  C   UNL     1      33.413 -11.643 -23.286  0.00  0.00    +0.116 C 
BRANCH  26  29
ATOM     27  O   UNL     1      34.081 -16.933 -24.850  0.00  0.00    -0.270 OA
ATOM     28  N   UNL     1      33.266 -14.818 -25.297  0.00  0.00    -0.280 N 
ATOM     29  C   UNL     1      33.569 -13.057 -23.748  0.00  0.00    +0.012 C 
ATOM     30  C   UNL     1      33.095 -13.509 -24.919  0.00  0.00    +0.061 C 
ATOM     31  C   UNL     1      34.271 -13.979 -22.879  0.00  0.00    +0.003 C 
ATOM     32  C   UNL     1      34.452 -15.262 -23.221  0.00  0.00    +0.058 C 
ATOM     33  C   UNL     1      33.923 -15.759 -24.523  0.00  0.00    +0.250 C 
ATOM     34  H   UNL     1      32.901 -15.102 -26.166  0.00  0.00    +0.155 HD
ENDBRANCH  26  29
ENDBRANCH  24  26
ENDBRANCH   2  24
TORSDOF 8
ENDMDL
