MODEL 1
REMARK VINA RESULT:     -11.4      0.000      0.000
REMARK  Name = 54689025
REMARK  9 active torsions:
REMARK  status: ('A' for Active; 'I' for Inactive)
REMARK    1  A    between atoms: C_1  and  C_21
REMARK    2  A    between atoms: C_4  and  N_8
REMARK    3  A    between atoms: C_9  and  C_11
REMARK    4  A    between atoms: C_11  and  N_13
REMARK    5  A    between atoms: C_14  and  O_16
REMARK    6  A    between atoms: O_16  and  C_17
REMARK    7  A    between atoms: C_21  and  C_24
REMARK    8  A    between atoms: C_21  and  C_35
REMARK    9  A    between atoms: C_25  and  O_33
REMARK                            x       y       z     vdW  Elec       q    Type
REMARK                         _______ _______ _______ _____ _____    ______ ____
ROOT
ATOM      1  C   UNL     1      34.705 -20.445 -20.573  0.00  0.00    -0.017 C 
ATOM      2  C   UNL     1      35.040 -21.314 -19.534  0.00  0.00    +0.011 C 
ATOM      3  C   UNL     1      33.367 -20.136 -20.820  0.00  0.00    -0.004 C 
ATOM      4  C   UNL     1      34.037 -21.872 -18.742  0.00  0.00    +0.050 C 
ATOM      5  C   UNL     1      32.365 -20.696 -20.028  0.00  0.00    +0.001 C 
ATOM      6  C   UNL     1      32.700 -21.563 -18.989  0.00  0.00    +0.015 C 
ENDROOT
BRANCH   4   8
ATOM      7  O   UNL     1      36.384 -21.853 -16.866  0.00  0.00    -0.273 OA
ATOM      8  N   UNL     1      34.372 -22.742 -17.703  0.00  0.00    -0.283 N 
ATOM      9  C   UNL     1      35.487 -22.689 -16.851  0.00  0.00    +0.246 C 
ATOM     10  H   UNL     1      33.746 -23.486 -17.546  0.00  0.00    +0.155 HD
BRANCH   9  11
ATOM     11  C   UNL     1      35.463 -23.834 -15.854  0.00  0.00    +0.179 C 
BRANCH  11  13
ATOM     12  O   UNL     1      36.504 -23.525 -13.160  0.00  0.00    -0.226 OA
ATOM     13  N   UNL     1      36.789 -24.117 -15.387  0.00  0.00    -0.262 N 
ATOM     14  C   UNL     1      37.205 -23.940 -14.078  0.00  0.00    +0.402 C 
ATOM     15  H   UNL     1      37.444 -24.459 -16.037  0.00  0.00    +0.153 HD
BRANCH  14  16
ATOM     16  O   UNL     1      38.518 -24.298 -13.951  0.00  0.00    -0.442 OA
BRANCH  16  17
ATOM     17  C   UNL     1      38.760 -25.660 -13.579  0.00  0.00    +0.138 C 
ATOM     18  C   UNL     1      38.435 -25.825 -12.096  0.00  0.00    +0.044 C 
ATOM     19  C   UNL     1      40.237 -25.952 -13.842  0.00  0.00    +0.044 C 
ATOM     20  C   UNL     1      37.873 -26.562 -14.435  0.00  0.00    +0.044 C 
ENDBRANCH  16  17
ENDBRANCH  14  16
ENDBRANCH  11  13
ENDBRANCH   9  11
ENDBRANCH   4   8
BRANCH   1  21
ATOM     21  C   UNL     1      35.796 -19.837 -21.435  0.00  0.00    +0.054 C 
BRANCH  21  24
ATOM     22  O   UNL     1      34.395 -18.049 -24.465  0.00  0.00    -0.421 OA
ATOM     23  O   UNL     1      35.007 -20.205 -24.070  0.00  0.00    -0.245 OA
ATOM     24  C   UNL     1      35.261 -18.691 -22.251  0.00  0.00    +0.091 A 
ATOM     25  C   UNL     1      35.110 -17.424 -21.819  0.00  0.00    +0.139 A 
ATOM     26  C   UNL     1      34.888 -19.059 -23.648  0.00  0.00    +0.345 A 
ATOM     27  C   UNL     1      34.587 -16.383 -22.706  0.00  0.00    +0.068 A 
ATOM     28  C   UNL     1      34.244 -16.729 -24.009  0.00  0.00    +0.152 A 
ATOM     29  C   UNL     1      34.411 -15.049 -22.315  0.00  0.00    +0.006 C 
ATOM     30  C   UNL     1      33.739 -15.798 -24.918  0.00  0.00    +0.038 C 
ATOM     31  C   UNL     1      33.906 -14.103 -23.214  0.00  0.00    +0.000 C 
ATOM     32  C   UNL     1      33.572 -14.477 -24.514  0.00  0.00    +0.003 C 
BRANCH  25  33
ATOM     33  O   UNL     1      35.418 -16.989 -20.547  0.00  0.00    -0.506 OA
ATOM     34  H   UNL     1      35.826 -17.572 -19.938  0.00  0.00    +0.292 HD
ENDBRANCH  25  33
ENDBRANCH  21  24
BRANCH  21  35
ATOM     35  C   UNL     1      37.034 -19.379 -20.637  0.00  0.00    +0.009 C 
ATOM     36  C   UNL     1      38.160 -18.866 -21.528  0.00  0.00    +0.001 C 
ENDBRANCH  21  35
ENDBRANCH   1  21
TORSDOF 9
ENDMDL
MODEL 2
REMARK VINA RESULT:     -11.3      4.992     11.962
REMARK  Name = 54689025
REMARK  9 active torsions:
REMARK  status: ('A' for Active; 'I' for Inactive)
REMARK    1  A    between atoms: C_1  and  C_21
REMARK    2  A    between atoms: C_4  and  N_8
REMARK    3  A    between atoms: C_9  and  C_11
REMARK    4  A    between atoms: C_11  and  N_13
REMARK    5  A    between atoms: C_14  and  O_16
REMARK    6  A    between atoms: O_16  and  C_17
REMARK    7  A    between atoms: C_21  and  C_24
REMARK    8  A    between atoms: C_21  and  C_35
REMARK    9  A    between atoms: C_25  and  O_33
REMARK                            x       y       z     vdW  Elec       q    Type
REMARK                         _______ _______ _______ _____ _____    ______ ____
ROOT
ATOM      1  C   UNL     1      35.018 -16.763 -21.856  0.00  0.00    -0.017 C 
ATOM      2  C   UNL     1      34.826 -15.667 -22.696  0.00  0.00    +0.011 C 
ATOM      3  C   UNL     1      34.850 -16.624 -20.478  0.00  0.00    -0.004 C 
ATOM      4  C   UNL     1      34.465 -14.431 -22.159  0.00  0.00    +0.050 C 
ATOM      5  C   UNL     1      34.491 -15.388 -19.941  0.00  0.00    +0.001 C 
ATOM      6  C   UNL     1      34.298 -14.292 -20.781  0.00  0.00    +0.015 C 
ENDROOT
BRANCH   4   8
ATOM      7  O   UNL     1      32.190 -12.475 -22.319  0.00  0.00    -0.273 OA
ATOM      8  N   UNL     1      34.274 -13.333 -22.999  0.00  0.00    -0.283 N 
ATOM      9  C   UNL     1      33.187 -12.446 -23.034  0.00  0.00    +0.246 C 
ATOM     10  H   UNL     1      34.993 -13.159 -23.648  0.00  0.00    +0.155 HD
BRANCH   9  11
ATOM     11  C   UNL     1      33.384 -11.388 -24.105  0.00  0.00    +0.179 C 
BRANCH  11  13
ATOM     12  O   UNL     1      35.476  -9.418 -23.680  0.00  0.00    -0.226 OA
ATOM     13  N   UNL     1      33.254 -10.076 -23.541  0.00  0.00    -0.262 N 
ATOM     14  C   UNL     1      34.310  -9.195 -23.373  0.00  0.00    +0.402 C 
ATOM     15  H   UNL     1      32.359  -9.783 -23.255  0.00  0.00    +0.153 HD
BRANCH  14  16
ATOM     16  O   UNL     1      33.864  -8.031 -22.812  0.00  0.00    -0.442 OA
BRANCH  16  17
ATOM     17  C   UNL     1      33.731  -6.920 -23.705  0.00  0.00    +0.138 C 
ATOM     18  C   UNL     1      35.128  -6.446 -24.104  0.00  0.00    +0.044 C 
ATOM     19  C   UNL     1      32.982  -5.817 -22.958  0.00  0.00    +0.044 C 
ATOM     20  C   UNL     1      32.939  -7.373 -24.930  0.00  0.00    +0.044 C 
ENDBRANCH  16  17
ENDBRANCH  14  16
ENDBRANCH  11  13
ENDBRANCH   9  11
ENDBRANCH   4   8
BRANCH   1  21
ATOM     21  C   UNL     1      35.409 -18.108 -22.441  0.00  0.00    +0.054 C 
BRANCH  21  24
ATOM     22  O   UNL     1      36.868 -20.399 -19.803  0.00  0.00    -0.421 OA
ATOM     23  O   UNL     1      37.764 -18.794 -21.142  0.00  0.00    -0.245 OA
ATOM     24  C   UNL     1      35.426 -19.173 -21.377  0.00  0.00    +0.091 A 
ATOM     25  C   UNL     1      34.358 -19.876 -20.956  0.00  0.00    +0.139 A 
ATOM     26  C   UNL     1      36.772 -19.422 -20.785  0.00  0.00    +0.345 A 
ATOM     27  C   UNL     1      34.493 -20.900 -19.917  0.00  0.00    +0.068 A 
ATOM     28  C   UNL     1      35.750 -21.132 -19.370  0.00  0.00    +0.152 A 
ATOM     29  C   UNL     1      33.420 -21.666 -19.441  0.00  0.00    +0.006 C 
ATOM     30  C   UNL     1      35.965 -22.090 -18.377  0.00  0.00    +0.038 C 
ATOM     31  C   UNL     1      33.618 -22.630 -18.445  0.00  0.00    +0.000 C 
ATOM     32  C   UNL     1      34.890 -22.842 -17.916  0.00  0.00    +0.003 C 
BRANCH  25  33
ATOM     33  O   UNL     1      33.075 -19.714 -21.435  0.00  0.00    -0.506 OA
ATOM     34  H   UNL     1      32.558 -20.464 -21.654  0.00  0.00    +0.292 HD
ENDBRANCH  25  33
ENDBRANCH  21  24
BRANCH  21  35
ATOM     35  C   UNL     1      34.517 -18.556 -23.617  0.00  0.00    +0.009 C 
ATOM     36  C   UNL     1      34.910 -19.919 -24.176  0.00  0.00    +0.001 C 
ENDBRANCH  21  35
ENDBRANCH   1  21
TORSDOF 9
ENDMDL
MODEL 3
REMARK VINA RESULT:     -11.2      1.914      3.121
REMARK  Name = 54689025
REMARK  9 active torsions:
REMARK  status: ('A' for Active; 'I' for Inactive)
REMARK    1  A    between atoms: C_1  and  C_21
REMARK    2  A    between atoms: C_4  and  N_8
REMARK    3  A    between atoms: C_9  and  C_11
REMARK    4  A    between atoms: C_11  and  N_13
REMARK    5  A    between atoms: C_14  and  O_16
REMARK    6  A    between atoms: O_16  and  C_17
REMARK    7  A    between atoms: C_21  and  C_24
REMARK    8  A    between atoms: C_21  and  C_35
REMARK    9  A    between atoms: C_25  and  O_33
REMARK                            x       y       z     vdW  Elec       q    Type
REMARK                         _______ _______ _______ _____ _____    ______ ____
ROOT
ATOM      1  C   UNL     1      34.868 -20.551 -20.463  0.00  0.00    -0.017 C 
ATOM      2  C   UNL     1      35.254 -21.384 -19.413  0.00  0.00    +0.011 C 
ATOM      3  C   UNL     1      33.516 -20.291 -20.686  0.00  0.00    -0.004 C 
ATOM      4  C   UNL     1      34.289 -21.956 -18.585  0.00  0.00    +0.050 C 
ATOM      5  C   UNL     1      32.550 -20.864 -19.859  0.00  0.00    +0.001 C 
ATOM      6  C   UNL     1      32.937 -21.696 -18.808  0.00  0.00    +0.015 C 
ENDROOT
BRANCH   4   8
ATOM      7  O   UNL     1      36.492 -21.651 -16.565  0.00  0.00    -0.273 OA
ATOM      8  N   UNL     1      34.675 -22.790 -17.535  0.00  0.00    -0.283 N 
ATOM      9  C   UNL     1      35.718 -22.601 -16.614  0.00  0.00    +0.246 C 
ATOM     10  H   UNL     1      34.148 -23.614 -17.425  0.00  0.00    +0.155 HD
BRANCH   9  11
ATOM     11  C   UNL     1      35.790 -23.756 -15.631  0.00  0.00    +0.179 C 
BRANCH  11  13
ATOM     12  O   UNL     1      34.377 -24.148 -13.123  0.00  0.00    -0.226 OA
ATOM     13  N   UNL     1      34.489 -24.327 -15.435  0.00  0.00    -0.262 N 
ATOM     14  C   UNL     1      33.886 -24.478 -14.198  0.00  0.00    +0.402 C 
ATOM     15  H   UNL     1      33.994 -24.631 -16.230  0.00  0.00    +0.153 HD
BRANCH  14  16
ATOM     16  O   UNL     1      32.654 -25.051 -14.344  0.00  0.00    -0.442 OA
BRANCH  16  17
ATOM     17  C   UNL     1      31.547 -24.145 -14.402  0.00  0.00    +0.138 C 
ATOM     18  C   UNL     1      30.255 -24.941 -14.223  0.00  0.00    +0.044 C 
ATOM     19  C   UNL     1      31.577 -23.470 -15.773  0.00  0.00    +0.044 C 
ATOM     20  C   UNL     1      31.708 -23.110 -13.290  0.00  0.00    +0.044 C 
ENDBRANCH  16  17
ENDBRANCH  14  16
ENDBRANCH  11  13
ENDBRANCH   9  11
ENDBRANCH   4   8
BRANCH   1  21
ATOM     21  C   UNL     1      35.919 -19.928 -21.364  0.00  0.00    +0.054 C 
BRANCH  21  24
ATOM     22  O   UNL     1      34.408 -18.161 -24.352  0.00  0.00    -0.421 OA
ATOM     23  O   UNL     1      35.079 -20.303 -23.982  0.00  0.00    -0.245 OA
ATOM     24  C   UNL     1      35.339 -18.791 -22.161  0.00  0.00    +0.091 A 
ATOM     25  C   UNL     1      35.168 -17.531 -21.720  0.00  0.00    +0.139 A 
ATOM     26  C   UNL     1      34.943 -19.162 -23.551  0.00  0.00    +0.345 A 
ATOM     27  C   UNL     1      34.601 -16.499 -22.590  0.00  0.00    +0.068 A 
ATOM     28  C   UNL     1      34.236 -16.847 -23.887  0.00  0.00    +0.152 A 
ATOM     29  C   UNL     1      34.403 -15.170 -22.189  0.00  0.00    +0.006 C 
ATOM     30  C   UNL     1      33.689 -15.924 -24.780  0.00  0.00    +0.038 C 
ATOM     31  C   UNL     1      33.855 -14.233 -23.072  0.00  0.00    +0.000 C 
ATOM     32  C   UNL     1      33.500 -14.609 -24.366  0.00  0.00    +0.003 C 
BRANCH  25  33
ATOM     33  O   UNL     1      35.495 -17.094 -20.453  0.00  0.00    -0.506 OA
ATOM     34  H   UNL     1      36.100 -16.387 -20.343  0.00  0.00    +0.292 HD
ENDBRANCH  25  33
ENDBRANCH  21  24
BRANCH  21  35
ATOM     35  C   UNL     1      37.177 -19.451 -20.610  0.00  0.00    +0.009 C 
ATOM     36  C   UNL     1      38.226 -18.837 -21.531  0.00  0.00    +0.001 C 
ENDBRANCH  21  35
ENDBRANCH   1  21
TORSDOF 9
ENDMDL
MODEL 4
REMARK VINA RESULT:      -9.8      1.381      1.909
REMARK  Name = 54689025
REMARK  9 active torsions:
REMARK  status: ('A' for Active; 'I' for Inactive)
REMARK    1  A    between atoms: C_1  and  C_21
REMARK    2  A    between atoms: C_4  and  N_8
REMARK    3  A    between atoms: C_9  and  C_11
REMARK    4  A    between atoms: C_11  and  N_13
REMARK    5  A    between atoms: C_14  and  O_16
REMARK    6  A    between atoms: O_16  and  C_17
REMARK    7  A    between atoms: C_21  and  C_24
REMARK    8  A    between atoms: C_21  and  C_35
REMARK    9  A    between atoms: C_25  and  O_33
REMARK                            x       y       z     vdW  Elec       q    Type
REMARK                         _______ _______ _______ _____ _____    ______ ____
ROOT
ATOM      1  C   UNL     1      35.068 -19.836 -21.434  0.00  0.00    -0.017 C 
ATOM      2  C   UNL     1      35.934 -20.322 -20.455  0.00  0.00    +0.011 C 
ATOM      3  C   UNL     1      33.696 -20.061 -21.325  0.00  0.00    -0.004 C 
ATOM      4  C   UNL     1      35.428 -21.033 -19.366  0.00  0.00    +0.050 C 
ATOM      5  C   UNL     1      33.190 -20.772 -20.237  0.00  0.00    +0.001 C 
ATOM      6  C   UNL     1      34.056 -21.257 -19.258  0.00  0.00    +0.015 C 
ENDROOT
BRANCH   4   8
ATOM      7  O   UNL     1      34.903 -22.854 -17.036  0.00  0.00    -0.273 OA
ATOM      8  N   UNL     1      36.294 -21.520 -18.387  0.00  0.00    -0.283 N 
ATOM      9  C   UNL     1      35.998 -22.374 -17.312  0.00  0.00    +0.246 C 
ATOM     10  H   UNL     1      37.232 -21.230 -18.460  0.00  0.00    +0.155 HD
BRANCH   9  11
ATOM     11  C   UNL     1      37.239 -22.657 -16.485  0.00  0.00    +0.179 C 
BRANCH  11  13
ATOM     12  O   UNL     1      38.696 -24.356 -14.633  0.00  0.00    -0.226 OA
ATOM     13  N   UNL     1      36.876 -23.006 -15.143  0.00  0.00    -0.262 N 
ATOM     14  C   UNL     1      37.632 -23.828 -14.323  0.00  0.00    +0.402 C 
ATOM     15  H   UNL     1      36.037 -22.640 -14.781  0.00  0.00    +0.153 HD
BRANCH  14  16
ATOM     16  O   UNL     1      37.021 -23.968 -13.108  0.00  0.00    -0.442 OA
BRANCH  16  17
ATOM     17  C   UNL     1      36.251 -25.162 -12.932  0.00  0.00    +0.138 C 
ATOM     18  C   UNL     1      35.081 -24.853 -11.999  0.00  0.00    +0.044 C 
ATOM     19  C   UNL     1      37.170 -26.214 -12.313  0.00  0.00    +0.044 C 
ATOM     20  C   UNL     1      35.750 -25.624 -14.300  0.00  0.00    +0.044 C 
ENDBRANCH  16  17
ENDBRANCH  14  16
ENDBRANCH  11  13
ENDBRANCH   9  11
ENDBRANCH   4   8
BRANCH   1  21
ATOM     21  C   UNL     1      35.619 -19.062 -22.618  0.00  0.00    +0.054 C 
BRANCH  21  24
ATOM     22  O   UNL     1      33.943 -16.058 -24.199  0.00  0.00    -0.421 OA
ATOM     23  O   UNL     1      34.591 -18.085 -25.004  0.00  0.00    -0.245 OA
ATOM     24  C   UNL     1      35.009 -17.688 -22.694  0.00  0.00    +0.091 A 
ATOM     25  C   UNL     1      34.898 -16.823 -21.668  0.00  0.00    +0.139 A 
ATOM     26  C   UNL     1      34.510 -17.317 -24.049  0.00  0.00    +0.345 A 
ATOM     27  C   UNL     1      34.294 -15.503 -21.860  0.00  0.00    +0.068 A 
ATOM     28  C   UNL     1      33.832 -15.158 -23.126  0.00  0.00    +0.152 A 
ATOM     29  C   UNL     1      34.153 -14.559 -20.832  0.00  0.00    +0.006 C 
ATOM     30  C   UNL     1      33.245 -13.920 -23.394  0.00  0.00    +0.038 C 
ATOM     31  C   UNL     1      33.565 -13.314 -21.084  0.00  0.00    +0.000 C 
ATOM     32  C   UNL     1      33.114 -12.995 -22.363  0.00  0.00    +0.003 C 
BRANCH  25  33
ATOM     33  O   UNL     1      35.321 -17.076 -20.380  0.00  0.00    -0.506 OA
ATOM     34  H   UNL     1      35.272 -16.404 -19.730  0.00  0.00    +0.292 HD
ENDBRANCH  25  33
ENDBRANCH  21  24
BRANCH  21  35
ATOM     35  C   UNL     1      37.158 -18.954 -22.626  0.00  0.00    +0.009 C 
ATOM     36  C   UNL     1      37.756 -18.890 -21.225  0.00  0.00    +0.001 C 
ENDBRANCH  21  35
ENDBRANCH   1  21
TORSDOF 9
ENDMDL
MODEL 5
REMARK VINA RESULT:      -9.7      1.228      2.175
REMARK  Name = 54689025
REMARK  9 active torsions:
REMARK  status: ('A' for Active; 'I' for Inactive)
REMARK    1  A    between atoms: C_1  and  C_21
REMARK    2  A    between atoms: C_4  and  N_8
REMARK    3  A    between atoms: C_9  and  C_11
REMARK    4  A    between atoms: C_11  and  N_13
REMARK    5  A    between atoms: C_14  and  O_16
REMARK    6  A    between atoms: O_16  and  C_17
REMARK    7  A    between atoms: C_21  and  C_24
REMARK    8  A    between atoms: C_21  and  C_35
REMARK    9  A    between atoms: C_25  and  O_33
REMARK                            x       y       z     vdW  Elec       q    Type
REMARK                         _______ _______ _______ _____ _____    ______ ____
ROOT
ATOM      1  C   UNL     1      34.743 -20.246 -20.677  0.00  0.00    -0.017 C 
ATOM      2  C   UNL     1      35.120 -21.164 -19.697  0.00  0.00    +0.011 C 
ATOM      3  C   UNL     1      33.393 -19.961 -20.883  0.00  0.00    -0.004 C 
ATOM      4  C   UNL     1      34.148 -21.795 -18.921  0.00  0.00    +0.050 C 
ATOM      5  C   UNL     1      32.421 -20.593 -20.108  0.00  0.00    +0.001 C 
ATOM      6  C   UNL     1      32.798 -21.510 -19.128  0.00  0.00    +0.015 C 
ENDROOT
BRANCH   4   8
ATOM      7  O   UNL     1      36.331 -21.660 -16.862  0.00  0.00    -0.273 OA
ATOM      8  N   UNL     1      34.525 -22.714 -17.941  0.00  0.00    -0.283 N 
ATOM      9  C   UNL     1      35.559 -22.603 -16.998  0.00  0.00    +0.246 C 
ATOM     10  H   UNL     1      33.997 -23.545 -17.906  0.00  0.00    +0.155 HD
BRANCH   9  11
ATOM     11  C   UNL     1      35.622 -23.836 -16.114  0.00  0.00    +0.179 C 
BRANCH  11  13
ATOM     12  O   UNL     1      34.371 -24.398 -13.554  0.00  0.00    -0.226 OA
ATOM     13  N   UNL     1      36.101 -23.490 -14.808  0.00  0.00    -0.262 N 
ATOM     14  C   UNL     1      35.438 -23.798 -13.631  0.00  0.00    +0.402 C 
ATOM     15  H   UNL     1      36.954 -23.003 -14.743  0.00  0.00    +0.153 HD
BRANCH  14  16
ATOM     16  O   UNL     1      36.148 -23.335 -12.558  0.00  0.00    -0.442 OA
BRANCH  16  17
ATOM     17  C   UNL     1      36.741 -24.337 -11.725  0.00  0.00    +0.138 C 
ATOM     18  C   UNL     1      35.918 -24.454 -10.443  0.00  0.00    +0.044 C 
ATOM     19  C   UNL     1      38.166 -23.886 -11.409  0.00  0.00    +0.044 C 
ATOM     20  C   UNL     1      36.753 -25.660 -12.488  0.00  0.00    +0.044 C 
ENDBRANCH  16  17
ENDBRANCH  14  16
ENDBRANCH  11  13
ENDBRANCH   9  11
ENDBRANCH   4   8
BRANCH   1  21
ATOM     21  C   UNL     1      35.801 -19.558 -21.520  0.00  0.00    +0.054 C 
BRANCH  21  24
ATOM     22  O   UNL     1      34.849 -15.895 -21.451  0.00  0.00    -0.421 OA
ATOM     23  O   UNL     1      35.710 -17.311 -19.894  0.00  0.00    -0.245 OA
ATOM     24  C   UNL     1      35.298 -18.241 -22.046  0.00  0.00    +0.091 A 
ATOM     25  C   UNL     1      34.858 -18.014 -23.299  0.00  0.00    +0.139 A 
ATOM     26  C   UNL     1      35.310 -17.139 -21.041  0.00  0.00    +0.345 A 
ATOM     27  C   UNL     1      34.379 -16.689 -23.699  0.00  0.00    +0.068 A 
ATOM     28  C   UNL     1      34.389 -15.664 -22.759  0.00  0.00    +0.152 A 
ATOM     29  C   UNL     1      33.907 -16.393 -24.985  0.00  0.00    +0.006 C 
ATOM     30  C   UNL     1      33.948 -14.374 -23.058  0.00  0.00    +0.038 C 
ATOM     31  C   UNL     1      33.463 -15.104 -25.302  0.00  0.00    +0.000 C 
ATOM     32  C   UNL     1      33.482 -14.097 -24.339  0.00  0.00    +0.003 C 
BRANCH  25  33
ATOM     33  O   UNL     1      34.815 -18.964 -24.298  0.00  0.00    -0.506 OA
ATOM     34  H   UNL     1      34.981 -19.863 -24.097  0.00  0.00    +0.292 HD
ENDBRANCH  25  33
ENDBRANCH  21  24
BRANCH  21  35
ATOM     35  C   UNL     1      37.142 -19.352 -20.785  0.00  0.00    +0.009 C 
ATOM     36  C   UNL     1      38.232 -18.779 -21.685  0.00  0.00    +0.001 C 
ENDBRANCH  21  35
ENDBRANCH   1  21
TORSDOF 9
ENDMDL
MODEL 6
REMARK VINA RESULT:      -9.6      4.356     10.915
REMARK  Name = 54689025
REMARK  9 active torsions:
REMARK  status: ('A' for Active; 'I' for Inactive)
REMARK    1  A    between atoms: C_1  and  C_21
REMARK    2  A    between atoms: C_4  and  N_8
REMARK    3  A    between atoms: C_9  and  C_11
REMARK    4  A    between atoms: C_11  and  N_13
REMARK    5  A    between atoms: C_14  and  O_16
REMARK    6  A    between atoms: O_16  and  C_17
REMARK    7  A    between atoms: C_21  and  C_24
REMARK    8  A    between atoms: C_21  and  C_35
REMARK    9  A    between atoms: C_25  and  O_33
REMARK                            x       y       z     vdW  Elec       q    Type
REMARK                         _______ _______ _______ _____ _____    ______ ____
ROOT
ATOM      1  C   UNL     1      35.106 -17.197 -21.857  0.00  0.00    -0.017 C 
ATOM      2  C   UNL     1      34.836 -16.197 -22.790  0.00  0.00    +0.011 C 
ATOM      3  C   UNL     1      35.028 -16.917 -20.492  0.00  0.00    -0.004 C 
ATOM      4  C   UNL     1      34.485 -14.918 -22.360  0.00  0.00    +0.050 C 
ATOM      5  C   UNL     1      34.679 -15.637 -20.062  0.00  0.00    +0.001 C 
ATOM      6  C   UNL     1      34.407 -14.638 -20.996  0.00  0.00    +0.015 C 
ENDROOT
BRANCH   4   8
ATOM      7  O   UNL     1      32.917 -15.016 -24.921  0.00  0.00    -0.273 OA
ATOM      8  N   UNL     1      34.214 -13.916 -23.294  0.00  0.00    -0.283 N 
ATOM      9  C   UNL     1      33.472 -14.014 -24.482  0.00  0.00    +0.246 C 
ATOM     10  H   UNL     1      34.591 -13.029 -23.094  0.00  0.00    +0.155 HD
BRANCH   9  11
ATOM     11  C   UNL     1      33.424 -12.679 -25.204  0.00  0.00    +0.179 C 
BRANCH  11  13
ATOM     12  O   UNL     1      34.412 -10.736 -23.283  0.00  0.00    -0.226 OA
ATOM     13  N   UNL     1      32.664 -11.729 -24.445  0.00  0.00    -0.262 N 
ATOM     14  C   UNL     1      33.217 -10.833 -23.546  0.00  0.00    +0.402 C 
ATOM     15  H   UNL     1      31.688 -11.712 -24.572  0.00  0.00    +0.153 HD
BRANCH  14  16
ATOM     16  O   UNL     1      32.235 -10.064 -22.986  0.00  0.00    -0.442 OA
BRANCH  16  17
ATOM     17  C   UNL     1      31.751 -10.502 -21.712  0.00  0.00    +0.138 C 
ATOM     18  C   UNL     1      30.265 -10.831 -21.843  0.00  0.00    +0.044 C 
ATOM     19  C   UNL     1      31.963  -9.357 -20.722  0.00  0.00    +0.044 C 
ATOM     20  C   UNL     1      32.547 -11.735 -21.287  0.00  0.00    +0.044 C 
ENDBRANCH  16  17
ENDBRANCH  14  16
ENDBRANCH  11  13
ENDBRANCH   9  11
ENDBRANCH   4   8
BRANCH   1  21
ATOM     21  C   UNL     1      35.487 -18.590 -22.325  0.00  0.00    +0.054 C 
BRANCH  21  24
ATOM     22  O   UNL     1      36.879 -20.624 -19.451  0.00  0.00    -0.421 OA
ATOM     23  O   UNL     1      37.799 -19.112 -20.881  0.00  0.00    -0.245 OA
ATOM     24  C   UNL     1      35.480 -19.564 -21.178  0.00  0.00    +0.091 A 
ATOM     25  C   UNL     1      34.409 -20.255 -20.743  0.00  0.00    +0.139 A 
ATOM     26  C   UNL     1      36.805 -19.732 -20.514  0.00  0.00    +0.345 A 
ATOM     27  C   UNL     1      34.521 -21.187 -19.619  0.00  0.00    +0.068 A 
ATOM     28  C   UNL     1      35.759 -21.345 -19.004  0.00  0.00    +0.152 A 
ATOM     29  C   UNL     1      33.445 -21.937 -19.124  0.00  0.00    +0.006 C 
ATOM     30  C   UNL     1      35.952 -22.213 -17.928  0.00  0.00    +0.038 C 
ATOM     31  C   UNL     1      33.621 -22.811 -18.046  0.00  0.00    +0.000 C 
ATOM     32  C   UNL     1      34.873 -22.949 -17.450  0.00  0.00    +0.003 C 
BRANCH  25  33
ATOM     33  O   UNL     1      33.145 -20.163 -21.285  0.00  0.00    -0.506 OA
ATOM     34  H   UNL     1      32.428 -19.871 -20.756  0.00  0.00    +0.292 HD
ENDBRANCH  25  33
ENDBRANCH  21  24
BRANCH  21  35
ATOM     35  C   UNL     1      34.601 -19.122 -23.470  0.00  0.00    +0.009 C 
ATOM     36  C   UNL     1      35.194 -20.346 -24.161  0.00  0.00    +0.001 C 
ENDBRANCH  21  35
ENDBRANCH   1  21
TORSDOF 9
ENDMDL
MODEL 7
REMARK VINA RESULT:      -9.6      6.406     10.956
REMARK  Name = 54689025
REMARK  9 active torsions:
REMARK  status: ('A' for Active; 'I' for Inactive)
REMARK    1  A    between atoms: C_1  and  C_21
REMARK    2  A    between atoms: C_4  and  N_8
REMARK    3  A    between atoms: C_9  and  C_11
REMARK    4  A    between atoms: C_11  and  N_13
REMARK    5  A    between atoms: C_14  and  O_16
REMARK    6  A    between atoms: O_16  and  C_17
REMARK    7  A    between atoms: C_21  and  C_24
REMARK    8  A    between atoms: C_21  and  C_35
REMARK    9  A    between atoms: C_25  and  O_33
REMARK                            x       y       z     vdW  Elec       q    Type
REMARK                         _______ _______ _______ _____ _____    ______ ____
ROOT
ATOM      1  C   UNL     1      32.372  -9.759 -21.542  0.00  0.00    -0.017 C 
ATOM      2  C   UNL     1      32.996 -10.738 -22.315  0.00  0.00    +0.011 C 
ATOM      3  C   UNL     1      31.238 -10.078 -20.795  0.00  0.00    -0.004 C 
ATOM      4  C   UNL     1      32.486 -12.036 -22.341  0.00  0.00    +0.050 C 
ATOM      5  C   UNL     1      30.727 -11.376 -20.822  0.00  0.00    +0.001 C 
ATOM      6  C   UNL     1      31.352 -12.354 -21.594  0.00  0.00    +0.015 C 
ENDROOT
BRANCH   4   8
ATOM      7  O   UNL     1      34.487 -14.142 -21.574  0.00  0.00    -0.273 OA
ATOM      8  N   UNL     1      33.110 -13.016 -23.115  0.00  0.00    -0.283 N 
ATOM      9  C   UNL     1      34.044 -13.981 -22.707  0.00  0.00    +0.246 C 
ATOM     10  H   UNL     1      32.862 -13.032 -24.068  0.00  0.00    +0.155 HD
BRANCH   9  11
ATOM     11  C   UNL     1      34.467 -14.855 -23.874  0.00  0.00    +0.179 C 
BRANCH  11  13
ATOM     12  O   UNL     1      33.927 -17.693 -24.175  0.00  0.00    -0.226 OA
ATOM     13  N   UNL     1      35.263 -15.954 -23.412  0.00  0.00    -0.262 N 
ATOM     14  C   UNL     1      34.931 -17.286 -23.599  0.00  0.00    +0.402 C 
ATOM     15  H   UNL     1      36.098 -15.750 -22.932  0.00  0.00    +0.153 HD
BRANCH  14  16
ATOM     16  O   UNL     1      35.888 -18.090 -23.046  0.00  0.00    -0.442 OA
BRANCH  16  17
ATOM     17  C   UNL     1      35.634 -18.533 -21.708  0.00  0.00    +0.138 C 
ATOM     18  C   UNL     1      35.037 -17.371 -20.916  0.00  0.00    +0.044 C 
ATOM     19  C   UNL     1      36.970 -18.964 -21.105  0.00  0.00    +0.044 C 
ATOM     20  C   UNL     1      34.663 -19.711 -21.763  0.00  0.00    +0.044 C 
ENDBRANCH  16  17
ENDBRANCH  14  16
ENDBRANCH  11  13
ENDBRANCH   9  11
ENDBRANCH   4   8
BRANCH   1  21
ATOM     21  C   UNL     1      32.927  -8.346 -21.514  0.00  0.00    +0.054 C 
BRANCH  21  24
ATOM     22  O   UNL     1      32.136  -7.370 -25.085  0.00  0.00    -0.421 OA
ATOM     23  O   UNL     1      30.872  -8.169 -23.371  0.00  0.00    -0.245 OA
ATOM     24  C   UNL     1      33.185  -7.841 -22.908  0.00  0.00    +0.091 A 
ATOM     25  C   UNL     1      34.376  -7.438 -23.388  0.00  0.00    +0.139 A 
ATOM     26  C   UNL     1      31.974  -7.815 -23.779  0.00  0.00    +0.345 A 
ATOM     27  C   UNL     1      34.513  -6.974 -24.770  0.00  0.00    +0.068 A 
ATOM     28  C   UNL     1      33.383  -6.954 -25.581  0.00  0.00    +0.152 A 
ATOM     29  C   UNL     1      35.726  -6.546 -25.326  0.00  0.00    +0.006 C 
ATOM     30  C   UNL     1      33.428  -6.527 -26.909  0.00  0.00    +0.038 C 
ATOM     31  C   UNL     1      35.788  -6.114 -26.656  0.00  0.00    +0.000 C 
ATOM     32  C   UNL     1      34.640  -6.106 -27.446  0.00  0.00    +0.003 C 
BRANCH  25  33
ATOM     33  O   UNL     1      35.547  -7.418 -22.660  0.00  0.00    -0.506 OA
ATOM     34  H   UNL     1      36.271  -7.953 -22.921  0.00  0.00    +0.292 HD
ENDBRANCH  25  33
ENDBRANCH  21  24
BRANCH  21  35
ATOM     35  C   UNL     1      32.035  -7.346 -20.749  0.00  0.00    +0.009 C 
ATOM     36  C   UNL     1      32.504  -5.902 -20.893  0.00  0.00    +0.001 C 
ENDBRANCH  21  35
ENDBRANCH   1  21
TORSDOF 9
ENDMDL
MODEL 8
REMARK VINA RESULT:      -9.5      4.269      7.804
REMARK  Name = 54689025
REMARK  9 active torsions:
REMARK  status: ('A' for Active; 'I' for Inactive)
REMARK    1  A    between atoms: C_1  and  C_21
REMARK    2  A    between atoms: C_4  and  N_8
REMARK    3  A    between atoms: C_9  and  C_11
REMARK    4  A    between atoms: C_11  and  N_13
REMARK    5  A    between atoms: C_14  and  O_16
REMARK    6  A    between atoms: O_16  and  C_17
REMARK    7  A    between atoms: C_21  and  C_24
REMARK    8  A    between atoms: C_21  and  C_35
REMARK    9  A    between atoms: C_25  and  O_33
REMARK                            x       y       z     vdW  Elec       q    Type
REMARK                         _______ _______ _______ _____ _____    ______ ____
ROOT
ATOM      1  C   UNL     1      33.247 -13.675 -22.289  0.00  0.00    -0.017 C 
ATOM      2  C   UNL     1      34.093 -14.777 -22.401  0.00  0.00    +0.011 C 
ATOM      3  C   UNL     1      32.721 -13.323 -21.046  0.00  0.00    -0.004 C 
ATOM      4  C   UNL     1      34.415 -15.528 -21.270  0.00  0.00    +0.050 C 
ATOM      5  C   UNL     1      33.041 -14.074 -19.915  0.00  0.00    +0.001 C 
ATOM      6  C   UNL     1      33.889 -15.176 -20.027  0.00  0.00    +0.015 C 
ENDROOT
BRANCH   4   8
ATOM      7  O   UNL     1      34.630 -17.605 -23.430  0.00  0.00    -0.273 OA
ATOM      8  N   UNL     1      35.261 -16.632 -21.382  0.00  0.00    -0.283 N 
ATOM      9  C   UNL     1      35.323 -17.578 -22.417  0.00  0.00    +0.246 C 
ATOM     10  H   UNL     1      35.897 -16.762 -20.642  0.00  0.00    +0.155 HD
BRANCH   9  11
ATOM     11  C   UNL     1      36.393 -18.618 -22.140  0.00  0.00    +0.179 C 
BRANCH  11  13
ATOM     12  O   UNL     1      34.212 -20.359 -21.333  0.00  0.00    -0.226 OA
ATOM     13  N   UNL     1      36.181 -19.224 -20.857  0.00  0.00    -0.262 N 
ATOM     14  C   UNL     1      35.108 -20.046 -20.555  0.00  0.00    +0.402 C 
ATOM     15  H   UNL     1      36.838 -19.044 -20.147  0.00  0.00    +0.153 HD
BRANCH  14  16
ATOM     16  O   UNL     1      35.188 -20.464 -19.256  0.00  0.00    -0.442 OA
BRANCH  16  17
ATOM     17  C   UNL     1      35.550 -21.836 -19.064  0.00  0.00    +0.138 C 
ATOM     18  C   UNL     1      36.352 -22.302 -20.278  0.00  0.00    +0.044 C 
ATOM     19  C   UNL     1      34.256 -22.638 -18.934  0.00  0.00    +0.044 C 
ATOM     20  C   UNL     1      36.381 -21.945 -17.786  0.00  0.00    +0.044 C 
ENDBRANCH  16  17
ENDBRANCH  14  16
ENDBRANCH  11  13
ENDBRANCH   9  11
ENDBRANCH   4   8
BRANCH   1  21
ATOM     21  C   UNL     1      32.898 -12.857 -23.519  0.00  0.00    +0.054 C 
BRANCH  21  24
ATOM     22  O   UNL     1      31.666  -9.496 -22.287  0.00  0.00    -0.421 OA
ATOM     23  O   UNL     1      30.741 -11.574 -22.334  0.00  0.00    -0.245 OA
ATOM     24  C   UNL     1      32.944 -11.384 -23.218  0.00  0.00    +0.091 A 
ATOM     25  C   UNL     1      33.981 -10.563 -23.473  0.00  0.00    +0.139 A 
ATOM     26  C   UNL     1      31.701 -10.852 -22.586  0.00  0.00    +0.345 A 
ATOM     27  C   UNL     1      33.911  -9.138 -23.145  0.00  0.00    +0.068 A 
ATOM     28  C   UNL     1      32.750  -8.645 -22.559  0.00  0.00    +0.152 A 
ATOM     29  C   UNL     1      34.955  -8.235 -23.389  0.00  0.00    +0.006 C 
ATOM     30  C   UNL     1      32.602  -7.300 -22.216  0.00  0.00    +0.038 C 
ATOM     31  C   UNL     1      34.823  -6.884 -23.051  0.00  0.00    +0.000 C 
ATOM     32  C   UNL     1      33.647  -6.417 -22.467  0.00  0.00    +0.003 C 
BRANCH  25  33
ATOM     33  O   UNL     1      35.171 -10.961 -24.045  0.00  0.00    -0.506 OA
ATOM     34  H   UNL     1      35.201 -11.189 -24.953  0.00  0.00    +0.292 HD
ENDBRANCH  25  33
ENDBRANCH  21  24
BRANCH  21  35
ATOM     35  C   UNL     1      33.784 -13.170 -24.743  0.00  0.00    +0.009 C 
ATOM     36  C   UNL     1      33.087 -14.058 -25.769  0.00  0.00    +0.001 C 
ENDBRANCH  21  35
ENDBRANCH   1  21
TORSDOF 9
ENDMDL
MODEL 9
REMARK VINA RESULT:      -9.3      2.640     10.411
REMARK  Name = 54689025
REMARK  9 active torsions:
REMARK  status: ('A' for Active; 'I' for Inactive)
REMARK    1  A    between atoms: C_1  and  C_21
REMARK    2  A    between atoms: C_4  and  N_8
REMARK    3  A    between atoms: C_9  and  C_11
REMARK    4  A    between atoms: C_11  and  N_13
REMARK    5  A    between atoms: C_14  and  O_16
REMARK    6  A    between atoms: O_16  and  C_17
REMARK    7  A    between atoms: C_21  and  C_24
REMARK    8  A    between atoms: C_21  and  C_35
REMARK    9  A    between atoms: C_25  and  O_33
REMARK                            x       y       z     vdW  Elec       q    Type
REMARK                         _______ _______ _______ _____ _____    ______ ____
ROOT
ATOM      1  C   UNL     1      32.407 -24.260 -15.479  0.00  0.00    -0.017 C 
ATOM      2  C   UNL     1      33.357 -23.939 -16.448  0.00  0.00    +0.011 C 
ATOM      3  C   UNL     1      31.159 -23.637 -15.492  0.00  0.00    -0.004 C 
ATOM      4  C   UNL     1      33.059 -22.995 -17.431  0.00  0.00    +0.050 C 
ATOM      5  C   UNL     1      30.861 -22.692 -16.474  0.00  0.00    +0.001 C 
ATOM      6  C   UNL     1      31.811 -22.372 -17.444  0.00  0.00    +0.015 C 
ENDROOT
BRANCH   4   8
ATOM      7  O   UNL     1      35.939 -22.190 -17.142  0.00  0.00    -0.273 OA
ATOM      8  N   UNL     1      34.010 -22.673 -18.401  0.00  0.00    -0.283 N 
ATOM      9  C   UNL     1      35.350 -22.300 -18.213  0.00  0.00    +0.246 C 
ATOM     10  H   UNL     1      33.701 -22.713 -19.335  0.00  0.00    +0.155 HD
BRANCH   9  11
ATOM     11  C   UNL     1      36.032 -22.037 -19.544  0.00  0.00    +0.179 C 
BRANCH  11  13
ATOM     12  O   UNL     1      33.696 -20.736 -20.681  0.00  0.00    -0.226 OA
ATOM     13  N   UNL     1      35.887 -20.660 -19.915  0.00  0.00    -0.262 N 
ATOM     14  C   UNL     1      34.732 -20.118 -20.454  0.00  0.00    +0.402 C 
ATOM     15  H   UNL     1      36.657 -20.061 -19.779  0.00  0.00    +0.153 HD
BRANCH  14  16
ATOM     16  O   UNL     1      34.909 -18.785 -20.700  0.00  0.00    -0.442 OA
BRANCH  16  17
ATOM     17  C   UNL     1      35.523 -18.459 -21.952  0.00  0.00    +0.138 C 
ATOM     18  C   UNL     1      37.028 -18.696 -21.832  0.00  0.00    +0.044 C 
ATOM     19  C   UNL     1      35.232 -16.986 -22.235  0.00  0.00    +0.044 C 
ATOM     20  C   UNL     1      34.916 -19.346 -23.037  0.00  0.00    +0.044 C 
ENDBRANCH  16  17
ENDBRANCH  14  16
ENDBRANCH  11  13
ENDBRANCH   9  11
ENDBRANCH   4   8
BRANCH   1  21
ATOM     21  C   UNL     1      32.731 -25.288 -14.410  0.00  0.00    +0.054 C 
BRANCH  21  24
ATOM     22  O   UNL     1      35.123 -23.637 -11.985  0.00  0.00    -0.421 OA
ATOM     23  O   UNL     1      32.877 -23.481 -12.309  0.00  0.00    -0.245 OA
ATOM     24  C   UNL     1      34.045 -24.978 -13.746  0.00  0.00    +0.091 A 
ATOM     25  C   UNL     1      35.236 -25.512 -14.076  0.00  0.00    +0.139 A 
ATOM     26  C   UNL     1      33.948 -23.982 -12.639  0.00  0.00    +0.345 A 
ATOM     27  C   UNL     1      36.457 -25.127 -13.365  0.00  0.00    +0.068 A 
ATOM     28  C   UNL     1      36.363 -24.196 -12.336  0.00  0.00    +0.152 A 
ATOM     29  C   UNL     1      37.724 -25.646 -13.665  0.00  0.00    +0.006 C 
ATOM     30  C   UNL     1      37.478 -23.774 -11.609  0.00  0.00    +0.038 C 
ATOM     31  C   UNL     1      38.852 -25.235 -12.946  0.00  0.00    +0.000 C 
ATOM     32  C   UNL     1      38.728 -24.299 -11.921  0.00  0.00    +0.003 C 
BRANCH  25  33
ATOM     33  O   UNL     1      35.426 -26.443 -15.076  0.00  0.00    -0.506 OA
ATOM     34  H   UNL     1      36.268 -26.537 -15.475  0.00  0.00    +0.292 HD
ENDBRANCH  25  33
ENDBRANCH  21  24
BRANCH  21  35
ATOM     35  C   UNL     1      31.627 -25.442 -13.344  0.00  0.00    +0.009 C 
ATOM     36  C   UNL     1      30.273 -25.814 -13.939  0.00  0.00    +0.001 C 
ENDBRANCH  21  35
ENDBRANCH   1  21
TORSDOF 9
ENDMDL
