MODEL 1
REMARK VINA RESULT:     -12.3      0.000      0.000
REMARK  Name = 6918314
REMARK  8 active torsions:
REMARK  status: ('A' for Active; 'I' for Inactive)
REMARK    1  A    between atoms: N_1  and  C_22
REMARK    2  A    between atoms: N_2  and  C_9
REMARK    3  A    between atoms: C_16  and  C_19
REMARK    4  A    between atoms: C_22  and  C_23
REMARK    5  A    between atoms: C_23  and  C_24
REMARK    6  A    between atoms: C_24  and  C_25
REMARK    7  A    between atoms: C_25  and  C_27
REMARK    8  A    between atoms: C_33  and  C_37
REMARK                            x       y       z     vdW  Elec       q    Type
REMARK                         _______ _______ _______ _____ _____    ______ ____
ROOT
ATOM      1  N   UNL     1      35.472 -16.995 -22.559  0.00  0.00    +0.389 N 
ATOM      2  N   UNL     1      33.852 -14.667 -22.227  0.00  0.00    -0.312 N 
ATOM      3  C   UNL     1      34.564 -16.564 -23.628  0.00  0.00    -0.055 C 
ATOM      4  C   UNL     1      34.890 -16.676 -21.250  0.00  0.00    -0.055 C 
ATOM      5  C   UNL     1      34.316 -15.056 -23.564  0.00  0.00    +0.068 C 
ATOM      6  C   UNL     1      34.651 -15.172 -21.106  0.00  0.00    +0.068 C 
ATOM      7  H   UNL     1      36.356 -16.495 -22.655  0.00  0.00    -0.080 HD
ENDROOT
BRANCH   2   9
ATOM      8  O   UNL     1      31.189  -9.840 -21.839  0.00  0.00    -0.449 OA
ATOM      9  C   UNL     1      33.159 -13.457 -22.097  0.00  0.00    +0.048 C 
ATOM     10  C   UNL     1      33.370 -12.405 -23.023  0.00  0.00    +0.018 C 
ATOM     11  C   UNL     1      32.241 -13.263 -21.041  0.00  0.00    +0.018 C 
ATOM     12  C   UNL     1      32.666 -11.197 -22.878  0.00  0.00    +0.039 C 
ATOM     13  C   UNL     1      31.775 -11.070 -21.818  0.00  0.00    +0.146 C 
ATOM     14  C   UNL     1      31.529 -12.070 -20.879  0.00  0.00    +0.039 C 
ATOM     15  C   UNL     1      32.611  -9.964 -23.579  0.00  0.00    +0.045 C 
ATOM     16  C   UNL     1      31.702  -9.177 -22.909  0.00  0.00    +0.198 C 
BRANCH  16  19
ATOM     17  O   UNL     1      30.837  -7.059 -22.266  0.00  0.00    -0.267 OA
ATOM     18  N   UNL     1      31.221  -7.389 -24.479  0.00  0.00    -0.323 N 
ATOM     19  C   UNL     1      31.245  -7.852 -23.153  0.00  0.00    +0.277 C 
ATOM     20  H   UNL     1      30.909  -6.476 -24.675  0.00  0.00    +0.145 HD
ATOM     21  H   UNL     1      31.515  -7.977 -25.211  0.00  0.00    +0.145 HD
ENDBRANCH  16  19
ENDBRANCH   2   9
BRANCH   1  22
ATOM     22  C   UNL     1      35.745 -18.428 -22.663  0.00  0.00    -0.077 C 
BRANCH  22  23
ATOM     23  C   UNL     1      36.091 -19.004 -21.291  0.00  0.00    -0.022 C 
BRANCH  23  24
ATOM     24  C   UNL     1      35.183 -20.184 -20.942  0.00  0.00    +0.003 C 
BRANCH  24  25
ATOM     25  C   UNL     1      35.789 -21.044 -19.828  0.00  0.00    +0.028 C 
BRANCH  25  27
ATOM     26  N   UNL     1      32.824 -22.677 -18.458  0.00  0.00    -0.312 N 
ATOM     27  C   UNL     1      34.744 -21.782 -19.046  0.00  0.00    -0.006 C 
ATOM     28  C   UNL     1      34.937 -22.405 -17.796  0.00  0.00    +0.011 C 
ATOM     29  C   UNL     1      33.450 -21.956 -19.439  0.00  0.00    +0.058 C 
ATOM     30  C   UNL     1      33.708 -22.966 -17.443  0.00  0.00    +0.048 C 
ATOM     31  C   UNL     1      36.029 -22.558 -16.918  0.00  0.00    +0.011 C 
ATOM     32  C   UNL     1      33.515 -23.672 -16.250  0.00  0.00    +0.015 C 
ATOM     33  C   UNL     1      35.850 -23.262 -15.722  0.00  0.00    +0.069 C 
ATOM     34  C   UNL     1      34.612 -23.810 -15.395  0.00  0.00    +0.012 C 
ATOM     35  H   UNL     1      31.878 -22.950 -18.476  0.00  0.00    +0.152 HD
BRANCH  33  37
ATOM     36  N   UNL     1      37.850 -23.546 -14.098  0.00  0.00    -0.191 NA
ATOM     37  C   UNL     1      36.954 -23.419 -14.826  0.00  0.00    +0.100 C 
ENDBRANCH  33  37
ENDBRANCH  25  27
ENDBRANCH  24  25
ENDBRANCH  23  24
ENDBRANCH  22  23
ENDBRANCH   1  22
TORSDOF 8
ENDMDL
MODEL 2
REMARK VINA RESULT:     -12.3      3.735      6.193
REMARK  Name = 6918314
REMARK  8 active torsions:
REMARK  status: ('A' for Active; 'I' for Inactive)
REMARK    1  A    between atoms: N_1  and  C_22
REMARK    2  A    between atoms: N_2  and  C_9
REMARK    3  A    between atoms: C_16  and  C_19
REMARK    4  A    between atoms: C_22  and  C_23
REMARK    5  A    between atoms: C_23  and  C_24
REMARK    6  A    between atoms: C_24  and  C_25
REMARK    7  A    between atoms: C_25  and  C_27
REMARK    8  A    between atoms: C_33  and  C_37
REMARK                            x       y       z     vdW  Elec       q    Type
REMARK                         _______ _______ _______ _____ _____    ______ ____
ROOT
ATOM      1  N   UNL     1      36.171 -21.154 -18.730  0.00  0.00    +0.389 N 
ATOM      2  N   UNL     1      35.372 -19.753 -21.087  0.00  0.00    -0.312 N 
ATOM      3  C   UNL     1      37.178 -20.589 -19.634  0.00  0.00    -0.055 C 
ATOM      4  C   UNL     1      35.003 -21.599 -19.499  0.00  0.00    -0.055 C 
ATOM      5  C   UNL     1      36.618 -19.389 -20.401  0.00  0.00    +0.068 C 
ATOM      6  C   UNL     1      34.369 -20.435 -20.262  0.00  0.00    +0.068 C 
ATOM      7  H   UNL     1      35.875 -20.431 -18.073  0.00  0.00    -0.080 HD
ENDROOT
BRANCH   2   9
ATOM      8  O   UNL     1      33.788 -16.517 -25.277  0.00  0.00    -0.449 OA
ATOM      9  C   UNL     1      34.962 -18.965 -22.169  0.00  0.00    +0.048 C 
ATOM     10  C   UNL     1      35.009 -17.551 -22.087  0.00  0.00    +0.018 C 
ATOM     11  C   UNL     1      34.494 -19.564 -23.360  0.00  0.00    +0.018 C 
ATOM     12  C   UNL     1      34.594 -16.774 -23.183  0.00  0.00    +0.039 C 
ATOM     13  C   UNL     1      34.145 -17.426 -24.327  0.00  0.00    +0.146 C 
ATOM     14  C   UNL     1      34.077 -18.811 -24.462  0.00  0.00    +0.039 C 
ATOM     15  C   UNL     1      34.500 -15.387 -23.467  0.00  0.00    +0.045 C 
ATOM     16  C   UNL     1      34.007 -15.285 -24.747  0.00  0.00    +0.198 C 
BRANCH  16  19
ATOM     17  O   UNL     1      33.692 -14.148 -26.810  0.00  0.00    -0.267 OA
ATOM     18  N   UNL     1      33.428 -12.933 -24.911  0.00  0.00    -0.323 N 
ATOM     19  C   UNL     1      33.708 -14.151 -25.552  0.00  0.00    +0.277 C 
ATOM     20  H   UNL     1      33.218 -12.133 -25.445  0.00  0.00    +0.145 HD
ATOM     21  H   UNL     1      33.443 -12.880 -23.929  0.00  0.00    +0.145 HD
ENDBRANCH  16  19
ENDBRANCH   2   9
BRANCH   1  22
ATOM     22  C   UNL     1      36.734 -22.264 -17.963  0.00  0.00    -0.077 C 
BRANCH  22  23
ATOM     23  C   UNL     1      36.999 -21.833 -16.521  0.00  0.00    -0.022 C 
BRANCH  23  24
ATOM     24  C   UNL     1      36.240 -22.719 -15.531  0.00  0.00    +0.003 C 
BRANCH  24  25
ATOM     25  C   UNL     1      34.852 -23.089 -16.063  0.00  0.00    +0.028 C 
BRANCH  25  27
ATOM     26  N   UNL     1      33.531 -25.211 -13.402  0.00  0.00    -0.312 N 
ATOM     27  C   UNL     1      34.053 -23.878 -15.070  0.00  0.00    -0.006 C 
ATOM     28  C   UNL     1      32.646 -23.920 -14.992  0.00  0.00    +0.011 C 
ATOM     29  C   UNL     1      34.580 -24.669 -14.094  0.00  0.00    +0.058 C 
ATOM     30  C   UNL     1      32.336 -24.770 -13.928  0.00  0.00    +0.048 C 
ATOM     31  C   UNL     1      31.591 -23.324 -15.712  0.00  0.00    +0.011 C 
ATOM     32  C   UNL     1      31.021 -25.057 -13.548  0.00  0.00    +0.015 C 
ATOM     33  C   UNL     1      30.270 -23.602 -15.343  0.00  0.00    +0.069 C 
ATOM     34  C   UNL     1      29.991 -24.455 -14.278  0.00  0.00    +0.012 C 
ATOM     35  H   UNL     1      33.616 -25.826 -12.638  0.00  0.00    +0.152 HD
BRANCH  33  37
ATOM     36  N   UNL     1      28.321 -22.516 -16.662  0.00  0.00    -0.191 NA
ATOM     37  C   UNL     1      29.194 -23.002 -16.071  0.00  0.00    +0.100 C 
ENDBRANCH  33  37
ENDBRANCH  25  27
ENDBRANCH  24  25
ENDBRANCH  23  24
ENDBRANCH  22  23
ENDBRANCH   1  22
TORSDOF 8
ENDMDL
MODEL 3
REMARK VINA RESULT:     -12.1      4.289     12.265
REMARK  Name = 6918314
REMARK  8 active torsions:
REMARK  status: ('A' for Active; 'I' for Inactive)
REMARK    1  A    between atoms: N_1  and  C_22
REMARK    2  A    between atoms: N_2  and  C_9
REMARK    3  A    between atoms: C_16  and  C_19
REMARK    4  A    between atoms: C_22  and  C_23
REMARK    5  A    between atoms: C_23  and  C_24
REMARK    6  A    between atoms: C_24  and  C_25
REMARK    7  A    between atoms: C_25  and  C_27
REMARK    8  A    between atoms: C_33  and  C_37
REMARK                            x       y       z     vdW  Elec       q    Type
REMARK                         _______ _______ _______ _____ _____    ______ ____
ROOT
ATOM      1  N   UNL     1      34.895 -16.937 -24.200  0.00  0.00    +0.389 N 
ATOM      2  N   UNL     1      34.877 -18.845 -22.076  0.00  0.00    -0.312 N 
ATOM      3  C   UNL     1      34.984 -16.494 -22.804  0.00  0.00    -0.055 C 
ATOM      4  C   UNL     1      34.061 -18.141 -24.291  0.00  0.00    -0.055 C 
ATOM      5  C   UNL     1      35.603 -17.579 -21.921  0.00  0.00    +0.068 C 
ATOM      6  C   UNL     1      34.649 -19.281 -23.457  0.00  0.00    +0.068 C 
ATOM      7  H   UNL     1      35.832 -17.161 -24.535  0.00  0.00    -0.080 HD
ENDROOT
BRANCH   2   9
ATOM      8  O   UNL     1      35.178 -22.613 -18.044  0.00  0.00    -0.449 OA
ATOM      9  C   UNL     1      34.992 -19.798 -21.056  0.00  0.00    +0.048 C 
ATOM     10  C   UNL     1      33.834 -20.355 -20.460  0.00  0.00    +0.018 C 
ATOM     11  C   UNL     1      36.263 -20.218 -20.604  0.00  0.00    +0.018 C 
ATOM     12  C   UNL     1      33.966 -21.311 -19.438  0.00  0.00    +0.039 C 
ATOM     13  C   UNL     1      35.246 -21.683 -19.038  0.00  0.00    +0.146 C 
ATOM     14  C   UNL     1      36.418 -21.168 -19.589  0.00  0.00    +0.039 C 
ATOM     15  C   UNL     1      33.076 -22.067 -18.632  0.00  0.00    +0.045 C 
ATOM     16  C   UNL     1      33.859 -22.839 -17.805  0.00  0.00    +0.198 C 
BRANCH  16  19
ATOM     17  O   UNL     1      34.323 -24.591 -16.269  0.00  0.00    -0.267 OA
ATOM     18  N   UNL     1      32.183 -23.840 -16.363  0.00  0.00    -0.323 N 
ATOM     19  C   UNL     1      33.518 -23.782 -16.796  0.00  0.00    +0.277 C 
ATOM     20  H   UNL     1      31.919 -24.484 -15.666  0.00  0.00    +0.145 HD
ATOM     21  H   UNL     1      31.511 -23.238 -16.756  0.00  0.00    +0.145 HD
ENDBRANCH  16  19
ENDBRANCH   2   9
BRANCH   1  22
ATOM     22  C   UNL     1      34.352 -15.872 -25.043  0.00  0.00    -0.077 C 
BRANCH  22  23
ATOM     23  C   UNL     1      33.322 -15.053 -24.267  0.00  0.00    -0.022 C 
BRANCH  23  24
ATOM     24  C   UNL     1      33.383 -13.575 -24.656  0.00  0.00    +0.003 C 
BRANCH  24  25
ATOM     25  C   UNL     1      33.956 -12.722 -23.520  0.00  0.00    +0.028 C 
BRANCH  25  27
ATOM     26  N   UNL     1      31.129 -11.090 -21.883  0.00  0.00    -0.312 N 
ATOM     27  C   UNL     1      32.929 -11.808 -22.921  0.00  0.00    -0.006 C 
ATOM     28  C   UNL     1      32.976 -10.399 -22.927  0.00  0.00    +0.011 C 
ATOM     29  C   UNL     1      31.798 -12.217 -22.281  0.00  0.00    +0.058 C 
ATOM     30  C   UNL     1      31.826  -9.965 -22.264  0.00  0.00    +0.048 C 
ATOM     31  C   UNL     1      33.875  -9.435 -23.426  0.00  0.00    +0.011 C 
ATOM     32  C   UNL     1      31.529  -8.611 -22.075  0.00  0.00    +0.015 C 
ATOM     33  C   UNL     1      33.591  -8.077 -23.244  0.00  0.00    +0.069 C 
ATOM     34  C   UNL     1      32.436  -7.673 -22.578  0.00  0.00    +0.012 C 
ATOM     35  H   UNL     1      30.274 -11.084 -21.395  0.00  0.00    +0.152 HD
BRANCH  33  37
ATOM     36  N   UNL     1      35.236  -6.296 -24.158  0.00  0.00    -0.191 NA
ATOM     37  C   UNL     1      34.499  -7.094 -23.749  0.00  0.00    +0.100 C 
ENDBRANCH  33  37
ENDBRANCH  25  27
ENDBRANCH  24  25
ENDBRANCH  23  24
ENDBRANCH  22  23
ENDBRANCH   1  22
TORSDOF 8
ENDMDL
MODEL 4
REMARK VINA RESULT:     -12.0      2.642      5.293
REMARK  Name = 6918314
REMARK  8 active torsions:
REMARK  status: ('A' for Active; 'I' for Inactive)
REMARK    1  A    between atoms: N_1  and  C_22
REMARK    2  A    between atoms: N_2  and  C_9
REMARK    3  A    between atoms: C_16  and  C_19
REMARK    4  A    between atoms: C_22  and  C_23
REMARK    5  A    between atoms: C_23  and  C_24
REMARK    6  A    between atoms: C_24  and  C_25
REMARK    7  A    between atoms: C_25  and  C_27
REMARK    8  A    between atoms: C_33  and  C_37
REMARK                            x       y       z     vdW  Elec       q    Type
REMARK                         _______ _______ _______ _____ _____    ______ ____
ROOT
ATOM      1  N   UNL     1      35.709 -21.162 -20.064  0.00  0.00    +0.389 N 
ATOM      2  N   UNL     1      35.193 -18.666 -21.352  0.00  0.00    -0.312 N 
ATOM      3  C   UNL     1      34.331 -20.690 -20.243  0.00  0.00    -0.055 C 
ATOM      4  C   UNL     1      36.605 -20.019 -19.855  0.00  0.00    -0.055 C 
ATOM      5  C   UNL     1      34.221 -19.761 -21.454  0.00  0.00    +0.068 C 
ATOM      6  C   UNL     1      36.571 -19.066 -21.051  0.00  0.00    +0.068 C 
ATOM      7  H   UNL     1      36.000 -21.657 -20.907  0.00  0.00    -0.080 HD
ENDROOT
BRANCH   2   9
ATOM      8  O   UNL     1      34.237 -13.997 -24.150  0.00  0.00    -0.449 OA
ATOM      9  C   UNL     1      34.954 -17.503 -22.094  0.00  0.00    +0.048 C 
ATOM     10  C   UNL     1      34.736 -16.265 -21.440  0.00  0.00    +0.018 C 
ATOM     11  C   UNL     1      34.924 -17.543 -23.506  0.00  0.00    +0.018 C 
ATOM     12  C   UNL     1      34.497 -15.106 -22.200  0.00  0.00    +0.039 C 
ATOM     13  C   UNL     1      34.481 -15.213 -23.587  0.00  0.00    +0.146 C 
ATOM     14  C   UNL     1      34.689 -16.403 -24.282  0.00  0.00    +0.039 C 
ATOM     15  C   UNL     1      34.246 -13.739 -21.915  0.00  0.00    +0.045 C 
ATOM     16  C   UNL     1      34.096 -13.111 -23.129  0.00  0.00    +0.198 C 
BRANCH  16  19
ATOM     17  O   UNL     1      32.683 -11.242 -23.531  0.00  0.00    -0.267 OA
ATOM     18  N   UNL     1      34.918 -10.912 -23.751  0.00  0.00    -0.323 N 
ATOM     19  C   UNL     1      33.830 -11.752 -23.460  0.00  0.00    +0.277 C 
ATOM     20  H   UNL     1      34.762  -9.968 -23.983  0.00  0.00    +0.145 HD
ATOM     21  H   UNL     1      35.835 -11.268 -23.724  0.00  0.00    +0.145 HD
ENDBRANCH  16  19
ENDBRANCH   2   9
BRANCH   1  22
ATOM     22  C   UNL     1      35.790 -22.092 -18.938  0.00  0.00    -0.077 C 
BRANCH  22  23
ATOM     23  C   UNL     1      34.398 -22.358 -18.368  0.00  0.00    -0.022 C 
BRANCH  23  24
ATOM     24  C   UNL     1      34.409 -23.562 -17.424  0.00  0.00    +0.003 C 
BRANCH  24  25
ATOM     25  C   UNL     1      34.639 -23.131 -15.972  0.00  0.00    +0.028 C 
BRANCH  25  27
ATOM     26  N   UNL     1      33.223 -25.260 -13.365  0.00  0.00    -0.312 N 
ATOM     27  C   UNL     1      33.804 -23.917 -15.005  0.00  0.00    -0.006 C 
ATOM     28  C   UNL     1      32.395 -23.934 -14.958  0.00  0.00    +0.011 C 
ATOM     29  C   UNL     1      34.297 -24.729 -14.028  0.00  0.00    +0.058 C 
ATOM     30  C   UNL     1      32.048 -24.791 -13.911  0.00  0.00    +0.048 C 
ATOM     31  C   UNL     1      31.367 -23.311 -15.693  0.00  0.00    +0.011 C 
ATOM     32  C   UNL     1      30.720 -25.059 -13.563  0.00  0.00    +0.015 C 
ATOM     33  C   UNL     1      30.034 -23.569 -15.355  0.00  0.00    +0.069 C 
ATOM     34  C   UNL     1      29.717 -24.429 -14.306  0.00  0.00    +0.012 C 
ATOM     35  H   UNL     1      33.281 -25.886 -12.608  0.00  0.00    +0.152 HD
BRANCH  33  37
ATOM     36  N   UNL     1      28.134 -22.430 -16.701  0.00  0.00    -0.191 NA
ATOM     37  C   UNL     1      28.985 -22.941 -16.098  0.00  0.00    +0.100 C 
ENDBRANCH  33  37
ENDBRANCH  25  27
ENDBRANCH  24  25
ENDBRANCH  23  24
ENDBRANCH  22  23
ENDBRANCH   1  22
TORSDOF 8
ENDMDL
MODEL 5
REMARK VINA RESULT:     -11.7      4.204     11.909
REMARK  Name = 6918314
REMARK  8 active torsions:
REMARK  status: ('A' for Active; 'I' for Inactive)
REMARK    1  A    between atoms: N_1  and  C_22
REMARK    2  A    between atoms: N_2  and  C_9
REMARK    3  A    between atoms: C_16  and  C_19
REMARK    4  A    between atoms: C_22  and  C_23
REMARK    5  A    between atoms: C_23  and  C_24
REMARK    6  A    between atoms: C_24  and  C_25
REMARK    7  A    between atoms: C_25  and  C_27
REMARK    8  A    between atoms: C_33  and  C_37
REMARK                            x       y       z     vdW  Elec       q    Type
REMARK                         _______ _______ _______ _____ _____    ______ ____
ROOT
ATOM      1  N   UNL     1      35.247 -17.870 -23.565  0.00  0.00    +0.389 N 
ATOM      2  N   UNL     1      34.886 -19.621 -21.338  0.00  0.00    -0.312 N 
ATOM      3  C   UNL     1      35.321 -17.352 -22.194  0.00  0.00    -0.055 C 
ATOM      4  C   UNL     1      34.275 -18.967 -23.633  0.00  0.00    -0.055 C 
ATOM      5  C   UNL     1      35.756 -18.445 -21.216  0.00  0.00    +0.068 C 
ATOM      6  C   UNL     1      34.673 -20.114 -22.703  0.00  0.00    +0.068 C 
ATOM      7  H   UNL     1      36.165 -18.228 -23.832  0.00  0.00    -0.080 HD
ENDROOT
BRANCH   2   9
ATOM      8  O   UNL     1      34.811 -23.110 -17.053  0.00  0.00    -0.449 OA
ATOM      9  C   UNL     1      34.830 -20.513 -20.261  0.00  0.00    +0.048 C 
ATOM     10  C   UNL     1      35.969 -20.729 -19.447  0.00  0.00    +0.018 C 
ATOM     11  C   UNL     1      33.639 -21.214 -19.968  0.00  0.00    +0.018 C 
ATOM     12  C   UNL     1      35.896 -21.628 -18.368  0.00  0.00    +0.039 C 
ATOM     13  C   UNL     1      34.693 -22.286 -18.132  0.00  0.00    +0.146 C 
ATOM     14  C   UNL     1      33.543 -22.112 -18.900  0.00  0.00    +0.039 C 
ATOM     15  C   UNL     1      36.791 -22.088 -17.367  0.00  0.00    +0.045 C 
ATOM     16  C   UNL     1      36.085 -22.983 -16.597  0.00  0.00    +0.198 C 
BRANCH  16  19
ATOM     17  O   UNL     1      36.247 -24.983 -15.324  0.00  0.00    -0.267 OA
ATOM     18  N   UNL     1      37.111 -23.099 -14.400  0.00  0.00    -0.323 N 
ATOM     19  C   UNL     1      36.465 -23.753 -15.462  0.00  0.00    +0.277 C 
ATOM     20  H   UNL     1      37.385 -23.607 -13.603  0.00  0.00    +0.145 HD
ATOM     21  H   UNL     1      37.291 -22.133 -14.453  0.00  0.00    +0.145 HD
ENDBRANCH  16  19
ENDBRANCH   2   9
BRANCH   1  22
ATOM     22  C   UNL     1      34.885 -16.804 -24.498  0.00  0.00    -0.077 C 
BRANCH  22  23
ATOM     23  C   UNL     1      34.694 -15.485 -23.749  0.00  0.00    -0.022 C 
BRANCH  23  24
ATOM     24  C   UNL     1      33.358 -14.833 -24.108  0.00  0.00    +0.003 C 
BRANCH  24  25
ATOM     25  C   UNL     1      33.355 -13.341 -23.764  0.00  0.00    +0.028 C 
BRANCH  25  27
ATOM     26  N   UNL     1      32.355 -13.375 -20.253  0.00  0.00    -0.312 N 
ATOM     27  C   UNL     1      32.875 -13.079 -22.368  0.00  0.00    -0.006 C 
ATOM     28  C   UNL     1      32.374 -11.853 -21.885  0.00  0.00    +0.011 C 
ATOM     29  C   UNL     1      32.859 -13.999 -21.362  0.00  0.00    +0.058 C 
ATOM     30  C   UNL     1      32.051 -12.063 -20.542  0.00  0.00    +0.048 C 
ATOM     31  C   UNL     1      32.158 -10.577 -22.443  0.00  0.00    +0.011 C 
ATOM     32  C   UNL     1      31.519 -11.057 -19.728  0.00  0.00    +0.015 C 
ATOM     33  C   UNL     1      31.627  -9.562 -21.639  0.00  0.00    +0.069 C 
ATOM     34  C   UNL     1      31.313  -9.800 -20.303  0.00  0.00    +0.012 C 
ATOM     35  H   UNL     1      32.228 -13.801 -19.374  0.00  0.00    +0.152 HD
BRANCH  33  37
ATOM     36  N   UNL     1      31.222  -7.212 -22.654  0.00  0.00    -0.191 NA
ATOM     37  C   UNL     1      31.404  -8.265 -22.200  0.00  0.00    +0.100 C 
ENDBRANCH  33  37
ENDBRANCH  25  27
ENDBRANCH  24  25
ENDBRANCH  23  24
ENDBRANCH  22  23
ENDBRANCH   1  22
TORSDOF 8
ENDMDL
MODEL 6
REMARK VINA RESULT:     -11.6      1.868      3.168
REMARK  Name = 6918314
REMARK  8 active torsions:
REMARK  status: ('A' for Active; 'I' for Inactive)
REMARK    1  A    between atoms: N_1  and  C_22
REMARK    2  A    between atoms: N_2  and  C_9
REMARK    3  A    between atoms: C_16  and  C_19
REMARK    4  A    between atoms: C_22  and  C_23
REMARK    5  A    between atoms: C_23  and  C_24
REMARK    6  A    between atoms: C_24  and  C_25
REMARK    7  A    between atoms: C_25  and  C_27
REMARK    8  A    between atoms: C_33  and  C_37
REMARK                            x       y       z     vdW  Elec       q    Type
REMARK                         _______ _______ _______ _____ _____    ______ ____
ROOT
ATOM      1  N   UNL     1      34.029 -15.922 -23.538  0.00  0.00    +0.389 N 
ATOM      2  N   UNL     1      33.202 -13.266 -22.892  0.00  0.00    -0.312 N 
ATOM      3  C   UNL     1      34.575 -15.241 -22.359  0.00  0.00    -0.055 C 
ATOM      4  C   UNL     1      33.768 -14.946 -24.602  0.00  0.00    -0.055 C 
ATOM      5  C   UNL     1      33.595 -14.194 -21.825  0.00  0.00    +0.068 C 
ATOM      6  C   UNL     1      32.762 -13.888 -24.144  0.00  0.00    +0.068 C 
ATOM      7  H   UNL     1      33.150 -16.371 -23.281  0.00  0.00    -0.080 HD
ENDROOT
BRANCH   2   9
ATOM      8  O   UNL     1      31.265  -8.266 -21.553  0.00  0.00    -0.449 OA
ATOM      9  C   UNL     1      32.694 -12.015 -22.522  0.00  0.00    +0.048 C 
ATOM     10  C   UNL     1      32.970 -10.867 -23.305  0.00  0.00    +0.018 C 
ATOM     11  C   UNL     1      31.900 -11.875 -21.362  0.00  0.00    +0.018 C 
ATOM     12  C   UNL     1      32.453  -9.618 -22.919  0.00  0.00    +0.039 C 
ATOM     13  C   UNL     1      31.677  -9.548 -21.767  0.00  0.00    +0.146 C 
ATOM     14  C   UNL     1      31.374 -10.643 -20.960  0.00  0.00    +0.039 C 
ATOM     15  C   UNL     1      32.509  -8.294 -23.428  0.00  0.00    +0.045 C 
ATOM     16  C   UNL     1      31.774  -7.515 -22.564  0.00  0.00    +0.198 C 
BRANCH  16  19
ATOM     17  O   UNL     1      32.039  -5.276 -23.316  0.00  0.00    -0.267 OA
ATOM     18  N   UNL     1      30.526  -5.637 -21.664  0.00  0.00    -0.323 N 
ATOM     19  C   UNL     1      31.484  -6.122 -22.569  0.00  0.00    +0.277 C 
ATOM     20  H   UNL     1      30.307  -4.678 -21.646  0.00  0.00    +0.145 HD
ATOM     21  H   UNL     1      30.075  -6.257 -21.047  0.00  0.00    +0.145 HD
ENDBRANCH  16  19
ENDBRANCH   2   9
BRANCH   1  22
ATOM     22  C   UNL     1      34.950 -16.957 -24.005  0.00  0.00    -0.077 C 
BRANCH  22  23
ATOM     23  C   UNL     1      34.175 -18.196 -24.452  0.00  0.00    -0.022 C 
BRANCH  23  24
ATOM     24  C   UNL     1      34.616 -19.435 -23.671  0.00  0.00    +0.003 C 
BRANCH  24  25
ATOM     25  C   UNL     1      34.180 -19.356 -22.205  0.00  0.00    +0.028 C 
BRANCH  25  27
ATOM     26  N   UNL     1      37.275 -19.576 -20.280  0.00  0.00    -0.312 N 
ATOM     27  C   UNL     1      35.308 -19.642 -21.259  0.00  0.00    -0.006 C 
ATOM     28  C   UNL     1      35.273 -20.556 -20.186  0.00  0.00    +0.011 C 
ATOM     29  C   UNL     1      36.535 -19.050 -21.305  0.00  0.00    +0.058 C 
ATOM     30  C   UNL     1      36.529 -20.498 -19.580  0.00  0.00    +0.048 C 
ATOM     31  C   UNL     1      34.305 -21.433 -19.658  0.00  0.00    +0.011 C 
ATOM     32  C   UNL     1      36.868 -21.277 -18.468  0.00  0.00    +0.015 C 
ATOM     33  C   UNL     1      34.629 -22.219 -18.546  0.00  0.00    +0.069 C 
ATOM     34  C   UNL     1      35.892 -22.140 -17.962  0.00  0.00    +0.012 C 
ATOM     35  H   UNL     1      38.206 -19.331 -20.073  0.00  0.00    +0.152 HD
BRANCH  33  37
ATOM     36  N   UNL     1      32.858 -23.837 -17.567  0.00  0.00    -0.191 NA
ATOM     37  C   UNL     1      33.652 -23.112 -18.006  0.00  0.00    +0.100 C 
ENDBRANCH  33  37
ENDBRANCH  25  27
ENDBRANCH  24  25
ENDBRANCH  23  24
ENDBRANCH  22  23
ENDBRANCH   1  22
TORSDOF 8
ENDMDL
MODEL 7
REMARK VINA RESULT:     -11.6      2.469      4.975
REMARK  Name = 6918314
REMARK  8 active torsions:
REMARK  status: ('A' for Active; 'I' for Inactive)
REMARK    1  A    between atoms: N_1  and  C_22
REMARK    2  A    between atoms: N_2  and  C_9
REMARK    3  A    between atoms: C_16  and  C_19
REMARK    4  A    between atoms: C_22  and  C_23
REMARK    5  A    between atoms: C_23  and  C_24
REMARK    6  A    between atoms: C_24  and  C_25
REMARK    7  A    between atoms: C_25  and  C_27
REMARK    8  A    between atoms: C_33  and  C_37
REMARK                            x       y       z     vdW  Elec       q    Type
REMARK                         _______ _______ _______ _____ _____    ______ ____
ROOT
ATOM      1  N   UNL     1      35.985 -21.216 -19.848  0.00  0.00    +0.389 N 
ATOM      2  N   UNL     1      35.372 -18.765 -21.179  0.00  0.00    -0.312 N 
ATOM      3  C   UNL     1      34.595 -20.758 -19.955  0.00  0.00    -0.055 C 
ATOM      4  C   UNL     1      36.884 -20.062 -19.731  0.00  0.00    -0.055 C 
ATOM      5  C   UNL     1      34.403 -19.868 -21.185  0.00  0.00    +0.068 C 
ATOM      6  C   UNL     1      36.769 -19.148 -20.953  0.00  0.00    +0.068 C 
ATOM      7  H   UNL     1      36.226 -21.736 -20.691  0.00  0.00    -0.080 HD
ENDROOT
BRANCH   2   9
ATOM      8  O   UNL     1      34.204 -14.194 -24.057  0.00  0.00    -0.449 OA
ATOM      9  C   UNL     1      35.078 -17.628 -21.941  0.00  0.00    +0.048 C 
ATOM     10  C   UNL     1      34.849 -16.380 -21.310  0.00  0.00    +0.018 C 
ATOM     11  C   UNL     1      35.004 -17.704 -23.350  0.00  0.00    +0.018 C 
ATOM     12  C   UNL     1      34.555 -15.247 -22.089  0.00  0.00    +0.039 C 
ATOM     13  C   UNL     1      34.498 -15.389 -23.472  0.00  0.00    +0.146 C 
ATOM     14  C   UNL     1      34.714 -16.591 -24.145  0.00  0.00    +0.039 C 
ATOM     15  C   UNL     1      34.277 -13.879 -21.830  0.00  0.00    +0.045 C 
ATOM     16  C   UNL     1      34.072 -13.286 -23.054  0.00  0.00    +0.198 C 
BRANCH  16  19
ATOM     17  O   UNL     1      32.607 -11.444 -23.380  0.00  0.00    -0.267 OA
ATOM     18  N   UNL     1      34.803 -11.110 -23.845  0.00  0.00    -0.323 N 
ATOM     19  C   UNL     1      33.760 -11.944 -23.408  0.00  0.00    +0.277 C 
ATOM     20  H   UNL     1      34.615 -10.177 -24.096  0.00  0.00    +0.145 HD
ATOM     21  H   UNL     1      35.722 -11.459 -23.900  0.00  0.00    +0.145 HD
ENDBRANCH  16  19
ENDBRANCH   2   9
BRANCH   1  22
ATOM     22  C   UNL     1      36.144 -22.109 -18.700  0.00  0.00    -0.077 C 
BRANCH  22  23
ATOM     23  C   UNL     1      36.891 -21.397 -17.573  0.00  0.00    -0.022 C 
BRANCH  23  24
ATOM     24  C   UNL     1      36.883 -22.232 -16.291  0.00  0.00    +0.003 C 
BRANCH  24  25
ATOM     25  C   UNL     1      35.643 -23.128 -16.217  0.00  0.00    +0.028 C 
BRANCH  25  27
ATOM     26  N   UNL     1      34.625 -24.459 -12.972  0.00  0.00    -0.312 N 
ATOM     27  C   UNL     1      35.492 -23.782 -14.876  0.00  0.00    -0.006 C 
ATOM     28  C   UNL     1      36.486 -24.522 -14.203  0.00  0.00    +0.011 C 
ATOM     29  C   UNL     1      34.362 -23.751 -14.114  0.00  0.00    +0.058 C 
ATOM     30  C   UNL     1      35.915 -24.942 -12.999  0.00  0.00    +0.048 C 
ATOM     31  C   UNL     1      37.818 -24.886 -14.485  0.00  0.00    +0.011 C 
ATOM     32  C   UNL     1      36.613 -25.708 -12.060  0.00  0.00    +0.015 C 
ATOM     33  C   UNL     1      38.527 -25.653 -13.554  0.00  0.00    +0.069 C 
ATOM     34  C   UNL     1      37.933 -26.058 -12.361  0.00  0.00    +0.012 C 
ATOM     35  H   UNL     1      33.986 -24.602 -12.238  0.00  0.00    +0.152 HD
BRANCH  33  37
ATOM     36  N   UNL     1      40.978 -26.326 -14.060  0.00  0.00    -0.191 NA
ATOM     37  C   UNL     1      39.880 -26.025 -13.834  0.00  0.00    +0.100 C 
ENDBRANCH  33  37
ENDBRANCH  25  27
ENDBRANCH  24  25
ENDBRANCH  23  24
ENDBRANCH  22  23
ENDBRANCH   1  22
TORSDOF 8
ENDMDL
MODEL 8
REMARK VINA RESULT:     -11.0      2.437      5.238
REMARK  Name = 6918314
REMARK  8 active torsions:
REMARK  status: ('A' for Active; 'I' for Inactive)
REMARK    1  A    between atoms: N_1  and  C_22
REMARK    2  A    between atoms: N_2  and  C_9
REMARK    3  A    between atoms: C_16  and  C_19
REMARK    4  A    between atoms: C_22  and  C_23
REMARK    5  A    between atoms: C_23  and  C_24
REMARK    6  A    between atoms: C_24  and  C_25
REMARK    7  A    between atoms: C_25  and  C_27
REMARK    8  A    between atoms: C_33  and  C_37
REMARK                            x       y       z     vdW  Elec       q    Type
REMARK                         _______ _______ _______ _____ _____    ______ ____
ROOT
ATOM      1  N   UNL     1      35.897 -21.337 -19.746  0.00  0.00    +0.389 N 
ATOM      2  N   UNL     1      35.334 -18.883 -21.094  0.00  0.00    -0.312 N 
ATOM      3  C   UNL     1      34.512 -20.882 -19.910  0.00  0.00    -0.055 C 
ATOM      4  C   UNL     1      36.787 -20.181 -19.587  0.00  0.00    -0.055 C 
ATOM      5  C   UNL     1      34.370 -19.989 -21.145  0.00  0.00    +0.068 C 
ATOM      6  C   UNL     1      36.721 -19.264 -20.810  0.00  0.00    +0.068 C 
ATOM      7  H   UNL     1      36.176 -21.854 -20.580  0.00  0.00    -0.080 HD
ENDROOT
BRANCH   2   9
ATOM      8  O   UNL     1      34.278 -14.305 -24.004  0.00  0.00    -0.449 OA
ATOM      9  C   UNL     1      35.070 -17.744 -21.864  0.00  0.00    +0.048 C 
ATOM     10  C   UNL     1      34.827 -16.495 -21.240  0.00  0.00    +0.018 C 
ATOM     11  C   UNL     1      35.039 -17.819 -23.274  0.00  0.00    +0.018 C 
ATOM     12  C   UNL     1      34.563 -15.361 -22.027  0.00  0.00    +0.039 C 
ATOM     13  C   UNL     1      34.548 -15.502 -23.411  0.00  0.00    +0.146 C 
ATOM     14  C   UNL     1      34.780 -16.704 -24.077  0.00  0.00    +0.039 C 
ATOM     15  C   UNL     1      34.284 -13.992 -21.775  0.00  0.00    +0.045 C 
ATOM     16  C   UNL     1      34.120 -13.397 -23.004  0.00  0.00    +0.198 C 
BRANCH  16  19
ATOM     17  O   UNL     1      32.698 -11.509 -23.250  0.00  0.00    -0.267 OA
ATOM     18  N   UNL     1      34.854 -11.271 -23.918  0.00  0.00    -0.323 N 
ATOM     19  C   UNL     1      33.826 -12.053 -23.367  0.00  0.00    +0.277 C 
ATOM     20  H   UNL     1      34.678 -10.338 -24.178  0.00  0.00    +0.145 HD
ATOM     21  H   UNL     1      35.751 -11.656 -24.044  0.00  0.00    +0.145 HD
ENDBRANCH  16  19
ENDBRANCH   2   9
BRANCH   1  22
ATOM     22  C   UNL     1      36.010 -22.233 -18.596  0.00  0.00    -0.077 C 
BRANCH  22  23
ATOM     23  C   UNL     1      34.655 -22.386 -17.907  0.00  0.00    -0.022 C 
BRANCH  23  24
ATOM     24  C   UNL     1      34.783 -23.173 -16.602  0.00  0.00    +0.003 C 
BRANCH  24  25
ATOM     25  C   UNL     1      35.649 -22.426 -15.583  0.00  0.00    +0.028 C 
BRANCH  25  27
ATOM     26  N   UNL     1      38.784 -24.248 -15.148  0.00  0.00    -0.312 N 
ATOM     27  C   UNL     1      36.834 -23.233 -15.142  0.00  0.00    -0.006 C 
ATOM     28  C   UNL     1      36.988 -23.852 -13.884  0.00  0.00    +0.011 C 
ATOM     29  C   UNL     1      37.937 -23.482 -15.903  0.00  0.00    +0.058 C 
ATOM     30  C   UNL     1      38.231 -24.488 -13.909  0.00  0.00    +0.048 C 
ATOM     31  C   UNL     1      36.204 -23.942 -12.717  0.00  0.00    +0.011 C 
ATOM     32  C   UNL     1      38.729 -25.214 -12.822  0.00  0.00    +0.015 C 
ATOM     33  C   UNL     1      36.690 -24.664 -11.622  0.00  0.00    +0.069 C 
ATOM     34  C   UNL     1      37.934 -25.290 -11.675  0.00  0.00    +0.012 C 
ATOM     35  H   UNL     1      39.663 -24.578 -15.445  0.00  0.00    +0.152 HD
BRANCH  33  37
ATOM     36  N   UNL     1      35.256 -24.839  -9.471  0.00  0.00    -0.191 NA
ATOM     37  C   UNL     1      35.899 -24.761 -10.434  0.00  0.00    +0.100 C 
ENDBRANCH  33  37
ENDBRANCH  25  27
ENDBRANCH  24  25
ENDBRANCH  23  24
ENDBRANCH  22  23
ENDBRANCH   1  22
TORSDOF 8
ENDMDL
MODEL 9
REMARK VINA RESULT:     -10.8      1.584      2.480
REMARK  Name = 6918314
REMARK  8 active torsions:
REMARK  status: ('A' for Active; 'I' for Inactive)
REMARK    1  A    between atoms: N_1  and  C_22
REMARK    2  A    between atoms: N_2  and  C_9
REMARK    3  A    between atoms: C_16  and  C_19
REMARK    4  A    between atoms: C_22  and  C_23
REMARK    5  A    between atoms: C_23  and  C_24
REMARK    6  A    between atoms: C_24  and  C_25
REMARK    7  A    between atoms: C_25  and  C_27
REMARK    8  A    between atoms: C_33  and  C_37
REMARK                            x       y       z     vdW  Elec       q    Type
REMARK                         _______ _______ _______ _____ _____    ______ ____
ROOT
ATOM      1  N   UNL     1      33.978 -15.882 -23.630  0.00  0.00    +0.389 N 
ATOM      2  N   UNL     1      33.995 -13.029 -23.519  0.00  0.00    -0.312 N 
ATOM      3  C   UNL     1      34.665 -15.187 -22.536  0.00  0.00    -0.055 C 
ATOM      4  C   UNL     1      34.073 -15.092 -24.863  0.00  0.00    -0.055 C 
ATOM      5  C   UNL     1      34.040 -13.814 -22.279  0.00  0.00    +0.068 C 
ATOM      6  C   UNL     1      33.430 -13.715 -24.685  0.00  0.00    +0.068 C 
ATOM      7  H   UNL     1      32.994 -15.991 -23.385  0.00  0.00    -0.080 HD
ENDROOT
BRANCH   2   9
ATOM      8  O   UNL     1      33.435  -7.552 -23.036  0.00  0.00    -0.449 OA
ATOM      9  C   UNL     1      33.888 -11.637 -23.412  0.00  0.00    +0.048 C 
ATOM     10  C   UNL     1      32.727 -11.046 -22.855  0.00  0.00    +0.018 C 
ATOM     11  C   UNL     1      34.933 -10.798 -23.860  0.00  0.00    +0.018 C 
ATOM     12  C   UNL     1      32.635  -9.646 -22.755  0.00  0.00    +0.039 C 
ATOM     13  C   UNL     1      33.700  -8.877 -23.213  0.00  0.00    +0.146 C 
ATOM     14  C   UNL     1      34.864  -9.404 -23.770  0.00  0.00    +0.039 C 
ATOM     15  C   UNL     1      31.671  -8.723 -22.273  0.00  0.00    +0.045 C 
ATOM     16  C   UNL     1      32.203  -7.470 -22.466  0.00  0.00    +0.198 C 
BRANCH  16  19
ATOM     17  O   UNL     1      32.338  -5.103 -22.292  0.00  0.00    -0.267 OA
ATOM     18  N   UNL     1      30.370  -6.071 -21.706  0.00  0.00    -0.323 N 
ATOM     19  C   UNL     1      31.689  -6.175 -22.176  0.00  0.00    +0.277 C 
ATOM     20  H   UNL     1      29.990  -5.187 -21.498  0.00  0.00    +0.145 HD
ATOM     21  H   UNL     1      29.826  -6.882 -21.584  0.00  0.00    +0.145 HD
ENDBRANCH  16  19
ENDBRANCH   2   9
BRANCH   1  22
ATOM     22  C   UNL     1      34.549 -17.214 -23.830  0.00  0.00    -0.077 C 
BRANCH  22  23
ATOM     23  C   UNL     1      35.174 -17.723 -22.532  0.00  0.00    -0.022 C 
BRANCH  23  24
ATOM     24  C   UNL     1      34.937 -19.224 -22.356  0.00  0.00    +0.003 C 
BRANCH  24  25
ATOM     25  C   UNL     1      35.485 -19.722 -21.015  0.00  0.00    +0.028 C 
BRANCH  25  27
ATOM     26  N   UNL     1      32.644 -21.621 -19.727  0.00  0.00    -0.312 N 
ATOM     27  C   UNL     1      34.505 -20.592 -20.286  0.00  0.00    -0.006 C 
ATOM     28  C   UNL     1      34.783 -21.368 -19.142  0.00  0.00    +0.011 C 
ATOM     29  C   UNL     1      33.197 -20.756 -20.633  0.00  0.00    +0.058 C 
ATOM     30  C   UNL     1      33.590 -22.012 -18.805  0.00  0.00    +0.048 C 
ATOM     31  C   UNL     1      35.925 -21.597 -18.349  0.00  0.00    +0.011 C 
ATOM     32  C   UNL     1      33.482 -22.875 -17.710  0.00  0.00    +0.015 C 
ATOM     33  C   UNL     1      35.831 -22.459 -17.250  0.00  0.00    +0.069 C 
ATOM     34  C   UNL     1      34.628 -23.088 -16.937  0.00  0.00    +0.012 C 
ATOM     35  H   UNL     1      31.707 -21.921 -19.733  0.00  0.00    +0.152 HD
BRANCH  33  37
ATOM     36  N   UNL     1      37.924 -22.888 -15.783  0.00  0.00    -0.191 NA
ATOM     37  C   UNL     1      36.986 -22.696 -16.440  0.00  0.00    +0.100 C 
ENDBRANCH  33  37
ENDBRANCH  25  27
ENDBRANCH  24  25
ENDBRANCH  23  24
ENDBRANCH  22  23
ENDBRANCH   1  22
TORSDOF 8
ENDMDL
