MODEL 1
REMARK VINA RESULT:     -11.5      0.000      0.000
REMARK  Name = 657140
REMARK  9 active torsions:
REMARK  status: ('A' for Active; 'I' for Inactive)
REMARK    1  A    between atoms: C_1  and  N_8
REMARK    2  A    between atoms: C_2  and  O_20
REMARK    3  A    between atoms: C_9  and  C_11
REMARK    4  A    between atoms: C_14  and  N_19
REMARK    5  A    between atoms: O_20  and  C_21
REMARK    6  A    between atoms: C_22  and  C_28
REMARK    7  A    between atoms: C_24  and  C_32
REMARK    8  A    between atoms: C_28  and  O_29
REMARK    9  A    between atoms: C_32  and  O_33
REMARK                            x       y       z     vdW  Elec       q    Type
REMARK                         _______ _______ _______ _____ _____    ______ ____
ROOT
ATOM      1  C   UNL     1      31.445 -23.567 -15.837  0.00  0.00    +0.086 C 
ATOM      2  C   UNL     1      32.120 -23.715 -14.637  0.00  0.00    +0.159 C 
ATOM      3  C   UNL     1      30.210 -24.158 -16.049  0.00  0.00    +0.018 C 
ATOM      4  C   UNL     1      31.545 -24.478 -13.620  0.00  0.00    +0.039 C 
ATOM      5  C   UNL     1      29.635 -24.921 -15.033  0.00  0.00    +0.001 C 
ATOM      6  C   UNL     1      30.302 -25.080 -13.817  0.00  0.00    +0.003 C 
ENDROOT
BRANCH   1   8
ATOM      7  O   UNL     1      33.538 -24.284 -17.860  0.00  0.00    -0.270 OA
ATOM      8  N   UNL     1      32.014 -22.794 -16.879  0.00  0.00    -0.278 N 
ATOM      9  C   UNL     1      32.996 -23.169 -17.807  0.00  0.00    +0.250 C 
ATOM     10  H   UNL     1      31.677 -21.872 -16.961  0.00  0.00    +0.155 HD
BRANCH   9  11
ATOM     11  C   UNL     1      33.404 -22.139 -18.749  0.00  0.00    +0.055 C 
ATOM     12  C   UNL     1      34.756 -21.833 -18.904  0.00  0.00    +0.029 C 
ATOM     13  C   UNL     1      32.445 -21.459 -19.499  0.00  0.00    +0.005 C 
ATOM     14  C   UNL     1      35.149 -20.847 -19.810  0.00  0.00    +0.143 C 
ATOM     15  C   UNL     1      32.836 -20.473 -20.404  0.00  0.00    +0.002 C 
ATOM     16  C   UNL     1      34.188 -20.167 -20.559  0.00  0.00    +0.024 C 
BRANCH  14  19
ATOM     17  O   UNL     1      36.849 -19.375 -20.321  0.00  0.00    -0.126 OA
ATOM     18  O   UNL     1      37.379 -21.429 -19.757  0.00  0.00    -0.126 OA
ATOM     19  N   UNL     1      36.525 -20.536 -19.970  0.00  0.00    +0.058 N 
ENDBRANCH  14  19
ENDBRANCH   9  11
ENDBRANCH   1   8
BRANCH   2  20
ATOM     20  O   UNL     1      33.334 -23.134 -14.423  0.00  0.00    -0.452 OA
BRANCH  20  21
ATOM     21  C   UNL     1      34.348 -23.933 -13.922  0.00  0.00    +0.146 C 
ATOM     22  C   UNL     1      35.656 -24.697 -12.066  0.00  0.00    +0.085 C 
ATOM     23  C   UNL     1      34.635 -23.891 -12.569  0.00  0.00    +0.044 C 
ATOM     24  C   UNL     1      36.374 -25.531 -12.922  0.00  0.00    +0.082 C 
ATOM     25  C   UNL     1      35.048 -24.754 -14.788  0.00  0.00    +0.038 C 
ATOM     26  C   UNL     1      36.069 -25.560 -14.284  0.00  0.00    +0.010 C 
BRANCH  22  28
ATOM     27  O   UNL     1      36.782 -23.903 -10.110  0.00  0.00    -0.245 OA
ATOM     28  C   UNL     1      35.949 -24.644 -10.640  0.00  0.00    +0.338 C 
BRANCH  28  29
ATOM     29  O   UNL     1      35.193 -25.516  -9.922  0.00  0.00    -0.477 OA
ATOM     30  H   UNL     1      34.314 -25.702 -10.186  0.00  0.00    +0.295 HD
ENDBRANCH  28  29
ENDBRANCH  22  28
BRANCH  24  32
ATOM     31  O   UNL     1      38.623 -26.336 -12.797  0.00  0.00    -0.245 OA
ATOM     32  C   UNL     1      37.446 -26.383 -12.428  0.00  0.00    +0.338 C 
BRANCH  32  33
ATOM     33  O   UNL     1      37.013 -27.267 -11.489  0.00  0.00    -0.477 OA
ATOM     34  H   UNL     1      37.588 -27.938 -11.177  0.00  0.00    +0.295 HD
ENDBRANCH  32  33
ENDBRANCH  24  32
ENDBRANCH  20  21
ENDBRANCH   2  20
TORSDOF 9
ENDMDL
MODEL 2
REMARK VINA RESULT:     -11.3      0.861      2.032
REMARK  Name = 657140
REMARK  9 active torsions:
REMARK  status: ('A' for Active; 'I' for Inactive)
REMARK    1  A    between atoms: C_1  and  N_8
REMARK    2  A    between atoms: C_2  and  O_20
REMARK    3  A    between atoms: C_9  and  C_11
REMARK    4  A    between atoms: C_14  and  N_19
REMARK    5  A    between atoms: O_20  and  C_21
REMARK    6  A    between atoms: C_22  and  C_28
REMARK    7  A    between atoms: C_24  and  C_32
REMARK    8  A    between atoms: C_28  and  O_29
REMARK    9  A    between atoms: C_32  and  O_33
REMARK                            x       y       z     vdW  Elec       q    Type
REMARK                         _______ _______ _______ _____ _____    ______ ____
ROOT
ATOM      1  C   UNL     1      31.529 -23.684 -15.720  0.00  0.00    +0.086 C 
ATOM      2  C   UNL     1      32.232 -23.832 -14.536  0.00  0.00    +0.159 C 
ATOM      3  C   UNL     1      30.295 -24.286 -15.906  0.00  0.00    +0.018 C 
ATOM      4  C   UNL     1      31.688 -24.605 -13.511  0.00  0.00    +0.039 C 
ATOM      5  C   UNL     1      29.750 -25.059 -14.881  0.00  0.00    +0.001 C 
ATOM      6  C   UNL     1      30.447 -25.218 -13.683  0.00  0.00    +0.003 C 
ENDROOT
BRANCH   1   8
ATOM      7  O   UNL     1      33.656 -24.337 -17.729  0.00  0.00    -0.270 OA
ATOM      8  N   UNL     1      32.067 -22.901 -16.771  0.00  0.00    -0.278 N 
ATOM      9  C   UNL     1      33.066 -23.245 -17.692  0.00  0.00    +0.250 C 
ATOM     10  H   UNL     1      31.691 -21.996 -16.865  0.00  0.00    +0.155 HD
BRANCH   9  11
ATOM     11  C   UNL     1      33.432 -22.211 -18.647  0.00  0.00    +0.055 C 
ATOM     12  C   UNL     1      34.776 -21.902 -18.858  0.00  0.00    +0.029 C 
ATOM     13  C   UNL     1      32.440 -21.531 -19.352  0.00  0.00    +0.005 C 
ATOM     14  C   UNL     1      35.127 -20.911 -19.776  0.00  0.00    +0.143 C 
ATOM     15  C   UNL     1      32.791 -20.539 -20.269  0.00  0.00    +0.002 C 
ATOM     16  C   UNL     1      34.134 -20.230 -20.480  0.00  0.00    +0.024 C 
BRANCH  14  19
ATOM     17  O   UNL     1      36.797 -19.449 -20.401  0.00  0.00    -0.126 OA
ATOM     18  O   UNL     1      37.363 -21.473 -19.771  0.00  0.00    -0.126 OA
ATOM     19  N   UNL     1      36.494 -20.596 -19.993  0.00  0.00    +0.058 N 
ENDBRANCH  14  19
ENDBRANCH   9  11
ENDBRANCH   1   8
BRANCH   2  20
ATOM     20  O   UNL     1      33.446 -23.241 -14.348  0.00  0.00    -0.452 OA
BRANCH  20  21
ATOM     21  C   UNL     1      34.462 -24.018 -13.817  0.00  0.00    +0.146 C 
ATOM     22  C   UNL     1      36.210 -25.628 -14.119  0.00  0.00    +0.085 C 
ATOM     23  C   UNL     1      35.187 -24.847 -14.654  0.00  0.00    +0.044 C 
ATOM     24  C   UNL     1      36.493 -25.567 -12.754  0.00  0.00    +0.082 C 
ATOM     25  C   UNL     1      34.728 -23.943 -12.461  0.00  0.00    +0.038 C 
ATOM     26  C   UNL     1      35.752 -24.725 -11.926  0.00  0.00    +0.010 C 
BRANCH  22  28
ATOM     27  O   UNL     1      36.523 -27.505 -15.568  0.00  0.00    -0.245 OA
ATOM     28  C   UNL     1      36.966 -26.497 -15.011  0.00  0.00    +0.338 C 
BRANCH  28  29
ATOM     29  O   UNL     1      38.249 -26.079 -15.178  0.00  0.00    -0.477 OA
ATOM     30  H   UNL     1      38.860 -26.147 -14.471  0.00  0.00    +0.295 HD
ENDBRANCH  28  29
ENDBRANCH  22  28
BRANCH  24  32
ATOM     31  O   UNL     1      38.746 -26.325 -12.486  0.00  0.00    -0.245 OA
ATOM     32  C   UNL     1      37.555 -26.370 -12.165  0.00  0.00    +0.338 C 
BRANCH  32  33
ATOM     33  O   UNL     1      37.095 -27.204 -11.193  0.00  0.00    -0.477 OA
ATOM     34  H   UNL     1      36.628 -26.856 -10.459  0.00  0.00    +0.295 HD
ENDBRANCH  32  33
ENDBRANCH  24  32
ENDBRANCH  20  21
ENDBRANCH   2  20
TORSDOF 9
ENDMDL
MODEL 3
REMARK VINA RESULT:     -11.2      2.460      7.202
REMARK  Name = 657140
REMARK  9 active torsions:
REMARK  status: ('A' for Active; 'I' for Inactive)
REMARK    1  A    between atoms: C_1  and  N_8
REMARK    2  A    between atoms: C_2  and  O_20
REMARK    3  A    between atoms: C_9  and  C_11
REMARK    4  A    between atoms: C_14  and  N_19
REMARK    5  A    between atoms: O_20  and  C_21
REMARK    6  A    between atoms: C_22  and  C_28
REMARK    7  A    between atoms: C_24  and  C_32
REMARK    8  A    between atoms: C_28  and  O_29
REMARK    9  A    between atoms: C_32  and  O_33
REMARK                            x       y       z     vdW  Elec       q    Type
REMARK                         _______ _______ _______ _____ _____    ______ ____
ROOT
ATOM      1  C   UNL     1      35.973 -25.503 -14.360  0.00  0.00    +0.086 C 
ATOM      2  C   UNL     1      36.832 -24.417 -14.393  0.00  0.00    +0.159 C 
ATOM      3  C   UNL     1      36.450 -26.796 -14.222  0.00  0.00    +0.018 C 
ATOM      4  C   UNL     1      38.206 -24.630 -14.288  0.00  0.00    +0.039 C 
ATOM      5  C   UNL     1      37.824 -27.010 -14.117  0.00  0.00    +0.001 C 
ATOM      6  C   UNL     1      38.703 -25.926 -14.149  0.00  0.00    +0.003 C 
ENDROOT
BRANCH   1   8
ATOM      7  O   UNL     1      34.021 -24.388 -12.376  0.00  0.00    -0.270 OA
ATOM      8  N   UNL     1      34.574 -25.303 -14.465  0.00  0.00    -0.278 N 
ATOM      9  C   UNL     1      33.694 -24.777 -13.509  0.00  0.00    +0.250 C 
ATOM     10  H   UNL     1      34.167 -25.570 -15.321  0.00  0.00    +0.155 HD
BRANCH   9  11
ATOM     11  C   UNL     1      32.294 -24.721 -13.899  0.00  0.00    +0.055 C 
ATOM     12  C   UNL     1      31.891 -23.867 -14.926  0.00  0.00    +0.029 C 
ATOM     13  C   UNL     1      31.356 -25.521 -13.248  0.00  0.00    +0.005 C 
ATOM     14  C   UNL     1      30.548 -23.815 -15.301  0.00  0.00    +0.143 C 
ATOM     15  C   UNL     1      30.014 -25.468 -13.622  0.00  0.00    +0.002 C 
ATOM     16  C   UNL     1      29.610 -24.615 -14.649  0.00  0.00    +0.024 C 
BRANCH  14  19
ATOM     17  O   UNL     1      28.911 -22.719 -16.501  0.00  0.00    -0.126 OA
ATOM     18  O   UNL     1      31.006 -22.435 -17.091  0.00  0.00    -0.126 OA
ATOM     19  N   UNL     1      30.136 -22.948 -16.347  0.00  0.00    +0.058 N 
ENDBRANCH  14  19
ENDBRANCH   9  11
ENDBRANCH   1   8
BRANCH   2  20
ATOM     20  O   UNL     1      36.368 -23.142 -14.527  0.00  0.00    -0.452 OA
BRANCH  20  21
ATOM     21  C   UNL     1      36.266 -22.628 -15.808  0.00  0.00    +0.146 C 
ATOM     22  C   UNL     1      35.080 -22.457 -17.883  0.00  0.00    +0.085 C 
ATOM     23  C   UNL     1      35.181 -22.976 -16.593  0.00  0.00    +0.044 C 
ATOM     24  C   UNL     1      36.065 -21.597 -18.368  0.00  0.00    +0.082 C 
ATOM     25  C   UNL     1      37.254 -21.776 -16.272  0.00  0.00    +0.038 C 
ATOM     26  C   UNL     1      37.151 -21.256 -17.562  0.00  0.00    +0.010 C 
BRANCH  22  28
ATOM     27  O   UNL     1      33.770 -23.930 -19.237  0.00  0.00    -0.245 OA
ATOM     28  C   UNL     1      33.933 -22.831 -18.699  0.00  0.00    +0.338 C 
BRANCH  28  29
ATOM     29  O   UNL     1      33.028 -21.824 -18.816  0.00  0.00    -0.477 OA
ATOM     30  H   UNL     1      33.284 -21.006 -19.196  0.00  0.00    +0.295 HD
ENDBRANCH  28  29
ENDBRANCH  22  28
BRANCH  24  32
ATOM     31  O   UNL     1      35.274 -21.466 -20.622  0.00  0.00    -0.245 OA
ATOM     32  C   UNL     1      35.988 -21.038 -19.711  0.00  0.00    +0.338 C 
BRANCH  32  33
ATOM     33  O   UNL     1      36.807 -19.964 -19.872  0.00  0.00    -0.477 OA
ATOM     34  H   UNL     1      36.567 -19.133 -19.510  0.00  0.00    +0.295 HD
ENDBRANCH  32  33
ENDBRANCH  24  32
ENDBRANCH  20  21
ENDBRANCH   2  20
TORSDOF 9
ENDMDL
MODEL 4
REMARK VINA RESULT:     -10.8      1.767      2.535
REMARK  Name = 657140
REMARK  9 active torsions:
REMARK  status: ('A' for Active; 'I' for Inactive)
REMARK    1  A    between atoms: C_1  and  N_8
REMARK    2  A    between atoms: C_2  and  O_20
REMARK    3  A    between atoms: C_9  and  C_11
REMARK    4  A    between atoms: C_14  and  N_19
REMARK    5  A    between atoms: O_20  and  C_21
REMARK    6  A    between atoms: C_22  and  C_28
REMARK    7  A    between atoms: C_24  and  C_32
REMARK    8  A    between atoms: C_28  and  O_29
REMARK    9  A    between atoms: C_32  and  O_33
REMARK                            x       y       z     vdW  Elec       q    Type
REMARK                         _______ _______ _______ _____ _____    ______ ____
ROOT
ATOM      1  C   UNL     1      32.739 -23.182 -16.545  0.00  0.00    +0.086 C 
ATOM      2  C   UNL     1      33.224 -24.236 -15.790  0.00  0.00    +0.159 C 
ATOM      3  C   UNL     1      31.406 -22.809 -16.493  0.00  0.00    +0.018 C 
ATOM      4  C   UNL     1      32.351 -24.939 -14.960  0.00  0.00    +0.039 C 
ATOM      5  C   UNL     1      30.533 -23.512 -15.664  0.00  0.00    +0.001 C 
ATOM      6  C   UNL     1      31.006 -24.578 -14.896  0.00  0.00    +0.003 C 
ENDROOT
BRANCH   1   8
ATOM      7  O   UNL     1      32.608 -22.685 -19.499  0.00  0.00    -0.270 OA
ATOM      8  N   UNL     1      33.614 -22.456 -17.392  0.00  0.00    -0.278 N 
ATOM      9  C   UNL     1      33.516 -22.248 -18.775  0.00  0.00    +0.250 C 
ATOM     10  H   UNL     1      34.393 -22.046 -16.951  0.00  0.00    +0.155 HD
BRANCH   9  11
ATOM     11  C   UNL     1      34.592 -21.477 -19.377  0.00  0.00    +0.055 C 
ATOM     12  C   UNL     1      34.302 -20.518 -20.348  0.00  0.00    +0.029 C 
ATOM     13  C   UNL     1      35.912 -21.694 -18.983  0.00  0.00    +0.005 C 
ATOM     14  C   UNL     1      35.334 -19.776 -20.925  0.00  0.00    +0.143 C 
ATOM     15  C   UNL     1      36.943 -20.954 -19.560  0.00  0.00    +0.002 C 
ATOM     16  C   UNL     1      36.654 -19.995 -20.531  0.00  0.00    +0.024 C 
BRANCH  14  19
ATOM     17  O   UNL     1      34.473 -19.157 -22.973  0.00  0.00    -0.126 OA
ATOM     18  O   UNL     1      35.358 -17.604 -21.699  0.00  0.00    -0.126 OA
ATOM     19  N   UNL     1      35.041 -18.799 -21.913  0.00  0.00    +0.058 N 
ENDBRANCH  14  19
ENDBRANCH   9  11
ENDBRANCH   1   8
BRANCH   2  20
ATOM     20  O   UNL     1      34.535 -24.606 -15.836  0.00  0.00    -0.452 OA
BRANCH  20  21
ATOM     21  C   UNL     1      35.334 -24.275 -14.754  0.00  0.00    +0.146 C 
ATOM     22  C   UNL     1      36.091 -24.724 -12.526  0.00  0.00    +0.085 C 
ATOM     23  C   UNL     1      35.286 -25.058 -13.615  0.00  0.00    +0.044 C 
ATOM     24  C   UNL     1      36.931 -23.613 -12.594  0.00  0.00    +0.082 C 
ATOM     25  C   UNL     1      36.161 -23.169 -14.841  0.00  0.00    +0.038 C 
ATOM     26  C   UNL     1      36.966 -22.836 -13.751  0.00  0.00    +0.010 C 
BRANCH  22  28
ATOM     27  O   UNL     1      35.397 -25.289 -10.308  0.00  0.00    -0.245 OA
ATOM     28  C   UNL     1      36.031 -25.556 -11.332  0.00  0.00    +0.338 C 
BRANCH  28  29
ATOM     29  O   UNL     1      36.764 -26.695 -11.455  0.00  0.00    -0.477 OA
ATOM     30  H   UNL     1      37.158 -27.083 -10.699  0.00  0.00    +0.295 HD
ENDBRANCH  28  29
ENDBRANCH  22  28
BRANCH  24  32
ATOM     31  O   UNL     1      38.989 -23.485 -11.381  0.00  0.00    -0.245 OA
ATOM     32  C   UNL     1      37.783 -23.238 -11.474  0.00  0.00    +0.338 C 
BRANCH  32  33
ATOM     33  O   UNL     1      37.102 -22.568 -10.506  0.00  0.00    -0.477 OA
ATOM     34  H   UNL     1      37.031 -22.931  -9.645  0.00  0.00    +0.295 HD
ENDBRANCH  32  33
ENDBRANCH  24  32
ENDBRANCH  20  21
ENDBRANCH   2  20
TORSDOF 9
ENDMDL
MODEL 5
REMARK VINA RESULT:     -10.7      2.876      8.566
REMARK  Name = 657140
REMARK  9 active torsions:
REMARK  status: ('A' for Active; 'I' for Inactive)
REMARK    1  A    between atoms: C_1  and  N_8
REMARK    2  A    between atoms: C_2  and  O_20
REMARK    3  A    between atoms: C_9  and  C_11
REMARK    4  A    between atoms: C_14  and  N_19
REMARK    5  A    between atoms: O_20  and  C_21
REMARK    6  A    between atoms: C_22  and  C_28
REMARK    7  A    between atoms: C_24  and  C_32
REMARK    8  A    between atoms: C_28  and  O_29
REMARK    9  A    between atoms: C_32  and  O_33
REMARK                            x       y       z     vdW  Elec       q    Type
REMARK                         _______ _______ _______ _____ _____    ______ ____
ROOT
ATOM      1  C   UNL     1      34.745 -23.094 -15.984  0.00  0.00    +0.086 C 
ATOM      2  C   UNL     1      35.195 -22.725 -17.240  0.00  0.00    +0.159 C 
ATOM      3  C   UNL     1      35.581 -23.066 -14.880  0.00  0.00    +0.018 C 
ATOM      4  C   UNL     1      36.519 -22.318 -17.398  0.00  0.00    +0.039 C 
ATOM      5  C   UNL     1      36.906 -22.658 -15.037  0.00  0.00    +0.001 C 
ATOM      6  C   UNL     1      37.375 -22.283 -16.297  0.00  0.00    +0.003 C 
ENDROOT
BRANCH   1   8
ATOM      7  O   UNL     1      33.247 -23.797 -13.483  0.00  0.00    -0.270 OA
ATOM      8  N   UNL     1      33.402 -23.509 -15.807  0.00  0.00    -0.278 N 
ATOM      9  C   UNL     1      32.738 -23.830 -14.615  0.00  0.00    +0.250 C 
ATOM     10  H   UNL     1      32.865 -23.583 -16.629  0.00  0.00    +0.155 HD
BRANCH   9  11
ATOM     11  C   UNL     1      31.354 -24.255 -14.754  0.00  0.00    +0.055 C 
ATOM     12  C   UNL     1      30.494 -23.560 -15.605  0.00  0.00    +0.029 C 
ATOM     13  C   UNL     1      30.887 -25.357 -14.039  0.00  0.00    +0.005 C 
ATOM     14  C   UNL     1      29.167 -23.969 -15.740  0.00  0.00    +0.143 C 
ATOM     15  C   UNL     1      29.560 -25.766 -14.173  0.00  0.00    +0.002 C 
ATOM     16  C   UNL     1      28.700 -25.071 -15.024  0.00  0.00    +0.024 C 
BRANCH  14  19
ATOM     17  O   UNL     1      27.738 -23.883 -17.549  0.00  0.00    -0.126 OA
ATOM     18  O   UNL     1      28.092 -22.041 -16.409  0.00  0.00    -0.126 OA
ATOM     19  N   UNL     1      28.291 -23.264 -16.607  0.00  0.00    +0.058 N 
ENDBRANCH  14  19
ENDBRANCH   9  11
ENDBRANCH   1   8
BRANCH   2  20
ATOM     20  O   UNL     1      34.375 -22.750 -18.329  0.00  0.00    -0.452 OA
BRANCH  20  21
ATOM     21  C   UNL     1      34.472 -21.701 -19.229  0.00  0.00    +0.146 C 
ATOM     22  C   UNL     1      35.805 -20.080 -20.384  0.00  0.00    +0.085 C 
ATOM     23  C   UNL     1      35.709 -21.136 -19.477  0.00  0.00    +0.044 C 
ATOM     24  C   UNL     1      34.662 -19.607 -21.027  0.00  0.00    +0.082 C 
ATOM     25  C   UNL     1      33.326 -21.246 -19.857  0.00  0.00    +0.038 C 
ATOM     26  C   UNL     1      33.422 -20.191 -20.764  0.00  0.00    +0.010 C 
BRANCH  22  28
ATOM     27  O   UNL     1      37.542 -19.157 -21.744  0.00  0.00    -0.245 OA
ATOM     28  C   UNL     1      37.114 -19.492 -20.636  0.00  0.00    +0.338 C 
BRANCH  28  29
ATOM     29  O   UNL     1      37.844 -19.343 -19.499  0.00  0.00    -0.477 OA
ATOM     30  H   UNL     1      37.848 -20.020 -18.853  0.00  0.00    +0.295 HD
ENDBRANCH  28  29
ENDBRANCH  22  28
BRANCH  24  32
ATOM     31  O   UNL     1      34.787 -17.309 -21.682  0.00  0.00    -0.245 OA
ATOM     32  C   UNL     1      34.728 -18.507 -21.978  0.00  0.00    +0.338 C 
BRANCH  32  33
ATOM     33  O   UNL     1      34.719 -18.936 -23.269  0.00  0.00    -0.477 OA
ATOM     34  H   UNL     1      33.913 -18.974 -23.744  0.00  0.00    +0.295 HD
ENDBRANCH  32  33
ENDBRANCH  24  32
ENDBRANCH  20  21
ENDBRANCH   2  20
TORSDOF 9
ENDMDL
MODEL 6
REMARK VINA RESULT:     -10.7      2.258      5.381
REMARK  Name = 657140
REMARK  9 active torsions:
REMARK  status: ('A' for Active; 'I' for Inactive)
REMARK    1  A    between atoms: C_1  and  N_8
REMARK    2  A    between atoms: C_2  and  O_20
REMARK    3  A    between atoms: C_9  and  C_11
REMARK    4  A    between atoms: C_14  and  N_19
REMARK    5  A    between atoms: O_20  and  C_21
REMARK    6  A    between atoms: C_22  and  C_28
REMARK    7  A    between atoms: C_24  and  C_32
REMARK    8  A    between atoms: C_28  and  O_29
REMARK    9  A    between atoms: C_32  and  O_33
REMARK                            x       y       z     vdW  Elec       q    Type
REMARK                         _______ _______ _______ _____ _____    ______ ____
ROOT
ATOM      1  C   UNL     1      35.853 -24.617 -14.500  0.00  0.00    +0.086 C 
ATOM      2  C   UNL     1      35.245 -24.371 -13.280  0.00  0.00    +0.159 C 
ATOM      3  C   UNL     1      36.915 -25.500 -14.612  0.00  0.00    +0.018 C 
ATOM      4  C   UNL     1      35.713 -25.025 -12.140  0.00  0.00    +0.039 C 
ATOM      5  C   UNL     1      37.383 -26.154 -13.473  0.00  0.00    +0.001 C 
ATOM      6  C   UNL     1      36.781 -25.916 -12.236  0.00  0.00    +0.003 C 
ENDROOT
BRANCH   1   8
ATOM      7  O   UNL     1      37.132 -22.469 -16.154  0.00  0.00    -0.270 OA
ATOM      8  N   UNL     1      35.389 -23.962 -15.667  0.00  0.00    -0.278 N 
ATOM      9  C   UNL     1      36.021 -22.957 -16.414  0.00  0.00    +0.250 C 
ATOM     10  H   UNL     1      34.507 -24.249 -15.996  0.00  0.00    +0.155 HD
BRANCH   9  11
ATOM     11  C   UNL     1      35.278 -22.455 -17.558  0.00  0.00    +0.055 C 
ATOM     12  C   UNL     1      35.892 -21.588 -18.462  0.00  0.00    +0.029 C 
ATOM     13  C   UNL     1      33.952 -22.842 -17.754  0.00  0.00    +0.005 C 
ATOM     14  C   UNL     1      35.179 -21.108 -19.561  0.00  0.00    +0.143 C 
ATOM     15  C   UNL     1      33.239 -22.362 -18.852  0.00  0.00    +0.002 C 
ATOM     16  C   UNL     1      33.853 -21.495 -19.756  0.00  0.00    +0.024 C 
BRANCH  14  19
ATOM     17  O   UNL     1      36.892 -19.687 -20.167  0.00  0.00    -0.126 OA
ATOM     18  O   UNL     1      35.250 -20.009 -21.588  0.00  0.00    -0.126 OA
ATOM     19  N   UNL     1      35.803 -20.226 -20.483  0.00  0.00    +0.058 N 
ENDBRANCH  14  19
ENDBRANCH   9  11
ENDBRANCH   1   8
BRANCH   2  20
ATOM     20  O   UNL     1      34.200 -23.504 -13.165  0.00  0.00    -0.452 OA
BRANCH  20  21
ATOM     21  C   UNL     1      32.951 -23.948 -13.565  0.00  0.00    +0.146 C 
ATOM     22  C   UNL     1      30.929 -23.602 -14.803  0.00  0.00    +0.085 C 
ATOM     23  C   UNL     1      32.186 -23.153 -14.400  0.00  0.00    +0.044 C 
ATOM     24  C   UNL     1      30.456 -24.839 -14.365  0.00  0.00    +0.082 C 
ATOM     25  C   UNL     1      32.500 -25.179 -13.120  0.00  0.00    +0.038 C 
ATOM     26  C   UNL     1      31.242 -25.627 -13.524  0.00  0.00    +0.010 C 
BRANCH  22  28
ATOM     27  O   UNL     1      30.380 -22.529 -16.869  0.00  0.00    -0.245 OA
ATOM     28  C   UNL     1      30.133 -22.755 -15.682  0.00  0.00    +0.338 C 
BRANCH  28  29
ATOM     29  O   UNL     1      29.055 -22.219 -15.049  0.00  0.00    -0.477 OA
ATOM     30  H   UNL     1      28.293 -21.985 -15.540  0.00  0.00    +0.295 HD
ENDBRANCH  28  29
ENDBRANCH  22  28
BRANCH  24  32
ATOM     31  O   UNL     1      28.596 -25.099 -15.847  0.00  0.00    -0.245 OA
ATOM     32  C   UNL     1      29.148 -25.335 -14.768  0.00  0.00    +0.338 C 
BRANCH  32  33
ATOM     33  O   UNL     1      28.571 -26.110 -13.810  0.00  0.00    -0.477 OA
ATOM     34  H   UNL     1      28.270 -25.722 -13.012  0.00  0.00    +0.295 HD
ENDBRANCH  32  33
ENDBRANCH  24  32
ENDBRANCH  20  21
ENDBRANCH   2  20
TORSDOF 9
ENDMDL
MODEL 7
REMARK VINA RESULT:     -10.6      2.584      7.848
REMARK  Name = 657140
REMARK  9 active torsions:
REMARK  status: ('A' for Active; 'I' for Inactive)
REMARK    1  A    between atoms: C_1  and  N_8
REMARK    2  A    between atoms: C_2  and  O_20
REMARK    3  A    between atoms: C_9  and  C_11
REMARK    4  A    between atoms: C_14  and  N_19
REMARK    5  A    between atoms: O_20  and  C_21
REMARK    6  A    between atoms: C_22  and  C_28
REMARK    7  A    between atoms: C_24  and  C_32
REMARK    8  A    between atoms: C_28  and  O_29
REMARK    9  A    between atoms: C_32  and  O_33
REMARK                            x       y       z     vdW  Elec       q    Type
REMARK                         _______ _______ _______ _____ _____    ______ ____
ROOT
ATOM      1  C   UNL     1      33.561 -23.650 -15.089  0.00  0.00    +0.086 C 
ATOM      2  C   UNL     1      33.407 -23.443 -16.449  0.00  0.00    +0.159 C 
ATOM      3  C   UNL     1      32.479 -23.609 -14.225  0.00  0.00    +0.018 C 
ATOM      4  C   UNL     1      32.135 -23.186 -16.961  0.00  0.00    +0.039 C 
ATOM      5  C   UNL     1      31.207 -23.353 -14.737  0.00  0.00    +0.001 C 
ATOM      6  C   UNL     1      31.035 -23.142 -16.105  0.00  0.00    +0.003 C 
ENDROOT
BRANCH   1   8
ATOM      7  O   UNL     1      35.281 -26.097 -15.290  0.00  0.00    -0.270 OA
ATOM      8  N   UNL     1      34.846 -23.913 -14.553  0.00  0.00    -0.278 N 
ATOM      9  C   UNL     1      35.619 -25.076 -14.671  0.00  0.00    +0.250 C 
ATOM     10  H   UNL     1      35.249 -23.182 -14.029  0.00  0.00    +0.155 HD
BRANCH   9  11
ATOM     11  C   UNL     1      36.899 -25.060 -13.981  0.00  0.00    +0.055 C 
ATOM     12  C   UNL     1      38.002 -25.705 -14.541  0.00  0.00    +0.029 C 
ATOM     13  C   UNL     1      37.025 -24.397 -12.760  0.00  0.00    +0.005 C 
ATOM     14  C   UNL     1      39.230 -25.688 -13.880  0.00  0.00    +0.143 C 
ATOM     15  C   UNL     1      38.253 -24.380 -12.098  0.00  0.00    +0.002 C 
ATOM     16  C   UNL     1      39.355 -25.025 -12.659  0.00  0.00    +0.024 C 
BRANCH  14  19
ATOM     17  O   UNL     1      40.524 -26.287 -15.693  0.00  0.00    -0.126 OA
ATOM     18  O   UNL     1      41.145 -26.959 -13.697  0.00  0.00    -0.126 OA
ATOM     19  N   UNL     1      40.354 -26.343 -14.451  0.00  0.00    +0.058 N 
ENDBRANCH  14  19
ENDBRANCH   9  11
ENDBRANCH   1   8
BRANCH   2  20
ATOM     20  O   UNL     1      34.469 -23.483 -17.303  0.00  0.00    -0.452 OA
BRANCH  20  21
ATOM     21  C   UNL     1      34.544 -22.505 -18.281  0.00  0.00    +0.146 C 
ATOM     22  C   UNL     1      35.805 -20.834 -19.446  0.00  0.00    +0.085 C 
ATOM     23  C   UNL     1      35.731 -21.819 -18.460  0.00  0.00    +0.044 C 
ATOM     24  C   UNL     1      34.691 -20.552 -20.236  0.00  0.00    +0.082 C 
ATOM     25  C   UNL     1      33.427 -22.240 -19.055  0.00  0.00    +0.038 C 
ATOM     26  C   UNL     1      33.502 -21.256 -20.040  0.00  0.00    +0.010 C 
BRANCH  22  28
ATOM     27  O   UNL     1      37.547 -19.793 -20.711  0.00  0.00    -0.245 OA
ATOM     28  C   UNL     1      37.061 -20.118 -19.625  0.00  0.00    +0.338 C 
BRANCH  28  29
ATOM     29  O   UNL     1      37.668 -19.831 -18.443  0.00  0.00    -0.477 OA
ATOM     30  H   UNL     1      38.598 -19.908 -18.362  0.00  0.00    +0.295 HD
ENDBRANCH  28  29
ENDBRANCH  22  28
BRANCH  24  32
ATOM     31  O   UNL     1      34.594 -19.734 -22.482  0.00  0.00    -0.245 OA
ATOM     32  C   UNL     1      34.736 -19.531 -21.272  0.00  0.00    +0.338 C 
BRANCH  32  33
ATOM     33  O   UNL     1      34.957 -18.288 -20.765  0.00  0.00    -0.477 OA
ATOM     34  H   UNL     1      35.572 -17.716 -21.179  0.00  0.00    +0.295 HD
ENDBRANCH  32  33
ENDBRANCH  24  32
ENDBRANCH  20  21
ENDBRANCH   2  20
TORSDOF 9
ENDMDL
MODEL 8
REMARK VINA RESULT:     -10.5      2.527      5.938
REMARK  Name = 657140
REMARK  9 active torsions:
REMARK  status: ('A' for Active; 'I' for Inactive)
REMARK    1  A    between atoms: C_1  and  N_8
REMARK    2  A    between atoms: C_2  and  O_20
REMARK    3  A    between atoms: C_9  and  C_11
REMARK    4  A    between atoms: C_14  and  N_19
REMARK    5  A    between atoms: O_20  and  C_21
REMARK    6  A    between atoms: C_22  and  C_28
REMARK    7  A    between atoms: C_24  and  C_32
REMARK    8  A    between atoms: C_28  and  O_29
REMARK    9  A    between atoms: C_32  and  O_33
REMARK                            x       y       z     vdW  Elec       q    Type
REMARK                         _______ _______ _______ _____ _____    ______ ____
ROOT
ATOM      1  C   UNL     1      34.890 -22.351 -17.862  0.00  0.00    +0.086 C 
ATOM      2  C   UNL     1      36.058 -22.008 -17.201  0.00  0.00    +0.159 C 
ATOM      3  C   UNL     1      34.778 -22.233 -19.238  0.00  0.00    +0.018 C 
ATOM      4  C   UNL     1      37.143 -21.533 -17.936  0.00  0.00    +0.039 C 
ATOM      5  C   UNL     1      35.864 -21.758 -19.973  0.00  0.00    +0.001 C 
ATOM      6  C   UNL     1      37.047 -21.408 -19.322  0.00  0.00    +0.003 C 
ENDROOT
BRANCH   1   8
ATOM      7  O   UNL     1      31.955 -21.895 -18.266  0.00  0.00    -0.270 OA
ATOM      8  N   UNL     1      33.779 -22.837 -17.130  0.00  0.00    -0.278 N 
ATOM      9  C   UNL     1      32.415 -22.599 -17.353  0.00  0.00    +0.250 C 
ATOM     10  H   UNL     1      33.992 -23.418 -16.364  0.00  0.00    +0.155 HD
BRANCH   9  11
ATOM     11  C   UNL     1      31.500 -23.218 -16.408  0.00  0.00    +0.055 C 
ATOM     12  C   UNL     1      30.130 -23.229 -16.669  0.00  0.00    +0.029 C 
ATOM     13  C   UNL     1      31.993 -23.803 -15.241  0.00  0.00    +0.005 C 
ATOM     14  C   UNL     1      29.252 -23.825 -15.763  0.00  0.00    +0.143 C 
ATOM     15  C   UNL     1      31.115 -24.398 -14.335  0.00  0.00    +0.002 C 
ATOM     16  C   UNL     1      29.745 -24.409 -14.596  0.00  0.00    +0.024 C 
BRANCH  14  19
ATOM     17  O   UNL     1      27.434 -24.467 -17.028  0.00  0.00    -0.126 OA
ATOM     18  O   UNL     1      27.085 -23.220 -15.256  0.00  0.00    -0.126 OA
ATOM     19  N   UNL     1      27.857 -23.838 -16.028  0.00  0.00    +0.058 N 
ENDBRANCH  14  19
ENDBRANCH   9  11
ENDBRANCH   1   8
BRANCH   2  20
ATOM     20  O   UNL     1      36.173 -22.124 -15.848  0.00  0.00    -0.452 OA
BRANCH  20  21
ATOM     21  C   UNL     1      36.519 -23.364 -15.337  0.00  0.00    +0.146 C 
ATOM     22  C   UNL     1      38.204 -24.950 -14.716  0.00  0.00    +0.085 C 
ATOM     23  C   UNL     1      37.857 -23.701 -15.231  0.00  0.00    +0.044 C 
ATOM     24  C   UNL     1      37.209 -25.841 -14.315  0.00  0.00    +0.082 C 
ATOM     25  C   UNL     1      35.517 -24.234 -14.945  0.00  0.00    +0.038 C 
ATOM     26  C   UNL     1      35.866 -25.483 -14.430  0.00  0.00    +0.010 C 
BRANCH  22  28
ATOM     27  O   UNL     1      40.345 -25.023 -13.652  0.00  0.00    -0.245 OA
ATOM     28  C   UNL     1      39.616 -25.294 -14.609  0.00  0.00    +0.338 C 
BRANCH  28  29
ATOM     29  O   UNL     1      40.070 -25.966 -15.700  0.00  0.00    -0.477 OA
ATOM     30  H   UNL     1      39.463 -26.305 -16.328  0.00  0.00    +0.295 HD
ENDBRANCH  28  29
ENDBRANCH  22  28
BRANCH  24  32
ATOM     31  O   UNL     1      38.163 -28.034 -14.371  0.00  0.00    -0.245 OA
ATOM     32  C   UNL     1      37.539 -27.152 -13.774  0.00  0.00    +0.338 C 
BRANCH  32  33
ATOM     33  O   UNL     1      37.079 -27.319 -12.505  0.00  0.00    -0.477 OA
ATOM     34  H   UNL     1      37.467 -27.964 -11.947  0.00  0.00    +0.295 HD
ENDBRANCH  32  33
ENDBRANCH  24  32
ENDBRANCH  20  21
ENDBRANCH   2  20
TORSDOF 9
ENDMDL
MODEL 9
REMARK VINA RESULT:     -10.5      2.468      5.750
REMARK  Name = 657140
REMARK  9 active torsions:
REMARK  status: ('A' for Active; 'I' for Inactive)
REMARK    1  A    between atoms: C_1  and  N_8
REMARK    2  A    between atoms: C_2  and  O_20
REMARK    3  A    between atoms: C_9  and  C_11
REMARK    4  A    between atoms: C_14  and  N_19
REMARK    5  A    between atoms: O_20  and  C_21
REMARK    6  A    between atoms: C_22  and  C_28
REMARK    7  A    between atoms: C_24  and  C_32
REMARK    8  A    between atoms: C_28  and  O_29
REMARK    9  A    between atoms: C_32  and  O_33
REMARK                            x       y       z     vdW  Elec       q    Type
REMARK                         _______ _______ _______ _____ _____    ______ ____
ROOT
ATOM      1  C   UNL     1      34.582 -22.467 -17.863  0.00  0.00    +0.086 C 
ATOM      2  C   UNL     1      35.759 -22.117 -17.224  0.00  0.00    +0.159 C 
ATOM      3  C   UNL     1      34.445 -22.357 -19.238  0.00  0.00    +0.018 C 
ATOM      4  C   UNL     1      36.830 -21.639 -17.980  0.00  0.00    +0.039 C 
ATOM      5  C   UNL     1      35.516 -21.880 -19.994  0.00  0.00    +0.001 C 
ATOM      6  C   UNL     1      36.709 -21.521 -19.364  0.00  0.00    +0.003 C 
ENDROOT
BRANCH   1   8
ATOM      7  O   UNL     1      31.652 -21.875 -18.098  0.00  0.00    -0.270 OA
ATOM      8  N   UNL     1      33.485 -22.955 -17.110  0.00  0.00    -0.278 N 
ATOM      9  C   UNL     1      32.124 -22.651 -17.253  0.00  0.00    +0.250 C 
ATOM     10  H   UNL     1      33.709 -23.590 -16.391  0.00  0.00    +0.155 HD
BRANCH   9  11
ATOM     11  C   UNL     1      31.228 -23.292 -16.304  0.00  0.00    +0.055 C 
ATOM     12  C   UNL     1      31.735 -23.830 -15.121  0.00  0.00    +0.029 C 
ATOM     13  C   UNL     1      29.862 -23.367 -16.575  0.00  0.00    +0.005 C 
ATOM     14  C   UNL     1      30.875 -24.443 -14.209  0.00  0.00    +0.143 C 
ATOM     15  C   UNL     1      29.002 -23.981 -15.665  0.00  0.00    +0.002 C 
ATOM     16  C   UNL     1      29.509 -24.519 -14.482  0.00  0.00    +0.024 C 
BRANCH  14  19
ATOM     17  O   UNL     1      30.590 -25.289 -12.082  0.00  0.00    -0.126 OA
ATOM     18  O   UNL     1      32.627 -25.159 -12.892  0.00  0.00    -0.126 OA
ATOM     19  N   UNL     1      31.389 -24.990 -13.004  0.00  0.00    +0.058 N 
ENDBRANCH  14  19
ENDBRANCH   9  11
ENDBRANCH   1   8
BRANCH   2  20
ATOM     20  O   UNL     1      35.899 -22.225 -15.873  0.00  0.00    -0.452 OA
BRANCH  20  21
ATOM     21  C   UNL     1      36.301 -23.450 -15.366  0.00  0.00    +0.146 C 
ATOM     22  C   UNL     1      38.055 -24.948 -14.720  0.00  0.00    +0.085 C 
ATOM     23  C   UNL     1      37.652 -23.714 -15.231  0.00  0.00    +0.044 C 
ATOM     24  C   UNL     1      37.102 -25.896 -14.351  0.00  0.00    +0.082 C 
ATOM     25  C   UNL     1      35.339 -24.378 -15.006  0.00  0.00    +0.038 C 
ATOM     26  C   UNL     1      35.744 -25.611 -14.495  0.00  0.00    +0.010 C 
BRANCH  22  28
ATOM     27  O   UNL     1      40.172 -24.910 -13.607  0.00  0.00    -0.245 OA
ATOM     28  C   UNL     1      39.481 -25.215 -14.582  0.00  0.00    +0.338 C 
BRANCH  28  29
ATOM     29  O   UNL     1      39.996 -25.854 -15.667  0.00  0.00    -0.477 OA
ATOM     30  H   UNL     1      40.729 -26.428 -15.567  0.00  0.00    +0.295 HD
ENDBRANCH  28  29
ENDBRANCH  22  28
BRANCH  24  32
ATOM     31  O   UNL     1      38.191 -28.026 -14.399  0.00  0.00    -0.245 OA
ATOM     32  C   UNL     1      37.491 -27.193 -13.815  0.00  0.00    +0.338 C 
BRANCH  32  33
ATOM     33  O   UNL     1      36.993 -27.408 -12.568  0.00  0.00    -0.477 OA
ATOM     34  H   UNL     1      36.913 -28.282 -12.239  0.00  0.00    +0.295 HD
ENDBRANCH  32  33
ENDBRANCH  24  32
ENDBRANCH  20  21
ENDBRANCH   2  20
TORSDOF 9
ENDMDL
