MODEL 1
REMARK VINA RESULT:     -12.2      0.000      0.000
REMARK  Name = 46892373
REMARK  3 active torsions:
REMARK  status: ('A' for Active; 'I' for Inactive)
REMARK    1  A    between atoms: C_7  and  C_20
REMARK    2  A    between atoms: C_20  and  C_22
REMARK    3  A    between atoms: C_20  and  O_28
REMARK                            x       y       z     vdW  Elec       q    Type
REMARK                         _______ _______ _______ _____ _____    ______ ____
ROOT
ATOM      1  N   UNL     1      34.187 -23.951 -16.838  0.00  0.00    -0.326 NA
ATOM      2  N   UNL     1      34.814 -24.632 -14.675  0.00  0.00    -0.271 N 
ATOM      3  N   UNL     1      31.994 -23.042 -17.253  0.00  0.00    -0.345 NA
ATOM      4  N   UNL     1      38.228 -24.229 -15.161  0.00  0.00    -0.239 N 
ATOM      5  N   UNL     1      36.980 -23.979 -15.591  0.00  0.00    -0.166 NA
ATOM      6  C   UNL     1      32.595 -23.725 -15.033  0.00  0.00    +0.072 C 
ATOM      7  C   UNL     1      33.231 -23.430 -17.623  0.00  0.00    +0.146 C 
ATOM      8  C   UNL     1      33.838 -24.086 -15.545  0.00  0.00    +0.199 C 
ATOM      9  C   UNL     1      31.678 -23.191 -15.954  0.00  0.00    +0.129 C 
ATOM     10  C   UNL     1      32.253 -23.876 -13.679  0.00  0.00    +0.006 C 
ATOM     11  C   UNL     1      30.422 -22.817 -15.480  0.00  0.00    +0.086 C 
ATOM     12  C   UNL     1      36.218 -24.594 -14.683  0.00  0.00    +0.152 C 
ATOM     13  C   UNL     1      30.992 -23.495 -13.232  0.00  0.00    -0.004 C 
ATOM     14  C   UNL     1      30.076 -22.965 -14.134  0.00  0.00    -0.019 C 
ATOM     15  C   UNL     1      36.973 -25.231 -13.681  0.00  0.00    +0.048 C 
ATOM     16  C   UNL     1      38.279 -24.975 -14.021  0.00  0.00    +0.046 C 
ATOM     17  C   UNL     1      39.552 -25.358 -13.390  0.00  0.00    +0.049 C 
ATOM     18  H   UNL     1      34.436 -25.137 -13.919  0.00  0.00    +0.156 HD
ATOM     19  H   UNL     1      39.033 -23.903 -15.627  0.00  0.00    +0.174 HD
ENDROOT
BRANCH   7  20
ATOM     20  C   UNL     1      33.574 -23.261 -19.066  0.00  0.00    +0.243 C 
BRANCH  20  22
ATOM     21  F   UNL     1      37.406 -19.221 -20.042  0.00  0.00    -0.204 F 
ATOM     22  C   UNL     1      34.607 -22.172 -19.329  0.00  0.00    +0.021 C 
ATOM     23  C   UNL     1      34.328 -21.152 -20.239  0.00  0.00    +0.001 C 
ATOM     24  C   UNL     1      35.831 -22.195 -18.661  0.00  0.00    +0.001 C 
ATOM     25  C   UNL     1      35.273 -20.154 -20.480  0.00  0.00    +0.029 C 
ATOM     26  C   UNL     1      36.777 -21.199 -18.902  0.00  0.00    +0.029 C 
ATOM     27  C   UNL     1      36.498 -20.178 -19.812  0.00  0.00    +0.140 C 
ENDBRANCH  20  22
BRANCH  20  28
ATOM     28  O   UNL     1      34.017 -24.491 -19.668  0.00  0.00    -0.366 OA
ATOM     29  H   UNL     1      34.979 -24.570 -19.573  0.00  0.00    +0.212 HD
ENDBRANCH  20  28
ENDBRANCH   7  20
TORSDOF 3
ENDMDL
MODEL 2
REMARK VINA RESULT:     -11.4      2.897      7.107
REMARK  Name = 46892373
REMARK  3 active torsions:
REMARK  status: ('A' for Active; 'I' for Inactive)
REMARK    1  A    between atoms: C_7  and  C_20
REMARK    2  A    between atoms: C_20  and  C_22
REMARK    3  A    between atoms: C_20  and  O_28
REMARK                            x       y       z     vdW  Elec       q    Type
REMARK                         _______ _______ _______ _____ _____    ______ ____
ROOT
ATOM      1  N   UNL     1      33.525 -23.760 -15.367  0.00  0.00    -0.326 NA
ATOM      2  N   UNL     1      31.835 -23.117 -16.874  0.00  0.00    -0.271 N 
ATOM      3  N   UNL     1      35.844 -23.334 -15.866  0.00  0.00    -0.345 NA
ATOM      4  N   UNL     1      29.320 -22.875 -14.493  0.00  0.00    -0.239 N 
ATOM      5  N   UNL     1      30.635 -22.963 -14.754  0.00  0.00    -0.166 NA
ATOM      6  C   UNL     1      34.152 -22.664 -17.429  0.00  0.00    +0.072 C 
ATOM      7  C   UNL     1      34.839 -23.799 -15.097  0.00  0.00    +0.146 C 
ATOM      8  C   UNL     1      33.212 -23.184 -16.543  0.00  0.00    +0.199 C 
ATOM      9  C   UNL     1      35.496 -22.766 -17.034  0.00  0.00    +0.129 C 
ATOM     10  C   UNL     1      33.801 -22.068 -18.652  0.00  0.00    +0.006 C 
ATOM     11  C   UNL     1      36.467 -22.256 -17.894  0.00  0.00    +0.086 C 
ATOM     12  C   UNL     1      30.676 -23.020 -16.088  0.00  0.00    +0.152 C 
ATOM     13  C   UNL     1      34.790 -21.568 -19.492  0.00  0.00    -0.004 C 
ATOM     14  C   UNL     1      36.124 -21.662 -19.112  0.00  0.00    -0.019 C 
ATOM     15  C   UNL     1      29.397 -22.968 -16.673  0.00  0.00    +0.048 C 
ATOM     16  C   UNL     1      28.536 -22.875 -15.608  0.00  0.00    +0.046 C 
ATOM     17  C   UNL     1      27.069 -22.787 -15.535  0.00  0.00    +0.049 C 
ATOM     18  H   UNL     1      31.657 -23.146 -17.841  0.00  0.00    +0.156 HD
ATOM     19  H   UNL     1      28.957 -22.817 -13.579  0.00  0.00    +0.174 HD
ENDROOT
BRANCH   7  20
ATOM     20  C   UNL     1      35.233 -24.429 -13.802  0.00  0.00    +0.243 C 
BRANCH  20  22
ATOM     21  F   UNL     1      40.455 -26.594 -13.815  0.00  0.00    -0.204 F 
ATOM     22  C   UNL     1      36.641 -25.013 -13.806  0.00  0.00    +0.021 C 
ATOM     23  C   UNL     1      36.924 -26.146 -14.568  0.00  0.00    +0.001 C 
ATOM     24  C   UNL     1      37.646 -24.415 -13.046  0.00  0.00    +0.001 C 
ATOM     25  C   UNL     1      38.213 -26.680 -14.572  0.00  0.00    +0.029 C 
ATOM     26  C   UNL     1      38.935 -24.949 -13.048  0.00  0.00    +0.029 C 
ATOM     27  C   UNL     1      39.218 -26.082 -13.812  0.00  0.00    +0.140 C 
ENDBRANCH  20  22
BRANCH  20  28
ATOM     28  O   UNL     1      35.098 -23.523 -12.692  0.00  0.00    -0.366 OA
ATOM     29  H   UNL     1      34.239 -23.075 -12.743  0.00  0.00    +0.212 HD
ENDBRANCH  20  28
ENDBRANCH   7  20
TORSDOF 3
ENDMDL
MODEL 3
REMARK VINA RESULT:     -11.3      3.071      6.735
REMARK  Name = 46892373
REMARK  3 active torsions:
REMARK  status: ('A' for Active; 'I' for Inactive)
REMARK    1  A    between atoms: C_7  and  C_20
REMARK    2  A    between atoms: C_20  and  C_22
REMARK    3  A    between atoms: C_20  and  O_28
REMARK                            x       y       z     vdW  Elec       q    Type
REMARK                         _______ _______ _______ _____ _____    ______ ____
ROOT
ATOM      1  N   UNL     1      35.408 -23.372 -15.988  0.00  0.00    -0.326 NA
ATOM      2  N   UNL     1      33.204 -23.596 -16.783  0.00  0.00    -0.271 N 
ATOM      3  N   UNL     1      37.034 -22.086 -17.218  0.00  0.00    -0.345 NA
ATOM      4  N   UNL     1      31.775 -24.199 -13.677  0.00  0.00    -0.239 N 
ATOM      5  N   UNL     1      32.838 -23.767 -14.376  0.00  0.00    -0.166 NA
ATOM      6  C   UNL     1      34.798 -22.291 -18.062  0.00  0.00    +0.072 C 
ATOM      7  C   UNL     1      36.630 -22.853 -16.185  0.00  0.00    +0.146 C 
ATOM      8  C   UNL     1      34.511 -23.071 -16.946  0.00  0.00    +0.199 C 
ATOM      9  C   UNL     1      36.113 -21.806 -18.157  0.00  0.00    +0.129 C 
ATOM     10  C   UNL     1      33.844 -21.991 -19.050  0.00  0.00    +0.006 C 
ATOM     11  C   UNL     1      36.438 -21.020 -19.260  0.00  0.00    +0.086 C 
ATOM     12  C   UNL     1      32.446 -23.912 -15.644  0.00  0.00    +0.152 C 
ATOM     13  C   UNL     1      34.196 -21.204 -20.142  0.00  0.00    -0.004 C 
ATOM     14  C   UNL     1      35.494 -20.718 -20.246  0.00  0.00    -0.019 C 
ATOM     15  C   UNL     1      31.143 -24.432 -15.754  0.00  0.00    +0.048 C 
ATOM     16  C   UNL     1      30.733 -24.608 -14.455  0.00  0.00    +0.046 C 
ATOM     17  C   UNL     1      29.477 -25.116 -13.881  0.00  0.00    +0.049 C 
ATOM     18  H   UNL     1      32.739 -23.774 -17.631  0.00  0.00    +0.156 HD
ATOM     19  H   UNL     1      31.751 -24.218 -12.692  0.00  0.00    +0.174 HD
ENDROOT
BRANCH   7  20
ATOM     20  C   UNL     1      37.658 -23.160 -15.147  0.00  0.00    +0.243 C 
BRANCH  20  22
ATOM     21  F   UNL     1      35.585 -25.784 -10.589  0.00  0.00    -0.204 F 
ATOM     22  C   UNL     1      37.099 -23.868 -13.918  0.00  0.00    +0.021 C 
ATOM     23  C   UNL     1      36.412 -23.139 -12.947  0.00  0.00    +0.001 C 
ATOM     24  C   UNL     1      37.274 -25.243 -13.765  0.00  0.00    +0.001 C 
ATOM     25  C   UNL     1      35.900 -23.787 -11.822  0.00  0.00    +0.029 C 
ATOM     26  C   UNL     1      36.763 -25.891 -12.640  0.00  0.00    +0.029 C 
ATOM     27  C   UNL     1      36.076 -25.162 -11.669  0.00  0.00    +0.140 C 
ENDBRANCH  20  22
BRANCH  20  28
ATOM     28  O   UNL     1      38.755 -23.926 -15.677  0.00  0.00    -0.366 OA
ATOM     29  H   UNL     1      38.413 -24.712 -16.131  0.00  0.00    +0.212 HD
ENDBRANCH  20  28
ENDBRANCH   7  20
TORSDOF 3
ENDMDL
MODEL 4
REMARK VINA RESULT:     -11.2      2.929      5.840
REMARK  Name = 46892373
REMARK  3 active torsions:
REMARK  status: ('A' for Active; 'I' for Inactive)
REMARK    1  A    between atoms: C_7  and  C_20
REMARK    2  A    between atoms: C_20  and  C_22
REMARK    3  A    between atoms: C_20  and  O_28
REMARK                            x       y       z     vdW  Elec       q    Type
REMARK                         _______ _______ _______ _____ _____    ______ ____
ROOT
ATOM      1  N   UNL     1      33.436 -23.272 -16.338  0.00  0.00    -0.326 NA
ATOM      2  N   UNL     1      35.736 -23.258 -15.839  0.00  0.00    -0.271 N 
ATOM      3  N   UNL     1      32.614 -22.282 -18.375  0.00  0.00    -0.345 NA
ATOM      4  N   UNL     1      35.658 -26.041 -13.765  0.00  0.00    -0.239 N 
ATOM      5  N   UNL     1      35.035 -25.297 -14.695  0.00  0.00    -0.166 NA
ATOM      6  C   UNL     1      34.966 -22.246 -17.903  0.00  0.00    +0.072 C 
ATOM      7  C   UNL     1      32.468 -22.929 -17.202  0.00  0.00    +0.146 C 
ATOM      8  C   UNL     1      34.677 -22.917 -16.718  0.00  0.00    +0.199 C 
ATOM      9  C   UNL     1      33.867 -21.941 -18.724  0.00  0.00    +0.129 C 
ATOM     10  C   UNL     1      36.270 -21.885 -18.278  0.00  0.00    +0.006 C 
ATOM     11  C   UNL     1      34.115 -21.270 -19.920  0.00  0.00    +0.086 C 
ATOM     12  C   UNL     1      35.909 -24.315 -14.931  0.00  0.00    +0.152 C 
ATOM     13  C   UNL     1      36.490 -21.215 -19.478  0.00  0.00    -0.004 C 
ATOM     14  C   UNL     1      35.411 -20.908 -20.299  0.00  0.00    -0.019 C 
ATOM     15  C   UNL     1      37.079 -24.430 -14.158  0.00  0.00    +0.048 C 
ATOM     16  C   UNL     1      36.885 -25.565 -13.409  0.00  0.00    +0.046 C 
ATOM     17  C   UNL     1      37.726 -26.237 -12.405  0.00  0.00    +0.049 C 
ATOM     18  H   UNL     1      36.495 -22.633 -15.870  0.00  0.00    +0.156 HD
ATOM     19  H   UNL     1      35.263 -26.856 -13.376  0.00  0.00    +0.174 HD
ENDROOT
BRANCH   7  20
ATOM     20  C   UNL     1      31.074 -23.304 -16.822  0.00  0.00    +0.243 C 
BRANCH  20  22
ATOM     21  F   UNL     1      30.628 -25.438 -11.605  0.00  0.00    -0.204 F 
ATOM     22  C   UNL     1      30.954 -23.880 -15.415  0.00  0.00    +0.021 C 
ATOM     23  C   UNL     1      30.434 -25.160 -15.228  0.00  0.00    +0.001 C 
ATOM     24  C   UNL     1      31.362 -23.125 -14.316  0.00  0.00    +0.001 C 
ATOM     25  C   UNL     1      30.325 -25.687 -13.941  0.00  0.00    +0.029 C 
ATOM     26  C   UNL     1      31.252 -23.651 -13.028  0.00  0.00    +0.029 C 
ATOM     27  C   UNL     1      30.733 -24.933 -12.841  0.00  0.00    +0.140 C 
ENDBRANCH  20  22
BRANCH  20  28
ATOM     28  O   UNL     1      30.156 -22.205 -16.964  0.00  0.00    -0.366 OA
ATOM     29  H   UNL     1      29.255 -22.546 -17.076  0.00  0.00    +0.212 HD
ENDBRANCH  20  28
ENDBRANCH   7  20
TORSDOF 3
ENDMDL
MODEL 5
REMARK VINA RESULT:     -11.0      2.990      5.661
REMARK  Name = 46892373
REMARK  3 active torsions:
REMARK  status: ('A' for Active; 'I' for Inactive)
REMARK    1  A    between atoms: C_7  and  C_20
REMARK    2  A    between atoms: C_20  and  C_22
REMARK    3  A    between atoms: C_20  and  O_28
REMARK                            x       y       z     vdW  Elec       q    Type
REMARK                         _______ _______ _______ _____ _____    ______ ____
ROOT
ATOM      1  N   UNL     1      34.469 -23.969 -15.030  0.00  0.00    -0.326 NA
ATOM      2  N   UNL     1      36.716 -23.635 -15.643  0.00  0.00    -0.271 N 
ATOM      3  N   UNL     1      32.680 -23.217 -16.458  0.00  0.00    -0.345 NA
ATOM      4  N   UNL     1      37.982 -26.273 -13.774  0.00  0.00    -0.239 N 
ATOM      5  N   UNL     1      36.907 -25.672 -14.311  0.00  0.00    -0.166 NA
ATOM      6  C   UNL     1      34.958 -22.857 -17.120  0.00  0.00    +0.072 C 
ATOM      7  C   UNL     1      33.177 -23.804 -15.351  0.00  0.00    +0.146 C 
ATOM      8  C   UNL     1      35.338 -23.484 -15.937  0.00  0.00    +0.199 C 
ATOM      9  C   UNL     1      33.576 -22.743 -17.343  0.00  0.00    +0.129 C 
ATOM     10  C   UNL     1      35.884 -22.358 -18.051  0.00  0.00    +0.006 C 
ATOM     11  C   UNL     1      33.156 -22.121 -18.517  0.00  0.00    +0.086 C 
ATOM     12  C   UNL     1      37.430 -24.604 -14.919  0.00  0.00    +0.152 C 
ATOM     13  C   UNL     1      35.437 -21.741 -19.215  0.00  0.00    -0.004 C 
ATOM     14  C   UNL     1      34.072 -21.623 -19.448  0.00  0.00    -0.019 C 
ATOM     15  C   UNL     1      38.828 -24.524 -14.771  0.00  0.00    +0.048 C 
ATOM     16  C   UNL     1      39.156 -25.626 -14.020  0.00  0.00    +0.046 C 
ATOM     17  C   UNL     1      40.447 -26.123 -13.517  0.00  0.00    +0.049 C 
ATOM     18  H   UNL     1      37.283 -22.922 -16.018  0.00  0.00    +0.156 HD
ATOM     19  H   UNL     1      37.926 -27.105 -13.250  0.00  0.00    +0.174 HD
ENDROOT
BRANCH   7  20
ATOM     20  C   UNL     1      32.177 -24.326 -14.374  0.00  0.00    +0.243 C 
BRANCH  20  22
ATOM     21  F   UNL     1      26.816 -23.225 -15.792  0.00  0.00    -0.204 F 
ATOM     22  C   UNL     1      30.731 -24.030 -14.756  0.00  0.00    +0.021 C 
ATOM     23  C   UNL     1      29.952 -25.018 -15.357  0.00  0.00    +0.001 C 
ATOM     24  C   UNL     1      30.188 -22.770 -14.506  0.00  0.00    +0.001 C 
ATOM     25  C   UNL     1      28.629 -24.747 -15.707  0.00  0.00    +0.029 C 
ATOM     26  C   UNL     1      28.865 -22.497 -14.856  0.00  0.00    +0.029 C 
ATOM     27  C   UNL     1      28.086 -23.486 -15.457  0.00  0.00    +0.140 C 
ENDBRANCH  20  22
BRANCH  20  28
ATOM     28  O   UNL     1      32.327 -25.739 -14.144  0.00  0.00    -0.366 OA
ATOM     29  H   UNL     1      33.211 -25.917 -13.787  0.00  0.00    +0.212 HD
ENDBRANCH  20  28
ENDBRANCH   7  20
TORSDOF 3
ENDMDL
MODEL 6
REMARK VINA RESULT:     -10.9      2.658      5.461
REMARK  Name = 46892373
REMARK  3 active torsions:
REMARK  status: ('A' for Active; 'I' for Inactive)
REMARK    1  A    between atoms: C_7  and  C_20
REMARK    2  A    between atoms: C_20  and  C_22
REMARK    3  A    between atoms: C_20  and  O_28
REMARK                            x       y       z     vdW  Elec       q    Type
REMARK                         _______ _______ _______ _____ _____    ______ ____
ROOT
ATOM      1  N   UNL     1      33.273 -23.727 -14.884  0.00  0.00    -0.326 NA
ATOM      2  N   UNL     1      32.287 -22.844 -16.829  0.00  0.00    -0.271 N 
ATOM      3  N   UNL     1      32.005 -25.129 -13.389  0.00  0.00    -0.345 NA
ATOM      4  N   UNL     1      35.258 -22.471 -18.586  0.00  0.00    -0.239 N 
ATOM      5  N   UNL     1      34.616 -23.015 -17.539  0.00  0.00    -0.166 NA
ATOM      6  C   UNL     1      30.962 -24.248 -15.362  0.00  0.00    +0.072 C 
ATOM      7  C   UNL     1      33.120 -24.481 -13.784  0.00  0.00    +0.146 C 
ATOM      8  C   UNL     1      32.174 -23.630 -15.655  0.00  0.00    +0.199 C 
ATOM      9  C   UNL     1      30.925 -25.010 -14.182  0.00  0.00    +0.129 C 
ATOM     10  C   UNL     1      29.827 -24.132 -16.182  0.00  0.00    +0.006 C 
ATOM     11  C   UNL     1      29.729 -25.646 -13.855  0.00  0.00    +0.086 C 
ATOM     12  C   UNL     1      33.368 -22.560 -17.679  0.00  0.00    +0.152 C 
ATOM     13  C   UNL     1      28.645 -24.776 -15.832  0.00  0.00    -0.004 C 
ATOM     14  C   UNL     1      28.597 -25.534 -14.668  0.00  0.00    -0.019 C 
ATOM     15  C   UNL     1      33.214 -21.731 -18.806  0.00  0.00    +0.048 C 
ATOM     16  C   UNL     1      34.463 -21.693 -19.376  0.00  0.00    +0.046 C 
ATOM     17  C   UNL     1      34.978 -21.006 -20.572  0.00  0.00    +0.049 C 
ATOM     18  H   UNL     1      31.445 -22.413 -17.101  0.00  0.00    +0.156 HD
ATOM     19  H   UNL     1      36.214 -22.619 -18.766  0.00  0.00    +0.174 HD
ENDROOT
BRANCH   7  20
ATOM     20  C   UNL     1      34.313 -24.617 -12.898  0.00  0.00    +0.243 C 
BRANCH  20  22
ATOM     21  F   UNL     1      39.242 -24.077 -15.614  0.00  0.00    -0.204 F 
ATOM     22  C   UNL     1      35.642 -24.472 -13.631  0.00  0.00    +0.021 C 
ATOM     23  C   UNL     1      36.472 -25.580 -13.795  0.00  0.00    +0.001 C 
ATOM     24  C   UNL     1      36.028 -23.230 -14.136  0.00  0.00    +0.001 C 
ATOM     25  C   UNL     1      37.688 -25.447 -14.466  0.00  0.00    +0.029 C 
ATOM     26  C   UNL     1      37.244 -23.096 -14.806  0.00  0.00    +0.029 C 
ATOM     27  C   UNL     1      38.074 -24.206 -14.971  0.00  0.00    +0.140 C 
ENDBRANCH  20  22
BRANCH  20  28
ATOM     28  O   UNL     1      34.278 -23.698 -11.792  0.00  0.00    -0.366 OA
ATOM     29  H   UNL     1      34.885 -24.001 -11.099  0.00  0.00    +0.212 HD
ENDBRANCH  20  28
ENDBRANCH   7  20
TORSDOF 3
ENDMDL
MODEL 7
REMARK VINA RESULT:     -10.7      2.038      5.322
REMARK  Name = 46892373
REMARK  3 active torsions:
REMARK  status: ('A' for Active; 'I' for Inactive)
REMARK    1  A    between atoms: C_7  and  C_20
REMARK    2  A    between atoms: C_20  and  C_22
REMARK    3  A    between atoms: C_20  and  O_28
REMARK                            x       y       z     vdW  Elec       q    Type
REMARK                         _______ _______ _______ _____ _____    ______ ____
ROOT
ATOM      1  N   UNL     1      35.421 -22.831 -15.373  0.00  0.00    -0.326 NA
ATOM      2  N   UNL     1      33.725 -23.515 -13.892  0.00  0.00    -0.271 N 
ATOM      3  N   UNL     1      37.697 -23.557 -15.056  0.00  0.00    -0.345 NA
ATOM      4  N   UNL     1      31.119 -23.147 -16.155  0.00  0.00    -0.239 N 
ATOM      5  N   UNL     1      32.443 -23.231 -15.950  0.00  0.00    -0.166 NA
ATOM      6  C   UNL     1      35.998 -24.277 -13.523  0.00  0.00    +0.072 C 
ATOM      7  C   UNL     1      36.722 -22.884 -15.700  0.00  0.00    +0.146 C 
ATOM      8  C   UNL     1      35.089 -23.539 -14.278  0.00  0.00    +0.199 C 
ATOM      9  C   UNL     1      37.331 -24.254 -13.966  0.00  0.00    +0.129 C 
ATOM     10  C   UNL     1      35.627 -25.008 -12.383  0.00  0.00    +0.006 C 
ATOM     11  C   UNL     1      38.270 -24.981 -13.237  0.00  0.00    +0.086 C 
ATOM     12  C   UNL     1      32.536 -23.377 -14.626  0.00  0.00    +0.152 C 
ATOM     13  C   UNL     1      36.585 -25.725 -11.673  0.00  0.00    -0.004 C 
ATOM     14  C   UNL     1      37.908 -25.711 -12.101  0.00  0.00    -0.019 C 
ATOM     15  C   UNL     1      31.280 -23.385 -13.990  0.00  0.00    +0.048 C 
ATOM     16  C   UNL     1      30.377 -23.233 -15.014  0.00  0.00    +0.046 C 
ATOM     17  C   UNL     1      28.907 -23.160 -15.026  0.00  0.00    +0.049 C 
ATOM     18  H   UNL     1      33.585 -23.612 -12.923  0.00  0.00    +0.156 HD
ATOM     19  H   UNL     1      30.720 -23.032 -17.049  0.00  0.00    +0.174 HD
ENDROOT
BRANCH   7  20
ATOM     20  C   UNL     1      37.136 -22.113 -16.909  0.00  0.00    +0.243 C 
BRANCH  20  22
ATOM     21  F   UNL     1      32.968 -21.317 -20.643  0.00  0.00    -0.204 F 
ATOM     22  C   UNL     1      36.013 -21.899 -17.916  0.00  0.00    +0.021 C 
ATOM     23  C   UNL     1      36.221 -21.086 -19.030  0.00  0.00    +0.001 C 
ATOM     24  C   UNL     1      34.776 -22.514 -17.723  0.00  0.00    +0.001 C 
ATOM     25  C   UNL     1      35.192 -20.890 -19.952  0.00  0.00    +0.029 C 
ATOM     26  C   UNL     1      33.747 -22.318 -18.644  0.00  0.00    +0.029 C 
ATOM     27  C   UNL     1      33.956 -21.505 -19.759  0.00  0.00    +0.140 C 
ENDBRANCH  20  22
BRANCH  20  28
ATOM     28  O   UNL     1      37.719 -20.842 -16.570  0.00  0.00    -0.366 OA
ATOM     29  H   UNL     1      38.686 -20.908 -16.608  0.00  0.00    +0.212 HD
ENDBRANCH  20  28
ENDBRANCH   7  20
TORSDOF 3
ENDMDL
MODEL 8
REMARK VINA RESULT:     -10.6      3.182      6.661
REMARK  Name = 46892373
REMARK  3 active torsions:
REMARK  status: ('A' for Active; 'I' for Inactive)
REMARK    1  A    between atoms: C_7  and  C_20
REMARK    2  A    between atoms: C_20  and  C_22
REMARK    3  A    between atoms: C_20  and  O_28
REMARK                            x       y       z     vdW  Elec       q    Type
REMARK                         _______ _______ _______ _____ _____    ______ ____
ROOT
ATOM      1  N   UNL     1      32.493 -24.270 -15.077  0.00  0.00    -0.326 NA
ATOM      2  N   UNL     1      34.257 -23.403 -16.370  0.00  0.00    -0.271 N 
ATOM      3  N   UNL     1      32.840 -24.871 -12.769  0.00  0.00    -0.345 NA
ATOM      4  N   UNL     1      32.234 -21.699 -18.619  0.00  0.00    -0.239 N 
ATOM      5  N   UNL     1      32.342 -22.330 -17.438  0.00  0.00    -0.166 NA
ATOM      6  C   UNL     1      34.665 -23.992 -14.054  0.00  0.00    +0.072 C 
ATOM      7  C   UNL     1      32.093 -24.736 -13.883  0.00  0.00    +0.146 C 
ATOM      8  C   UNL     1      33.787 -23.904 -15.130  0.00  0.00    +0.199 C 
ATOM      9  C   UNL     1      34.129 -24.497 -12.858  0.00  0.00    +0.129 C 
ATOM     10  C   UNL     1      36.013 -23.604 -14.134  0.00  0.00    +0.006 C 
ATOM     11  C   UNL     1      34.977 -24.600 -11.757  0.00  0.00    +0.086 C 
ATOM     12  C   UNL     1      33.625 -22.701 -17.409  0.00  0.00    +0.152 C 
ATOM     13  C   UNL     1      36.838 -23.718 -13.020  0.00  0.00    -0.004 C 
ATOM     14  C   UNL     1      36.319 -24.216 -11.830  0.00  0.00    -0.019 C 
ATOM     15  C   UNL     1      34.331 -22.309 -18.562  0.00  0.00    +0.048 C 
ATOM     16  C   UNL     1      33.397 -21.658 -19.331  0.00  0.00    +0.046 C 
ATOM     17  C   UNL     1      33.487 -21.013 -20.650  0.00  0.00    +0.049 C 
ATOM     18  H   UNL     1      35.210 -23.583 -16.536  0.00  0.00    +0.156 HD
ATOM     19  H   UNL     1      31.392 -21.301 -18.941  0.00  0.00    +0.174 HD
ENDROOT
BRANCH   7  20
ATOM     20  C   UNL     1      30.664 -25.154 -13.777  0.00  0.00    +0.243 C 
BRANCH  20  22
ATOM     21  F   UNL     1      27.202 -22.349 -17.256  0.00  0.00    -0.204 F 
ATOM     22  C   UNL     1      29.731 -24.398 -14.715  0.00  0.00    +0.021 C 
ATOM     23  C   UNL     1      29.586 -23.016 -14.590  0.00  0.00    +0.001 C 
ATOM     24  C   UNL     1      29.021 -25.087 -15.699  0.00  0.00    +0.001 C 
ATOM     25  C   UNL     1      28.732 -22.324 -15.448  0.00  0.00    +0.029 C 
ATOM     26  C   UNL     1      28.166 -24.395 -16.557  0.00  0.00    +0.029 C 
ATOM     27  C   UNL     1      28.022 -23.013 -16.432  0.00  0.00    +0.140 C 
ENDBRANCH  20  22
BRANCH  20  28
ATOM     28  O   UNL     1      30.494 -26.569 -13.978  0.00  0.00    -0.366 OA
ATOM     29  H   UNL     1      29.587 -26.748 -14.272  0.00  0.00    +0.212 HD
ENDBRANCH  20  28
ENDBRANCH   7  20
TORSDOF 3
ENDMDL
MODEL 9
REMARK VINA RESULT:     -10.5      3.089      7.271
REMARK  Name = 46892373
REMARK  3 active torsions:
REMARK  status: ('A' for Active; 'I' for Inactive)
REMARK    1  A    between atoms: C_7  and  C_20
REMARK    2  A    between atoms: C_20  and  C_22
REMARK    3  A    between atoms: C_20  and  O_28
REMARK                            x       y       z     vdW  Elec       q    Type
REMARK                         _______ _______ _______ _____ _____    ______ ____
ROOT
ATOM      1  N   UNL     1      32.661 -24.071 -15.394  0.00  0.00    -0.326 NA
ATOM      2  N   UNL     1      31.108 -23.126 -16.887  0.00  0.00    -0.271 N 
ATOM      3  N   UNL     1      35.030 -23.838 -15.774  0.00  0.00    -0.345 NA
ATOM      4  N   UNL     1      28.530 -22.851 -14.578  0.00  0.00    -0.239 N 
ATOM      5  N   UNL     1      29.840 -23.047 -14.803  0.00  0.00    -0.166 NA
ATOM      6  C   UNL     1      33.478 -22.861 -17.320  0.00  0.00    +0.072 C 
ATOM      7  C   UNL     1      33.953 -24.268 -15.086  0.00  0.00    +0.146 C 
ATOM      8  C   UNL     1      32.456 -23.362 -16.519  0.00  0.00    +0.199 C 
ATOM      9  C   UNL     1      34.789 -23.133 -16.894  0.00  0.00    +0.129 C 
ATOM     10  C   UNL     1      33.239 -22.123 -18.492  0.00  0.00    +0.006 C 
ATOM     11  C   UNL     1      35.839 -22.648 -17.669  0.00  0.00    +0.086 C 
ATOM     12  C   UNL     1      29.931 -22.985 -16.134  0.00  0.00    +0.152 C 
ATOM     13  C   UNL     1      34.307 -21.650 -19.248  0.00  0.00    -0.004 C 
ATOM     14  C   UNL     1      35.608 -21.913 -18.835  0.00  0.00    -0.019 C 
ATOM     15  C   UNL     1      28.689 -22.751 -16.754  0.00  0.00    +0.048 C 
ATOM     16  C   UNL     1      27.797 -22.669 -15.713  0.00  0.00    +0.046 C 
ATOM     17  C   UNL     1      26.343 -22.441 -15.680  0.00  0.00    +0.049 C 
ATOM     18  H   UNL     1      30.968 -23.048 -17.859  0.00  0.00    +0.156 HD
ATOM     19  H   UNL     1      28.136 -22.840 -13.675  0.00  0.00    +0.174 HD
ENDROOT
BRANCH   7  20
ATOM     20  C   UNL     1      34.229 -25.050 -13.845  0.00  0.00    +0.243 C 
BRANCH  20  22
ATOM     21  F   UNL     1      39.095 -23.674 -11.317  0.00  0.00    -0.204 F 
ATOM     22  C   UNL     1      35.541 -24.679 -13.164  0.00  0.00    +0.021 C 
ATOM     23  C   UNL     1      36.727 -25.306 -13.546  0.00  0.00    +0.001 C 
ATOM     24  C   UNL     1      35.556 -23.714 -12.157  0.00  0.00    +0.001 C 
ATOM     25  C   UNL     1      37.928 -24.966 -12.923  0.00  0.00    +0.029 C 
ATOM     26  C   UNL     1      36.756 -23.374 -11.532  0.00  0.00    +0.029 C 
ATOM     27  C   UNL     1      37.942 -24.001 -11.916  0.00  0.00    +0.140 C 
ENDBRANCH  20  22
BRANCH  20  28
ATOM     28  O   UNL     1      33.155 -24.955 -12.891  0.00  0.00    -0.366 OA
ATOM     29  H   UNL     1      33.161 -24.074 -12.484  0.00  0.00    +0.212 HD
ENDBRANCH  20  28
ENDBRANCH   7  20
TORSDOF 3
ENDMDL
