MODEL 1
REMARK VINA RESULT:     -11.8      0.000      0.000
REMARK  Name = 24821094
REMARK  5 active torsions:
REMARK  status: ('A' for Active; 'I' for Inactive)
REMARK    1  A    between atoms: N_1  and  C_12
REMARK    2  A    between atoms: C_7  and  C_20
REMARK    3  A    between atoms: C_17  and  C_18
REMARK    4  A    between atoms: C_25  and  O_26
REMARK    5  A    between atoms: O_26  and  C_27
REMARK                            x       y       z     vdW  Elec       q    Type
REMARK                         _______ _______ _______ _____ _____    ______ ____
ROOT
ATOM      1  N   UNL     1      33.264 -10.292 -23.109  0.00  0.00    -0.198 N 
ATOM      2  N   UNL     1      33.849 -11.387 -23.628  0.00  0.00    -0.181 NA
ATOM      3  N   UNL     1      31.745  -9.671 -21.330  0.00  0.00    -0.231 NA
ATOM      4  N   UNL     1      31.018 -11.612 -20.045  0.00  0.00    -0.234 NA
ATOM      5  C   UNL     1      32.454 -10.557 -22.045  0.00  0.00    +0.137 C 
ATOM      6  C   UNL     1      32.513 -11.926 -21.853  0.00  0.00    +0.150 C 
ATOM      7  C   UNL     1      33.387 -12.380 -22.858  0.00  0.00    +0.090 C 
ATOM      8  C   UNL     1      31.759 -12.450 -20.808  0.00  0.00    +0.112 C 
ATOM      9  C   UNL     1      31.056 -10.293 -20.348  0.00  0.00    +0.252 C 
ATOM     10  N   UNL     1      31.755 -13.830 -20.532  0.00  0.00    -0.346 N 
ATOM     11  H   UNL     1      31.214 -14.180 -19.787  0.00  0.00    +0.143 HD
ATOM     12  H   UNL     1      32.292 -14.444 -21.081  0.00  0.00    +0.143 HD
ENDROOT
BRANCH   1  15
ATOM     13  O   UNL     1      32.977  -4.356 -24.039  0.00  0.00    -0.270 OA
ATOM     14  N   UNL     1      33.597  -6.494 -23.367  0.00  0.00    -0.274 N 
ATOM     15  C   UNL     1      33.544  -8.934 -23.724  0.00  0.00    +0.117 C 
ATOM     16  C   UNL     1      34.962  -8.857 -24.324  0.00  0.00    +0.025 C 
ATOM     17  C   UNL     1      33.325  -7.787 -22.721  0.00  0.00    +0.115 C 
ATOM     18  C   UNL     1      35.236  -7.471 -24.913  0.00  0.00    +0.023 C 
ATOM     19  C   UNL     1      34.956  -6.367 -23.896  0.00  0.00    +0.094 C 
ATOM     20  C   UNL     1      32.709  -5.430 -23.499  0.00  0.00    +0.249 C 
BRANCH  20  21
ATOM     21  C   UNL     1      31.346  -5.601 -22.958  0.00  0.00    +0.058 C 
ATOM     22  C   UNL     1      31.074  -5.137 -21.737  0.00  0.00    +0.005 C 
ENDBRANCH  20  21
ENDBRANCH   1  15
BRANCH   7  23
ATOM     23  C   UNL     1      33.802 -13.737 -23.112  0.00  0.00    +0.016 C 
ATOM     24  C   UNL     1      34.539 -14.431 -22.153  0.00  0.00    +0.004 C 
ATOM     25  C   UNL     1      33.466 -14.355 -24.316  0.00  0.00    +0.004 C 
ATOM     26  C   UNL     1      34.940 -15.744 -22.399  0.00  0.00    +0.038 C 
ATOM     27  C   UNL     1      33.867 -15.669 -24.562  0.00  0.00    +0.038 C 
ATOM     28  C   UNL     1      34.604 -16.363 -23.603  0.00  0.00    +0.145 C 
BRANCH  28  29
ATOM     29  O   UNL     1      34.998 -17.643 -23.844  0.00  0.00    -0.453 OA
BRANCH  29  30
ATOM     30  C   UNL     1      35.233 -18.461 -22.752  0.00  0.00    +0.145 C 
ATOM     31  C   UNL     1      36.464 -18.415 -22.099  0.00  0.00    +0.037 C 
ATOM     32  C   UNL     1      34.239 -19.332 -22.305  0.00  0.00    +0.037 C 
ATOM     33  C   UNL     1      36.702 -19.240 -20.998  0.00  0.00    +0.003 C 
ATOM     34  C   UNL     1      34.476 -20.156 -21.206  0.00  0.00    +0.003 C 
ATOM     35  C   UNL     1      35.708 -20.110 -20.553  0.00  0.00    +0.000 C 
ENDBRANCH  29  30
ENDBRANCH  28  29
ENDBRANCH   7  23
TORSDOF 5
ENDMDL
MODEL 2
REMARK VINA RESULT:     -11.3      7.459     14.224
REMARK  Name = 24821094
REMARK  5 active torsions:
REMARK  status: ('A' for Active; 'I' for Inactive)
REMARK    1  A    between atoms: N_1  and  C_12
REMARK    2  A    between atoms: C_7  and  C_20
REMARK    3  A    between atoms: C_17  and  C_18
REMARK    4  A    between atoms: C_25  and  O_26
REMARK    5  A    between atoms: O_26  and  C_27
REMARK                            x       y       z     vdW  Elec       q    Type
REMARK                         _______ _______ _______ _____ _____    ______ ____
ROOT
ATOM      1  N   UNL     1      36.007 -23.140 -16.131  0.00  0.00    -0.198 N 
ATOM      2  N   UNL     1      36.488 -22.394 -17.142  0.00  0.00    -0.181 NA
ATOM      3  N   UNL     1      33.904 -24.012 -15.309  0.00  0.00    -0.231 NA
ATOM      4  N   UNL     1      32.037 -23.356 -16.736  0.00  0.00    -0.234 NA
ATOM      5  C   UNL     1      34.657 -23.319 -16.177  0.00  0.00    +0.137 C 
ATOM      6  C   UNL     1      34.222 -22.641 -17.302  0.00  0.00    +0.150 C 
ATOM      7  C   UNL     1      35.395 -22.093 -17.853  0.00  0.00    +0.090 C 
ATOM      8  C   UNL     1      32.857 -22.674 -17.571  0.00  0.00    +0.112 C 
ATOM      9  C   UNL     1      32.603 -23.973 -15.672  0.00  0.00    +0.252 C 
ATOM     10  N   UNL     1      32.318 -22.017 -18.692  0.00  0.00    -0.346 N 
ATOM     11  H   UNL     1      31.349 -22.054 -18.865  0.00  0.00    +0.143 HD
ATOM     12  H   UNL     1      32.908 -21.521 -19.304  0.00  0.00    +0.143 HD
ENDROOT
BRANCH   1  15
ATOM     13  O   UNL     1      37.941 -25.995 -11.202  0.00  0.00    -0.270 OA
ATOM     14  N   UNL     1      37.360 -25.420 -13.379  0.00  0.00    -0.274 N 
ATOM     15  C   UNL     1      36.962 -23.684 -15.085  0.00  0.00    +0.117 C 
ATOM     16  C   UNL     1      38.356 -23.973 -15.676  0.00  0.00    +0.025 C 
ATOM     17  C   UNL     1      36.406 -24.939 -14.389  0.00  0.00    +0.115 C 
ATOM     18  C   UNL     1      39.296 -24.549 -14.614  0.00  0.00    +0.023 C 
ATOM     19  C   UNL     1      38.678 -25.760 -13.919  0.00  0.00    +0.094 C 
ATOM     20  C   UNL     1      37.117 -25.579 -12.018  0.00  0.00    +0.249 C 
BRANCH  20  21
ATOM     21  C   UNL     1      35.777 -25.219 -11.512  0.00  0.00    +0.058 C 
ATOM     22  C   UNL     1      35.678 -24.596 -10.336  0.00  0.00    +0.005 C 
ENDBRANCH  20  21
ENDBRANCH   1  15
BRANCH   7  23
ATOM     23  C   UNL     1      35.512 -21.287 -19.042  0.00  0.00    +0.016 C 
ATOM     24  C   UNL     1      34.387 -21.034 -19.826  0.00  0.00    +0.004 C 
ATOM     25  C   UNL     1      36.750 -20.758 -19.407  0.00  0.00    +0.004 C 
ATOM     26  C   UNL     1      34.501 -20.254 -20.976  0.00  0.00    +0.038 C 
ATOM     27  C   UNL     1      36.863 -19.976 -20.557  0.00  0.00    +0.038 C 
ATOM     28  C   UNL     1      35.738 -19.725 -21.342  0.00  0.00    +0.145 C 
BRANCH  28  29
ATOM     29  O   UNL     1      35.849 -18.965 -22.466  0.00  0.00    -0.453 OA
BRANCH  29  30
ATOM     30  C   UNL     1      35.346 -17.676 -22.425  0.00  0.00    +0.145 C 
ATOM     31  C   UNL     1      34.956 -17.042 -23.604  0.00  0.00    +0.037 C 
ATOM     32  C   UNL     1      35.229 -17.011 -21.204  0.00  0.00    +0.037 C 
ATOM     33  C   UNL     1      34.449 -15.743 -23.563  0.00  0.00    +0.003 C 
ATOM     34  C   UNL     1      34.722 -15.713 -21.163  0.00  0.00    +0.003 C 
ATOM     35  C   UNL     1      34.333 -15.079 -22.343  0.00  0.00    +0.000 C 
ENDBRANCH  29  30
ENDBRANCH  28  29
ENDBRANCH   7  23
TORSDOF 5
ENDMDL
MODEL 3
REMARK VINA RESULT:     -11.2      2.814      5.435
REMARK  Name = 24821094
REMARK  5 active torsions:
REMARK  status: ('A' for Active; 'I' for Inactive)
REMARK    1  A    between atoms: N_1  and  C_12
REMARK    2  A    between atoms: C_7  and  C_20
REMARK    3  A    between atoms: C_17  and  C_18
REMARK    4  A    between atoms: C_25  and  O_26
REMARK    5  A    between atoms: O_26  and  C_27
REMARK                            x       y       z     vdW  Elec       q    Type
REMARK                         _______ _______ _______ _____ _____    ______ ____
ROOT
ATOM      1  N   UNL     1      33.788 -14.493 -21.954  0.00  0.00    -0.198 N 
ATOM      2  N   UNL     1      34.260 -15.461 -21.146  0.00  0.00    -0.181 NA
ATOM      3  N   UNL     1      33.337 -14.095 -24.298  0.00  0.00    -0.231 NA
ATOM      4  N   UNL     1      33.898 -16.035 -25.667  0.00  0.00    -0.234 NA
ATOM      5  C   UNL     1      33.755 -14.848 -23.269  0.00  0.00    +0.137 C 
ATOM      6  C   UNL     1      34.239 -16.143 -23.327  0.00  0.00    +0.150 C 
ATOM      7  C   UNL     1      34.532 -16.463 -21.988  0.00  0.00    +0.090 C 
ATOM      8  C   UNL     1      34.304 -16.738 -24.583  0.00  0.00    +0.112 C 
ATOM      9  C   UNL     1      33.446 -14.775 -25.461  0.00  0.00    +0.252 C 
ATOM     10  N   UNL     1      34.780 -18.052 -24.745  0.00  0.00    -0.346 N 
ATOM     11  H   UNL     1      34.817 -18.454 -25.643  0.00  0.00    +0.143 HD
ATOM     12  H   UNL     1      35.075 -18.569 -23.961  0.00  0.00    +0.143 HD
ENDROOT
BRANCH   1  15
ATOM     13  O   UNL     1      32.328  -8.667 -21.632  0.00  0.00    -0.270 OA
ATOM     14  N   UNL     1      32.279 -10.988 -21.770  0.00  0.00    -0.274 N 
ATOM     15  C   UNL     1      33.361 -13.165 -21.358  0.00  0.00    +0.117 C 
ATOM     16  C   UNL     1      32.465 -13.354 -20.119  0.00  0.00    +0.025 C 
ATOM     17  C   UNL     1      32.662 -12.264 -22.392  0.00  0.00    +0.115 C 
ATOM     18  C   UNL     1      32.020 -12.005 -19.549  0.00  0.00    +0.023 C 
ATOM     19  C   UNL     1      31.378 -11.130 -20.624  0.00  0.00    +0.094 C 
ATOM     20  C   UNL     1      32.678  -9.717 -22.173  0.00  0.00    +0.249 C 
BRANCH  20  21
ATOM     21  C   UNL     1      33.592  -9.617 -23.328  0.00  0.00    +0.058 C 
ATOM     22  C   UNL     1      34.410  -8.566 -23.415  0.00  0.00    +0.005 C 
ENDBRANCH  20  21
ENDBRANCH   1  15
BRANCH   7  23
ATOM     23  C   UNL     1      35.067 -17.702 -21.480  0.00  0.00    +0.016 C 
ATOM     24  C   UNL     1      34.205 -18.741 -21.130  0.00  0.00    +0.004 C 
ATOM     25  C   UNL     1      36.445 -17.861 -21.340  0.00  0.00    +0.004 C 
ATOM     26  C   UNL     1      34.723 -19.940 -20.638  0.00  0.00    +0.038 C 
ATOM     27  C   UNL     1      36.963 -19.060 -20.849  0.00  0.00    +0.038 C 
ATOM     28  C   UNL     1      36.101 -20.099 -20.498  0.00  0.00    +0.145 C 
BRANCH  28  29
ATOM     29  O   UNL     1      36.606 -21.268 -20.016  0.00  0.00    -0.453 OA
BRANCH  29  30
ATOM     30  C   UNL     1      35.977 -21.838 -18.922  0.00  0.00    +0.145 C 
ATOM     31  C   UNL     1      36.631 -21.890 -17.691  0.00  0.00    +0.037 C 
ATOM     32  C   UNL     1      34.690 -22.361 -19.051  0.00  0.00    +0.037 C 
ATOM     33  C   UNL     1      35.997 -22.465 -16.588  0.00  0.00    +0.003 C 
ATOM     34  C   UNL     1      34.057 -22.936 -17.949  0.00  0.00    +0.003 C 
ATOM     35  C   UNL     1      34.711 -22.988 -16.719  0.00  0.00    +0.000 C 
ENDBRANCH  29  30
ENDBRANCH  28  29
ENDBRANCH   7  23
TORSDOF 5
ENDMDL
MODEL 4
REMARK VINA RESULT:     -11.0      1.275      2.418
REMARK  Name = 24821094
REMARK  5 active torsions:
REMARK  status: ('A' for Active; 'I' for Inactive)
REMARK    1  A    between atoms: N_1  and  C_12
REMARK    2  A    between atoms: C_7  and  C_20
REMARK    3  A    between atoms: C_17  and  C_18
REMARK    4  A    between atoms: C_25  and  O_26
REMARK    5  A    between atoms: O_26  and  C_27
REMARK                            x       y       z     vdW  Elec       q    Type
REMARK                         _______ _______ _______ _____ _____    ______ ____
ROOT
ATOM      1  N   UNL     1      32.567  -9.406 -22.442  0.00  0.00    -0.198 N 
ATOM      2  N   UNL     1      33.027 -10.334 -23.302  0.00  0.00    -0.181 NA
ATOM      3  N   UNL     1      31.657  -9.244 -20.205  0.00  0.00    -0.231 NA
ATOM      4  N   UNL     1      31.508 -11.429 -19.132  0.00  0.00    -0.234 NA
ATOM      5  C   UNL     1      32.158  -9.923 -21.249  0.00  0.00    +0.137 C 
ATOM      6  C   UNL     1      32.366 -11.288 -21.333  0.00  0.00    +0.150 C 
ATOM      7  C   UNL     1      32.902 -11.478 -22.620  0.00  0.00    +0.090 C 
ATOM      8  C   UNL     1      32.020 -12.049 -20.221  0.00  0.00    +0.112 C 
ATOM      9  C   UNL     1      31.360 -10.085 -19.190  0.00  0.00    +0.252 C 
ATOM     10  N   UNL     1      32.195 -13.445 -20.209  0.00  0.00    -0.346 N 
ATOM     11  H   UNL     1      31.945 -13.965 -19.411  0.00  0.00    +0.143 HD
ATOM     12  H   UNL     1      32.569 -13.902 -20.997  0.00  0.00    +0.143 HD
ENDROOT
BRANCH   1  15
ATOM     13  O   UNL     1      33.762  -4.424 -25.593  0.00  0.00    -0.270 OA
ATOM     14  N   UNL     1      32.785  -6.343 -24.716  0.00  0.00    -0.274 N 
ATOM     15  C   UNL     1      32.546  -7.948 -22.858  0.00  0.00    +0.117 C 
ATOM     16  C   UNL     1      31.229  -7.255 -22.455  0.00  0.00    +0.025 C 
ATOM     17  C   UNL     1      32.804  -7.771 -24.365  0.00  0.00    +0.115 C 
ATOM     18  C   UNL     1      31.214  -5.793 -22.909  0.00  0.00    +0.023 C 
ATOM     19  C   UNL     1      31.524  -5.669 -24.399  0.00  0.00    +0.094 C 
ATOM     20  C   UNL     1      33.818  -5.620 -25.305  0.00  0.00    +0.249 C 
BRANCH  20  21
ATOM     21  C   UNL     1      35.075  -6.335 -25.602  0.00  0.00    +0.058 C 
ATOM     22  C   UNL     1      35.375  -6.611 -26.872  0.00  0.00    +0.005 C 
ENDBRANCH  20  21
ENDBRANCH   1  15
BRANCH   7  23
ATOM     23  C   UNL     1      33.302 -12.722 -23.228  0.00  0.00    +0.016 C 
ATOM     24  C   UNL     1      34.216 -13.552 -22.579  0.00  0.00    +0.004 C 
ATOM     25  C   UNL     1      32.776 -13.096 -24.464  0.00  0.00    +0.004 C 
ATOM     26  C   UNL     1      34.603 -14.756 -23.167  0.00  0.00    +0.038 C 
ATOM     27  C   UNL     1      33.163 -14.301 -25.052  0.00  0.00    +0.038 C 
ATOM     28  C   UNL     1      34.077 -15.131 -24.403  0.00  0.00    +0.145 C 
BRANCH  28  29
ATOM     29  O   UNL     1      34.457 -16.304 -24.978  0.00  0.00    -0.453 OA
BRANCH  29  30
ATOM     30  C   UNL     1      34.583 -17.413 -24.158  0.00  0.00    +0.145 C 
ATOM     31  C   UNL     1      35.306 -17.321 -22.968  0.00  0.00    +0.037 C 
ATOM     32  C   UNL     1      33.989 -18.621 -24.521  0.00  0.00    +0.037 C 
ATOM     33  C   UNL     1      35.433 -18.438 -22.141  0.00  0.00    +0.003 C 
ATOM     34  C   UNL     1      34.116 -19.738 -23.695  0.00  0.00    +0.003 C 
ATOM     35  C   UNL     1      34.839 -19.645 -22.506  0.00  0.00    +0.000 C 
ENDBRANCH  29  30
ENDBRANCH  28  29
ENDBRANCH   7  23
TORSDOF 5
ENDMDL
MODEL 5
REMARK VINA RESULT:     -10.9      1.289      2.678
REMARK  Name = 24821094
REMARK  5 active torsions:
REMARK  status: ('A' for Active; 'I' for Inactive)
REMARK    1  A    between atoms: N_1  and  C_12
REMARK    2  A    between atoms: C_7  and  C_20
REMARK    3  A    between atoms: C_17  and  C_18
REMARK    4  A    between atoms: C_25  and  O_26
REMARK    5  A    between atoms: O_26  and  C_27
REMARK                            x       y       z     vdW  Elec       q    Type
REMARK                         _______ _______ _______ _____ _____    ______ ____
ROOT
ATOM      1  N   UNL     1      32.583  -9.340 -22.484  0.00  0.00    -0.198 N 
ATOM      2  N   UNL     1      33.043 -10.271 -23.340  0.00  0.00    -0.181 NA
ATOM      3  N   UNL     1      31.657  -9.172 -20.254  0.00  0.00    -0.231 NA
ATOM      4  N   UNL     1      31.483 -11.355 -19.181  0.00  0.00    -0.234 NA
ATOM      5  C   UNL     1      32.161  -9.853 -21.294  0.00  0.00    +0.137 C 
ATOM      6  C   UNL     1      32.359 -11.221 -21.376  0.00  0.00    +0.150 C 
ATOM      7  C   UNL     1      32.904 -11.415 -22.659  0.00  0.00    +0.090 C 
ATOM      8  C   UNL     1      32.000 -11.979 -20.267  0.00  0.00    +0.112 C 
ATOM      9  C   UNL     1      31.345 -10.009 -19.241  0.00  0.00    +0.252 C 
ATOM     10  N   UNL     1      32.164 -13.376 -20.254  0.00  0.00    -0.346 N 
ATOM     11  H   UNL     1      31.904 -13.894 -19.458  0.00  0.00    +0.143 HD
ATOM     12  H   UNL     1      32.541 -13.836 -21.039  0.00  0.00    +0.143 HD
ENDROOT
BRANCH   1  15
ATOM     13  O   UNL     1      33.833  -4.368 -25.630  0.00  0.00    -0.270 OA
ATOM     14  N   UNL     1      32.836  -6.279 -24.757  0.00  0.00    -0.274 N 
ATOM     15  C   UNL     1      32.576  -7.882 -22.900  0.00  0.00    +0.117 C 
ATOM     16  C   UNL     1      31.264  -7.178 -22.502  0.00  0.00    +0.025 C 
ATOM     17  C   UNL     1      32.842  -7.707 -24.405  0.00  0.00    +0.115 C 
ATOM     18  C   UNL     1      31.263  -5.716 -22.956  0.00  0.00    +0.023 C 
ATOM     19  C   UNL     1      31.580  -5.594 -24.445  0.00  0.00    +0.094 C 
ATOM     20  C   UNL     1      33.878  -5.565 -25.342  0.00  0.00    +0.249 C 
BRANCH  20  21
ATOM     21  C   UNL     1      35.130  -6.291 -25.633  0.00  0.00    +0.058 C 
ATOM     22  C   UNL     1      35.401  -6.627 -26.896  0.00  0.00    +0.005 C 
ENDBRANCH  20  21
ENDBRANCH   1  15
BRANCH   7  23
ATOM     23  C   UNL     1      33.300 -12.662 -23.264  0.00  0.00    +0.016 C 
ATOM     24  C   UNL     1      32.781 -13.030 -24.505  0.00  0.00    +0.004 C 
ATOM     25  C   UNL     1      34.204 -13.499 -22.610  0.00  0.00    +0.004 C 
ATOM     26  C   UNL     1      33.165 -14.236 -25.091  0.00  0.00    +0.038 C 
ATOM     27  C   UNL     1      34.588 -14.705 -23.196  0.00  0.00    +0.038 C 
ATOM     28  C   UNL     1      34.068 -15.073 -24.436  0.00  0.00    +0.145 C 
BRANCH  28  29
ATOM     29  O   UNL     1      34.441 -16.252 -25.007  0.00  0.00    -0.453 OA
BRANCH  29  30
ATOM     30  C   UNL     1      34.571 -17.355 -24.179  0.00  0.00    +0.145 C 
ATOM     31  C   UNL     1      33.975 -18.565 -24.532  0.00  0.00    +0.037 C 
ATOM     32  C   UNL     1      35.299 -17.255 -22.993  0.00  0.00    +0.037 C 
ATOM     33  C   UNL     1      34.106 -19.677 -23.698  0.00  0.00    +0.003 C 
ATOM     34  C   UNL     1      35.431 -18.366 -22.160  0.00  0.00    +0.003 C 
ATOM     35  C   UNL     1      34.833 -19.576 -22.512  0.00  0.00    +0.000 C 
ENDBRANCH  29  30
ENDBRANCH  28  29
ENDBRANCH   7  23
TORSDOF 5
ENDMDL
MODEL 6
REMARK VINA RESULT:     -10.9      8.004     14.614
REMARK  Name = 24821094
REMARK  5 active torsions:
REMARK  status: ('A' for Active; 'I' for Inactive)
REMARK    1  A    between atoms: N_1  and  C_12
REMARK    2  A    between atoms: C_7  and  C_20
REMARK    3  A    between atoms: C_17  and  C_18
REMARK    4  A    between atoms: C_25  and  O_26
REMARK    5  A    between atoms: O_26  and  C_27
REMARK                            x       y       z     vdW  Elec       q    Type
REMARK                         _______ _______ _______ _____ _____    ______ ____
ROOT
ATOM      1  N   UNL     1      34.732 -23.878 -15.325  0.00  0.00    -0.198 N 
ATOM      2  N   UNL     1      35.476 -23.282 -16.275  0.00  0.00    -0.181 NA
ATOM      3  N   UNL     1      32.409 -24.240 -14.747  0.00  0.00    -0.231 NA
ATOM      4  N   UNL     1      30.905 -23.222 -16.375  0.00  0.00    -0.234 NA
ATOM      5  C   UNL     1      33.389 -23.753 -15.524  0.00  0.00    +0.137 C 
ATOM      6  C   UNL     1      33.243 -23.024 -16.691  0.00  0.00    +0.150 C 
ATOM      7  C   UNL     1      34.562 -22.764 -17.104  0.00  0.00    +0.090 C 
ATOM      8  C   UNL     1      31.943 -22.761 -17.112  0.00  0.00    +0.112 C 
ATOM      9  C   UNL     1      31.198 -23.923 -15.254  0.00  0.00    +0.252 C 
ATOM     10  N   UNL     1      31.691 -22.028 -18.286  0.00  0.00    -0.346 N 
ATOM     11  H   UNL     1      30.764 -21.853 -18.567  0.00  0.00    +0.143 HD
ATOM     12  H   UNL     1      32.441 -21.691 -18.828  0.00  0.00    +0.143 HD
ENDROOT
BRANCH   1  15
ATOM     13  O   UNL     1      39.093 -26.506 -12.124  0.00  0.00    -0.270 OA
ATOM     14  N   UNL     1      37.547 -25.007 -13.002  0.00  0.00    -0.274 N 
ATOM     15  C   UNL     1      35.419 -24.594 -14.178  0.00  0.00    +0.117 C 
ATOM     16  C   UNL     1      34.754 -24.279 -12.823  0.00  0.00    +0.025 C 
ATOM     17  C   UNL     1      36.925 -24.283 -14.120  0.00  0.00    +0.115 C 
ATOM     18  C   UNL     1      35.479 -24.986 -11.676  0.00  0.00    +0.023 C 
ATOM     19  C   UNL     1      36.977 -24.685 -11.692  0.00  0.00    +0.094 C 
ATOM     20  C   UNL     1      38.591 -25.924 -13.086  0.00  0.00    +0.249 C 
BRANCH  20  21
ATOM     21  C   UNL     1      39.134 -26.226 -14.426  0.00  0.00    +0.058 C 
ATOM     22  C   UNL     1      40.340 -25.758 -14.754  0.00  0.00    +0.005 C 
ENDBRANCH  20  21
ENDBRANCH   1  15
BRANCH   7  23
ATOM     23  C   UNL     1      34.987 -22.034 -18.272  0.00  0.00    +0.016 C 
ATOM     24  C   UNL     1      36.336 -21.724 -18.448  0.00  0.00    +0.004 C 
ATOM     25  C   UNL     1      34.051 -21.639 -19.227  0.00  0.00    +0.004 C 
ATOM     26  C   UNL     1      36.747 -21.018 -19.578  0.00  0.00    +0.038 C 
ATOM     27  C   UNL     1      34.463 -20.933 -20.358  0.00  0.00    +0.038 C 
ATOM     28  C   UNL     1      35.811 -20.623 -20.533  0.00  0.00    +0.145 C 
BRANCH  28  29
ATOM     29  O   UNL     1      36.212 -19.931 -21.634  0.00  0.00    -0.453 OA
BRANCH  29  30
ATOM     30  C   UNL     1      35.687 -18.664 -21.826  0.00  0.00    +0.145 C 
ATOM     31  C   UNL     1      35.280 -18.263 -23.099  0.00  0.00    +0.037 C 
ATOM     32  C   UNL     1      35.564 -17.788 -20.747  0.00  0.00    +0.037 C 
ATOM     33  C   UNL     1      34.751 -16.987 -23.293  0.00  0.00    +0.003 C 
ATOM     34  C   UNL     1      35.035 -16.513 -20.940  0.00  0.00    +0.003 C 
ATOM     35  C   UNL     1      34.630 -16.112 -22.213  0.00  0.00    +0.000 C 
ENDBRANCH  29  30
ENDBRANCH  28  29
ENDBRANCH   7  23
TORSDOF 5
ENDMDL
MODEL 7
REMARK VINA RESULT:     -10.3      9.721     15.168
REMARK  Name = 24821094
REMARK  5 active torsions:
REMARK  status: ('A' for Active; 'I' for Inactive)
REMARK    1  A    between atoms: N_1  and  C_12
REMARK    2  A    between atoms: C_7  and  C_20
REMARK    3  A    between atoms: C_17  and  C_18
REMARK    4  A    between atoms: C_25  and  O_26
REMARK    5  A    between atoms: O_26  and  C_27
REMARK                            x       y       z     vdW  Elec       q    Type
REMARK                         _______ _______ _______ _____ _____    ______ ____
ROOT
ATOM      1  N   UNL     1      34.136 -24.403 -14.343  0.00  0.00    -0.198 N 
ATOM      2  N   UNL     1      34.547 -23.771 -15.458  0.00  0.00    -0.181 NA
ATOM      3  N   UNL     1      32.087 -25.061 -13.237  0.00  0.00    -0.231 NA
ATOM      4  N   UNL     1      30.118 -24.386 -14.508  0.00  0.00    -0.234 NA
ATOM      5  C   UNL     1      32.781 -24.490 -14.233  0.00  0.00    +0.137 C 
ATOM      6  C   UNL     1      32.266 -23.869 -15.358  0.00  0.00    +0.150 C 
ATOM      7  C   UNL     1      33.403 -23.448 -16.072  0.00  0.00    +0.090 C 
ATOM      8  C   UNL     1      30.881 -23.828 -15.478  0.00  0.00    +0.112 C 
ATOM      9  C   UNL     1      30.759 -24.959 -13.462  0.00  0.00    +0.252 C 
ATOM     10  N   UNL     1      30.262 -23.221 -16.586  0.00  0.00    -0.346 N 
ATOM     11  H   UNL     1      29.280 -23.203 -16.652  0.00  0.00    +0.143 HD
ATOM     12  H   UNL     1      30.811 -22.815 -17.296  0.00  0.00    +0.143 HD
ENDROOT
BRANCH   1  15
ATOM     13  O   UNL     1      39.441 -26.228 -12.174  0.00  0.00    -0.270 OA
ATOM     14  N   UNL     1      37.548 -24.997 -12.728  0.00  0.00    -0.274 N 
ATOM     15  C   UNL     1      35.165 -24.932 -13.363  0.00  0.00    +0.117 C 
ATOM     16  C   UNL     1      34.807 -24.575 -11.907  0.00  0.00    +0.025 C 
ATOM     17  C   UNL     1      36.587 -24.449 -13.698  0.00  0.00    +0.115 C 
ATOM     18  C   UNL     1      35.871 -25.092 -10.935  0.00  0.00    +0.023 C 
ATOM     19  C   UNL     1      37.268 -24.626 -11.339  0.00  0.00    +0.094 C 
ATOM     20  C   UNL     1      38.652 -25.794 -13.014  0.00  0.00    +0.249 C 
BRANCH  20  21
ATOM     21  C   UNL     1      38.895 -26.151 -14.426  0.00  0.00    +0.058 C 
ATOM     22  C   UNL     1      40.133 -26.052 -14.913  0.00  0.00    +0.005 C 
ENDBRANCH  20  21
ENDBRANCH   1  15
BRANCH   7  23
ATOM     23  C   UNL     1      33.438 -22.744 -17.329  0.00  0.00    +0.016 C 
ATOM     24  C   UNL     1      34.610 -22.724 -18.084  0.00  0.00    +0.004 C 
ATOM     25  C   UNL     1      32.299 -22.084 -17.791  0.00  0.00    +0.004 C 
ATOM     26  C   UNL     1      34.644 -22.042 -19.301  0.00  0.00    +0.038 C 
ATOM     27  C   UNL     1      32.333 -21.403 -19.008  0.00  0.00    +0.038 C 
ATOM     28  C   UNL     1      33.505 -21.383 -19.763  0.00  0.00    +0.145 C 
BRANCH  28  29
ATOM     29  O   UNL     1      33.539 -20.716 -20.949  0.00  0.00    -0.453 OA
BRANCH  29  30
ATOM     30  C   UNL     1      34.684 -19.999 -21.252  0.00  0.00    +0.145 C 
ATOM     31  C   UNL     1      34.742 -19.239 -22.421  0.00  0.00    +0.037 C 
ATOM     32  C   UNL     1      35.780 -20.035 -20.389  0.00  0.00    +0.037 C 
ATOM     33  C   UNL     1      35.896 -18.517 -22.727  0.00  0.00    +0.003 C 
ATOM     34  C   UNL     1      36.933 -19.313 -20.695  0.00  0.00    +0.003 C 
ATOM     35  C   UNL     1      36.991 -18.555 -21.864  0.00  0.00    +0.000 C 
ENDBRANCH  29  30
ENDBRANCH  28  29
ENDBRANCH   7  23
TORSDOF 5
ENDMDL
MODEL 8
REMARK VINA RESULT:     -10.2      8.176     13.847
REMARK  Name = 24821094
REMARK  5 active torsions:
REMARK  status: ('A' for Active; 'I' for Inactive)
REMARK    1  A    between atoms: N_1  and  C_12
REMARK    2  A    between atoms: C_7  and  C_20
REMARK    3  A    between atoms: C_17  and  C_18
REMARK    4  A    between atoms: C_25  and  O_26
REMARK    5  A    between atoms: O_26  and  C_27
REMARK                            x       y       z     vdW  Elec       q    Type
REMARK                         _______ _______ _______ _____ _____    ______ ____
ROOT
ATOM      1  N   UNL     1      33.262 -23.355 -15.859  0.00  0.00    -0.198 N 
ATOM      2  N   UNL     1      33.178 -22.748 -17.058  0.00  0.00    -0.181 NA
ATOM      3  N   UNL     1      34.926 -24.014 -14.230  0.00  0.00    -0.231 NA
ATOM      4  N   UNL     1      37.177 -23.403 -14.942  0.00  0.00    -0.234 NA
ATOM      5  C   UNL     1      34.536 -23.460 -15.388  0.00  0.00    +0.137 C 
ATOM      6  C   UNL     1      35.346 -22.878 -16.348  0.00  0.00    +0.150 C 
ATOM      7  C   UNL     1      34.451 -22.460 -17.349  0.00  0.00    +0.090 C 
ATOM      8  C   UNL     1      36.714 -22.861 -16.093  0.00  0.00    +0.112 C 
ATOM      9  C   UNL     1      36.268 -23.939 -14.093  0.00  0.00    +0.252 C 
ATOM     10  N   UNL     1      37.619 -22.291 -17.007  0.00  0.00    -0.346 N 
ATOM     11  H   UNL     1      38.584 -22.288 -16.807  0.00  0.00    +0.143 HD
ATOM     12  H   UNL     1      37.289 -21.894 -17.845  0.00  0.00    +0.143 HD
ENDROOT
BRANCH   1  15
ATOM     13  O   UNL     1      27.444 -24.634 -15.022  0.00  0.00    -0.270 OA
ATOM     14  N   UNL     1      29.720 -24.741 -15.487  0.00  0.00    -0.274 N 
ATOM     15  C   UNL     1      31.997 -23.843 -15.179  0.00  0.00    +0.117 C 
ATOM     16  C   UNL     1      32.286 -24.975 -14.174  0.00  0.00    +0.025 C 
ATOM     17  C   UNL     1      30.928 -24.288 -16.193  0.00  0.00    +0.115 C 
ATOM     18  C   UNL     1      30.995 -25.475 -13.520  0.00  0.00    +0.023 C 
ATOM     19  C   UNL     1      29.951 -25.856 -14.567  0.00  0.00    +0.094 C 
ATOM     20  C   UNL     1      28.436 -24.222 -15.626  0.00  0.00    +0.249 C 
BRANCH  20  21
ATOM     21  C   UNL     1      28.247 -23.093 -16.559  0.00  0.00    +0.058 C 
ATOM     22  C   UNL     1      27.056 -22.495 -16.614  0.00  0.00    +0.005 C 
ENDBRANCH  20  21
ENDBRANCH   1  15
BRANCH   7  23
ATOM     23  C   UNL     1      34.770 -21.789 -18.585  0.00  0.00    +0.016 C 
ATOM     24  C   UNL     1      33.747 -21.268 -19.377  0.00  0.00    +0.004 C 
ATOM     25  C   UNL     1      36.099 -21.660 -18.987  0.00  0.00    +0.004 C 
ATOM     26  C   UNL     1      34.055 -20.618 -20.573  0.00  0.00    +0.038 C 
ATOM     27  C   UNL     1      36.407 -21.010 -20.182  0.00  0.00    +0.038 C 
ATOM     28  C   UNL     1      35.384 -20.489 -20.975  0.00  0.00    +0.145 C 
BRANCH  28  29
ATOM     29  O   UNL     1      35.684 -19.858 -22.143  0.00  0.00    -0.453 OA
BRANCH  29  30
ATOM     30  C   UNL     1      35.353 -18.518 -22.255  0.00  0.00    +0.145 C 
ATOM     31  C   UNL     1      34.987 -17.992 -23.494  0.00  0.00    +0.037 C 
ATOM     32  C   UNL     1      35.384 -17.695 -21.129  0.00  0.00    +0.037 C 
ATOM     33  C   UNL     1      34.653 -16.642 -23.607  0.00  0.00    +0.003 C 
ATOM     34  C   UNL     1      35.051 -16.346 -21.242  0.00  0.00    +0.003 C 
ATOM     35  C   UNL     1      34.686 -15.819 -22.481  0.00  0.00    +0.000 C 
ENDBRANCH  29  30
ENDBRANCH  28  29
ENDBRANCH   7  23
TORSDOF 5
ENDMDL
MODEL 9
REMARK VINA RESULT:     -10.2      2.447      9.583
REMARK  Name = 24821094
REMARK  5 active torsions:
REMARK  status: ('A' for Active; 'I' for Inactive)
REMARK    1  A    between atoms: N_1  and  C_12
REMARK    2  A    between atoms: C_7  and  C_20
REMARK    3  A    between atoms: C_17  and  C_18
REMARK    4  A    between atoms: C_25  and  O_26
REMARK    5  A    between atoms: O_26  and  C_27
REMARK                            x       y       z     vdW  Elec       q    Type
REMARK                         _______ _______ _______ _____ _____    ______ ____
ROOT
ATOM      1  N   UNL     1      32.685 -11.290 -21.930  0.00  0.00    -0.198 N 
ATOM      2  N   UNL     1      32.973 -10.431 -22.925  0.00  0.00    -0.181 NA
ATOM      3  N   UNL     1      31.878 -11.278 -19.648  0.00  0.00    -0.231 NA
ATOM      4  N   UNL     1      31.433  -9.013 -18.860  0.00  0.00    -0.234 NA
ATOM      5  C   UNL     1      32.239 -10.682 -20.795  0.00  0.00    +0.137 C 
ATOM      6  C   UNL     1      32.235  -9.325 -21.066  0.00  0.00    +0.150 C 
ATOM      7  C   UNL     1      32.696  -9.235 -22.392  0.00  0.00    +0.090 C 
ATOM      8  C   UNL     1      31.812  -8.478 -20.046  0.00  0.00    +0.112 C 
ATOM      9  C   UNL     1      31.489 -10.360 -18.736  0.00  0.00    +0.252 C 
ATOM     10  N   UNL     1      31.771  -7.084 -20.225  0.00  0.00    -0.346 N 
ATOM     11  H   UNL     1      31.468  -6.502 -19.490  0.00  0.00    +0.143 HD
ATOM     12  H   UNL     1      32.043  -6.689 -21.084  0.00  0.00    +0.143 HD
ENDROOT
BRANCH   1  15
ATOM     13  O   UNL     1      33.741 -16.476 -24.788  0.00  0.00    -0.270 OA
ATOM     14  N   UNL     1      33.929 -14.527 -23.533  0.00  0.00    -0.274 N 
ATOM     15  C   UNL     1      32.874 -12.779 -22.151  0.00  0.00    +0.117 C 
ATOM     16  C   UNL     1      33.405 -13.483 -20.888  0.00  0.00    +0.025 C 
ATOM     17  C   UNL     1      33.787 -13.075 -23.354  0.00  0.00    +0.115 C 
ATOM     18  C   UNL     1      33.618 -14.979 -21.139  0.00  0.00    +0.023 C 
ATOM     19  C   UNL     1      34.488 -15.219 -22.370  0.00  0.00    +0.094 C 
ATOM     20  C   UNL     1      33.599 -15.258 -24.671  0.00  0.00    +0.249 C 
BRANCH  20  21
ATOM     21  C   UNL     1      33.031 -14.524 -25.819  0.00  0.00    +0.058 C 
ATOM     22  C   UNL     1      33.846 -13.796 -26.585  0.00  0.00    +0.005 C 
ENDBRANCH  20  21
ENDBRANCH   1  15
BRANCH   7  23
ATOM     23  C   UNL     1      32.885  -8.040 -23.176  0.00  0.00    +0.016 C 
ATOM     24  C   UNL     1      31.839  -7.547 -23.956  0.00  0.00    +0.004 C 
ATOM     25  C   UNL     1      34.111  -7.376 -23.153  0.00  0.00    +0.004 C 
ATOM     26  C   UNL     1      32.021  -6.390 -24.714  0.00  0.00    +0.038 C 
ATOM     27  C   UNL     1      34.292  -6.219 -23.910  0.00  0.00    +0.038 C 
ATOM     28  C   UNL     1      33.247  -5.727 -24.691  0.00  0.00    +0.145 C 
BRANCH  28  29
ATOM     29  O   UNL     1      33.425  -4.599 -25.433  0.00  0.00    -0.453 OA
BRANCH  29  30
ATOM     30  C   UNL     1      33.431  -4.730 -26.812  0.00  0.00    +0.145 C 
ATOM     31  C   UNL     1      34.193  -5.732 -27.414  0.00  0.00    +0.037 C 
ATOM     32  C   UNL     1      32.677  -3.860 -27.599  0.00  0.00    +0.037 C 
ATOM     33  C   UNL     1      34.200  -5.864 -28.803  0.00  0.00    +0.003 C 
ATOM     34  C   UNL     1      32.683  -3.991 -28.987  0.00  0.00    +0.003 C 
ATOM     35  C   UNL     1      33.445  -4.993 -29.589  0.00  0.00    +0.000 C 
ENDBRANCH  29  30
ENDBRANCH  28  29
ENDBRANCH   7  23
TORSDOF 5
ENDMDL
