MODEL 1
REMARK VINA RESULT:     -11.5      0.000      0.000
REMARK  Name = 25195365
REMARK  5 active torsions:
REMARK  status: ('A' for Active; 'I' for Inactive)
REMARK    1  A    between atoms: C_1  and  C_3
REMARK    2  A    between atoms: C_1  and  C_17
REMARK    3  A    between atoms: C_4  and  C_9
REMARK    4  A    between atoms: C_6  and  O_15
REMARK    5  A    between atoms: C_18  and  C_23
REMARK                            x       y       z     vdW  Elec       q    Type
REMARK                         _______ _______ _______ _____ _____    ______ ____
ROOT
ATOM      1  C   UNL     1      32.892 -23.377 -17.341  0.00  0.00    +0.086 C 
ATOM      2  C   UNL     1      31.510 -23.056 -16.739  0.00  0.00    +0.019 C 
ENDROOT
BRANCH   1   3
ATOM      3  C   UNL     1      33.317 -22.388 -18.372  0.00  0.00    -0.007 C 
ATOM      4  C   UNL     1      34.112 -20.537 -20.302  0.00  0.00    +0.034 C 
ATOM      5  C   UNL     1      34.665 -22.270 -18.712  0.00  0.00    +0.034 C 
ATOM      6  C   UNL     1      35.063 -21.345 -19.677  0.00  0.00    +0.138 C 
ATOM      7  C   UNL     1      32.368 -21.580 -18.997  0.00  0.00    -0.003 C 
ATOM      8  C   UNL     1      32.765 -20.655 -19.962  0.00  0.00    +0.003 C 
BRANCH   4   9
ATOM      9  C   UNL     1      34.504 -19.570 -21.304  0.00  0.00    +0.003 C 
ATOM     10  C   UNL     1      34.246 -19.820 -22.653  0.00  0.00    +0.000 C 
ATOM     11  C   UNL     1      35.138 -18.387 -20.923  0.00  0.00    +0.000 C 
ATOM     12  C   UNL     1      34.622 -18.888 -23.619  0.00  0.00    +0.000 C 
ATOM     13  C   UNL     1      35.515 -17.455 -21.891  0.00  0.00    +0.000 C 
ATOM     14  C   UNL     1      35.257 -17.706 -23.238  0.00  0.00    +0.000 C 
ENDBRANCH   4   9
BRANCH   6  15
ATOM     15  O   UNL     1      36.386 -21.252 -19.991  0.00  0.00    -0.471 OA
ATOM     16  C   UNL     1      37.250 -20.703 -18.997  0.00  0.00    +0.252 C 
ENDBRANCH   6  15
ENDBRANCH   1   3
BRANCH   1  17
ATOM     17  C   UNL     1      33.889 -23.516 -16.248  0.00  0.00    -0.087 C 
ATOM     18  C   UNL     1      34.679 -23.638 -15.351  0.00  0.00    -0.076 C 
BRANCH  18  23
ATOM     19  N   UNL     1      37.832 -23.455 -13.402  0.00  0.00    -0.336 NA
ATOM     20  N   UNL     1      36.153 -24.546 -12.061  0.00  0.00    -0.317 NA
ATOM     21  N   UNL     1      33.970 -24.883 -12.905  0.00  0.00    -0.334 N 
ATOM     22  N   UNL     1      38.323 -24.204 -11.233  0.00  0.00    -0.283 N 
ATOM     23  C   UNL     1      35.616 -23.789 -14.281  0.00  0.00    +0.179 C 
ATOM     24  C   UNL     1      36.915 -23.335 -14.384  0.00  0.00    +0.120 C 
ATOM     25  C   UNL     1      35.288 -24.391 -13.084  0.00  0.00    +0.186 C 
ATOM     26  C   UNL     1      37.398 -22.663 -15.630  0.00  0.00    +0.064 C 
ATOM     27  C   UNL     1      37.390 -24.061 -12.284  0.00  0.00    +0.196 C 
ATOM     28  H   UNL     1      33.717 -25.317 -12.058  0.00  0.00    +0.144 HD
ATOM     29  H   UNL     1      33.309 -24.791 -13.629  0.00  0.00    +0.144 HD
ATOM     30  H   UNL     1      39.241 -23.868 -11.342  0.00  0.00    +0.156 HD
ATOM     31  H   UNL     1      38.054 -24.640 -10.392  0.00  0.00    +0.156 HD
ENDBRANCH  18  23
ENDBRANCH   1  17
TORSDOF 5
ENDMDL
MODEL 2
REMARK VINA RESULT:     -11.4      4.635      7.363
REMARK  Name = 25195365
REMARK  5 active torsions:
REMARK  status: ('A' for Active; 'I' for Inactive)
REMARK    1  A    between atoms: C_1  and  C_3
REMARK    2  A    between atoms: C_1  and  C_17
REMARK    3  A    between atoms: C_4  and  C_9
REMARK    4  A    between atoms: C_6  and  O_15
REMARK    5  A    between atoms: C_18  and  C_23
REMARK                            x       y       z     vdW  Elec       q    Type
REMARK                         _______ _______ _______ _____ _____    ______ ____
ROOT
ATOM      1  C   UNL     1      35.541 -18.047 -22.563  0.00  0.00    +0.086 C 
ATOM      2  C   UNL     1      35.307 -18.594 -23.984  0.00  0.00    +0.019 C 
ENDROOT
BRANCH   1   3
ATOM      3  C   UNL     1      34.857 -16.743 -22.326  0.00  0.00    -0.007 C 
ATOM      4  C   UNL     1      33.578 -14.305 -21.880  0.00  0.00    +0.034 C 
ATOM      5  C   UNL     1      34.265 -16.062 -23.389  0.00  0.00    +0.034 C 
ATOM      6  C   UNL     1      33.625 -14.842 -23.166  0.00  0.00    +0.138 C 
ATOM      7  C   UNL     1      34.810 -16.205 -21.040  0.00  0.00    -0.003 C 
ATOM      8  C   UNL     1      34.171 -14.986 -20.817  0.00  0.00    +0.003 C 
BRANCH   4   9
ATOM      9  C   UNL     1      32.920 -13.041 -21.627  0.00  0.00    +0.003 C 
ATOM     10  C   UNL     1      32.291 -12.814 -20.403  0.00  0.00    +0.000 C 
ATOM     11  C   UNL     1      32.916 -12.048 -22.607  0.00  0.00    +0.000 C 
ATOM     12  C   UNL     1      31.658 -11.596 -20.159  0.00  0.00    +0.000 C 
ATOM     13  C   UNL     1      32.282 -10.829 -22.363  0.00  0.00    +0.000 C 
ATOM     14  C   UNL     1      31.654 -10.604 -21.139  0.00  0.00    +0.000 C 
ENDBRANCH   4   9
BRANCH   6  15
ATOM     15  O   UNL     1      33.053 -14.198 -24.223  0.00  0.00    -0.471 OA
ATOM     16  C   UNL     1      33.427 -14.638 -25.528  0.00  0.00    +0.252 C 
ENDBRANCH   6  15
ENDBRANCH   1   3
BRANCH   1  17
ATOM     17  C   UNL     1      35.152 -19.077 -21.565  0.00  0.00    -0.087 C 
ATOM     18  C   UNL     1      34.827 -19.921 -20.774  0.00  0.00    -0.076 C 
BRANCH  18  23
ATOM     19  N   UNL     1      35.052 -22.608 -18.224  0.00  0.00    -0.336 NA
ATOM     20  N   UNL     1      32.729 -22.196 -18.714  0.00  0.00    -0.317 NA
ATOM     21  N   UNL     1      32.105 -20.552 -20.296  0.00  0.00    -0.334 N 
ATOM     22  N   UNL     1      33.360 -23.825 -17.146  0.00  0.00    -0.283 N 
ATOM     23  C   UNL     1      34.439 -20.930 -19.837  0.00  0.00    +0.179 C 
ATOM     24  C   UNL     1      35.371 -21.648 -19.117  0.00  0.00    +0.120 C 
ATOM     25  C   UNL     1      33.120 -21.250 -19.592  0.00  0.00    +0.186 C 
ATOM     26  C   UNL     1      36.836 -21.399 -19.290  0.00  0.00    +0.064 C 
ATOM     27  C   UNL     1      33.732 -22.827 -18.074  0.00  0.00    +0.196 C 
ATOM     28  H   UNL     1      31.158 -20.766 -20.134  0.00  0.00    +0.144 HD
ATOM     29  H   UNL     1      32.349 -19.854 -20.946  0.00  0.00    +0.144 HD
ATOM     30  H   UNL     1      34.052 -24.318 -16.650  0.00  0.00    +0.156 HD
ATOM     31  H   UNL     1      32.408 -24.027 -16.996  0.00  0.00    +0.156 HD
ENDBRANCH  18  23
ENDBRANCH   1  17
TORSDOF 5
ENDMDL
MODEL 3
REMARK VINA RESULT:     -10.9      4.414      7.359
REMARK  Name = 25195365
REMARK  5 active torsions:
REMARK  status: ('A' for Active; 'I' for Inactive)
REMARK    1  A    between atoms: C_1  and  C_3
REMARK    2  A    between atoms: C_1  and  C_17
REMARK    3  A    between atoms: C_4  and  C_9
REMARK    4  A    between atoms: C_6  and  O_15
REMARK    5  A    between atoms: C_18  and  C_23
REMARK                            x       y       z     vdW  Elec       q    Type
REMARK                         _______ _______ _______ _____ _____    ______ ____
ROOT
ATOM      1  C   UNL     1      35.660 -18.113 -22.494  0.00  0.00    +0.086 C 
ATOM      2  C   UNL     1      35.450 -18.668 -23.916  0.00  0.00    +0.019 C 
ENDROOT
BRANCH   1   3
ATOM      3  C   UNL     1      34.956 -16.817 -22.269  0.00  0.00    -0.007 C 
ATOM      4  C   UNL     1      33.639 -14.395 -21.848  0.00  0.00    +0.034 C 
ATOM      5  C   UNL     1      34.400 -16.129 -23.348  0.00  0.00    +0.034 C 
ATOM      6  C   UNL     1      33.742 -14.917 -23.137  0.00  0.00    +0.138 C 
ATOM      7  C   UNL     1      34.853 -16.294 -20.981  0.00  0.00    -0.003 C 
ATOM      8  C   UNL     1      34.195 -15.083 -20.770  0.00  0.00    +0.003 C 
BRANCH   4   9
ATOM      9  C   UNL     1      32.961 -13.139 -21.608  0.00  0.00    +0.003 C 
ATOM     10  C   UNL     1      32.350 -12.901 -20.376  0.00  0.00    +0.000 C 
ATOM     11  C   UNL     1      32.919 -12.166 -22.606  0.00  0.00    +0.000 C 
ATOM     12  C   UNL     1      31.697 -11.690 -20.144  0.00  0.00    +0.000 C 
ATOM     13  C   UNL     1      32.266 -10.955 -22.374  0.00  0.00    +0.000 C 
ATOM     14  C   UNL     1      31.656 -10.718 -21.143  0.00  0.00    +0.000 C 
ENDBRANCH   4   9
BRANCH   6  15
ATOM     15  O   UNL     1      33.206 -14.266 -24.209  0.00  0.00    -0.471 OA
ATOM     16  C   UNL     1      33.457 -14.825 -25.497  0.00  0.00    +0.252 C 
ENDBRANCH   6  15
ENDBRANCH   1   3
BRANCH   1  17
ATOM     17  C   UNL     1      35.273 -19.144 -21.496  0.00  0.00    -0.087 C 
ATOM     18  C   UNL     1      34.942 -19.984 -20.704  0.00  0.00    -0.076 C 
BRANCH  18  23
ATOM     19  N   UNL     1      32.800 -22.199 -18.634  0.00  0.00    -0.336 NA
ATOM     20  N   UNL     1      35.112 -22.699 -18.169  0.00  0.00    -0.317 NA
ATOM     21  N   UNL     1      36.843 -21.522 -19.269  0.00  0.00    -0.334 N 
ATOM     22  N   UNL     1      33.384 -23.860 -17.084  0.00  0.00    -0.283 N 
ATOM     23  C   UNL     1      34.547 -20.989 -19.765  0.00  0.00    +0.179 C 
ATOM     24  C   UNL     1      33.219 -21.262 -19.510  0.00  0.00    +0.120 C 
ATOM     25  C   UNL     1      35.458 -21.746 -19.059  0.00  0.00    +0.186 C 
ATOM     26  C   UNL     1      32.131 -20.510 -20.209  0.00  0.00    +0.064 C 
ATOM     27  C   UNL     1      33.785 -22.870 -18.008  0.00  0.00    +0.196 C 
ATOM     28  H   UNL     1      37.508 -22.052 -18.774  0.00  0.00    +0.144 HD
ATOM     29  H   UNL     1      37.137 -20.835 -19.910  0.00  0.00    +0.144 HD
ATOM     30  H   UNL     1      32.428 -24.028 -16.927  0.00  0.00    +0.156 HD
ATOM     31  H   UNL     1      34.063 -24.383 -16.597  0.00  0.00    +0.156 HD
ENDBRANCH  18  23
ENDBRANCH   1  17
TORSDOF 5
ENDMDL
MODEL 4
REMARK VINA RESULT:     -10.6      4.171      6.884
REMARK  Name = 25195365
REMARK  5 active torsions:
REMARK  status: ('A' for Active; 'I' for Inactive)
REMARK    1  A    between atoms: C_1  and  C_3
REMARK    2  A    between atoms: C_1  and  C_17
REMARK    3  A    between atoms: C_4  and  C_9
REMARK    4  A    between atoms: C_6  and  O_15
REMARK    5  A    between atoms: C_18  and  C_23
REMARK                            x       y       z     vdW  Elec       q    Type
REMARK                         _______ _______ _______ _____ _____    ______ ____
ROOT
ATOM      1  C   UNL     1      35.438 -18.933 -23.249  0.00  0.00    +0.086 C 
ATOM      2  C   UNL     1      34.963 -19.667 -24.518  0.00  0.00    +0.019 C 
ENDROOT
BRANCH   1   3
ATOM      3  C   UNL     1      34.927 -17.535 -23.164  0.00  0.00    -0.007 C 
ATOM      4  C   UNL     1      33.971 -14.919 -23.006  0.00  0.00    +0.034 C 
ATOM      5  C   UNL     1      35.067 -16.811 -21.980  0.00  0.00    +0.034 C 
ATOM      6  C   UNL     1      34.589 -15.503 -21.900  0.00  0.00    +0.138 C 
ATOM      7  C   UNL     1      34.309 -16.950 -24.269  0.00  0.00    -0.003 C 
ATOM      8  C   UNL     1      33.832 -15.642 -24.191  0.00  0.00    +0.003 C 
BRANCH   4   9
ATOM      9  C   UNL     1      33.468 -13.564 -22.945  0.00  0.00    +0.003 C 
ATOM     10  C   UNL     1      32.329 -13.276 -22.191  0.00  0.00    +0.000 C 
ATOM     11  C   UNL     1      34.120 -12.545 -23.640  0.00  0.00    +0.000 C 
ATOM     12  C   UNL     1      31.844 -11.970 -22.132  0.00  0.00    +0.000 C 
ATOM     13  C   UNL     1      33.634 -11.238 -23.580  0.00  0.00    +0.000 C 
ATOM     14  C   UNL     1      32.496 -10.952 -22.826  0.00  0.00    +0.000 C 
ENDBRANCH   4   9
BRANCH   6  15
ATOM     15  O   UNL     1      34.740 -14.819 -20.731  0.00  0.00    -0.471 OA
ATOM     16  C   UNL     1      33.976 -15.269 -19.614  0.00  0.00    +0.252 C 
ENDBRANCH   6  15
ENDBRANCH   1   3
BRANCH   1  17
ATOM     17  C   UNL     1      35.085 -19.736 -22.050  0.00  0.00    -0.087 C 
ATOM     18  C   UNL     1      34.779 -20.390 -21.089  0.00  0.00    -0.076 C 
BRANCH  18  23
ATOM     19  N   UNL     1      35.057 -22.526 -18.067  0.00  0.00    -0.336 NA
ATOM     20  N   UNL     1      32.725 -22.102 -18.507  0.00  0.00    -0.317 NA
ATOM     21  N   UNL     1      32.070 -20.775 -20.351  0.00  0.00    -0.334 N 
ATOM     22  N   UNL     1      33.388 -23.418 -16.679  0.00  0.00    -0.283 N 
ATOM     23  C   UNL     1      34.411 -21.172 -19.950  0.00  0.00    +0.179 C 
ATOM     24  C   UNL     1      35.357 -21.780 -19.150  0.00  0.00    +0.120 C 
ATOM     25  C   UNL     1      33.098 -21.370 -19.576  0.00  0.00    +0.186 C 
ATOM     26  C   UNL     1      36.817 -21.644 -19.447  0.00  0.00    +0.064 C 
ATOM     27  C   UNL     1      33.741 -22.644 -17.807  0.00  0.00    +0.196 C 
ATOM     28  H   UNL     1      31.127 -20.905 -20.100  0.00  0.00    +0.144 HD
ATOM     29  H   UNL     1      32.300 -20.233 -21.140  0.00  0.00    +0.144 HD
ATOM     30  H   UNL     1      34.090 -23.836 -16.131  0.00  0.00    +0.156 HD
ATOM     31  H   UNL     1      32.440 -23.537 -16.441  0.00  0.00    +0.156 HD
ENDBRANCH  18  23
ENDBRANCH   1  17
TORSDOF 5
ENDMDL
MODEL 5
REMARK VINA RESULT:     -10.5      4.691      8.685
REMARK  Name = 25195365
REMARK  5 active torsions:
REMARK  status: ('A' for Active; 'I' for Inactive)
REMARK    1  A    between atoms: C_1  and  C_3
REMARK    2  A    between atoms: C_1  and  C_17
REMARK    3  A    between atoms: C_4  and  C_9
REMARK    4  A    between atoms: C_6  and  O_15
REMARK    5  A    between atoms: C_18  and  C_23
REMARK                            x       y       z     vdW  Elec       q    Type
REMARK                         _______ _______ _______ _____ _____    ______ ____
ROOT
ATOM      1  C   UNL     1      36.345 -22.284 -17.553  0.00  0.00    +0.086 C 
ATOM      2  C   UNL     1      37.233 -21.544 -16.534  0.00  0.00    +0.019 C 
ENDROOT
BRANCH   1   3
ATOM      3  C   UNL     1      35.073 -22.782 -16.957  0.00  0.00    -0.007 C 
ATOM      4  C   UNL     1      32.690 -23.713 -15.843  0.00  0.00    +0.034 C 
ATOM      5  C   UNL     1      35.016 -23.104 -15.601  0.00  0.00    +0.034 C 
ATOM      6  C   UNL     1      33.824 -23.570 -15.044  0.00  0.00    +0.138 C 
ATOM      7  C   UNL     1      33.938 -22.927 -17.756  0.00  0.00    -0.003 C 
ATOM      8  C   UNL     1      32.747 -23.391 -17.199  0.00  0.00    +0.003 C 
BRANCH   4   9
ATOM      9  C   UNL     1      31.445 -24.195 -15.286  0.00  0.00    +0.003 C 
ATOM     10  C   UNL     1      31.457 -25.199 -14.316  0.00  0.00    +0.000 C 
ATOM     11  C   UNL     1      30.232 -23.657 -15.717  0.00  0.00    +0.000 C 
ATOM     12  C   UNL     1      30.257 -25.663 -13.778  0.00  0.00    +0.000 C 
ATOM     13  C   UNL     1      29.032 -24.122 -15.179  0.00  0.00    +0.000 C 
ATOM     14  C   UNL     1      29.045 -25.125 -14.210  0.00  0.00    +0.000 C 
ENDBRANCH   4   9
BRANCH   6  15
ATOM     15  O   UNL     1      33.796 -23.875 -13.715  0.00  0.00    -0.471 OA
ATOM     16  C   UNL     1      35.035 -24.238 -13.109  0.00  0.00    +0.252 C 
ENDBRANCH   6  15
ENDBRANCH   1   3
BRANCH   1  17
ATOM     17  C   UNL     1      36.111 -21.412 -18.733  0.00  0.00    -0.087 C 
ATOM     18  C   UNL     1      35.900 -20.707 -19.682  0.00  0.00    -0.076 C 
BRANCH  18  23
ATOM     19  N   UNL     1      34.092 -18.967 -22.418  0.00  0.00    -0.336 NA
ATOM     20  N   UNL     1      36.411 -18.314 -22.482  0.00  0.00    -0.317 NA
ATOM     21  N   UNL     1      37.950 -19.184 -20.911  0.00  0.00    -0.334 N 
ATOM     22  N   UNL     1      34.874 -17.458 -24.035  0.00  0.00    -0.283 N 
ATOM     23  C   UNL     1      35.642 -19.864 -20.809  0.00  0.00    +0.179 C 
ATOM     24  C   UNL     1      34.381 -19.749 -21.357  0.00  0.00    +0.120 C 
ATOM     25  C   UNL     1      36.628 -19.116 -21.419  0.00  0.00    +0.186 C 
ATOM     26  C   UNL     1      33.224 -20.508 -20.790  0.00  0.00    +0.064 C 
ATOM     27  C   UNL     1      35.139 -18.288 -22.923  0.00  0.00    +0.196 C 
ATOM     28  H   UNL     1      38.667 -18.658 -21.332  0.00  0.00    +0.144 HD
ATOM     29  H   UNL     1      38.150 -19.758 -20.136  0.00  0.00    +0.144 HD
ATOM     30  H   UNL     1      33.963 -17.400 -24.399  0.00  0.00    +0.156 HD
ATOM     31  H   UNL     1      35.603 -16.937 -24.445  0.00  0.00    +0.156 HD
ENDBRANCH  18  23
ENDBRANCH   1  17
TORSDOF 5
ENDMDL
MODEL 6
REMARK VINA RESULT:     -10.3      5.015      8.194
REMARK  Name = 25195365
REMARK  5 active torsions:
REMARK  status: ('A' for Active; 'I' for Inactive)
REMARK    1  A    between atoms: C_1  and  C_3
REMARK    2  A    between atoms: C_1  and  C_17
REMARK    3  A    between atoms: C_4  and  C_9
REMARK    4  A    between atoms: C_6  and  O_15
REMARK    5  A    between atoms: C_18  and  C_23
REMARK                            x       y       z     vdW  Elec       q    Type
REMARK                         _______ _______ _______ _____ _____    ______ ____
ROOT
ATOM      1  C   UNL     1      34.444 -17.606 -24.353  0.00  0.00    +0.086 C 
ATOM      2  C   UNL     1      33.265 -18.332 -25.028  0.00  0.00    +0.019 C 
ENDROOT
BRANCH   1   3
ATOM      3  C   UNL     1      34.144 -16.178 -24.044  0.00  0.00    -0.007 C 
ATOM      4  C   UNL     1      33.583 -13.507 -23.469  0.00  0.00    +0.034 C 
ATOM      5  C   UNL     1      34.444 -15.658 -22.785  0.00  0.00    +0.034 C 
ATOM      6  C   UNL     1      34.163 -14.322 -22.497  0.00  0.00    +0.138 C 
ATOM      7  C   UNL     1      33.564 -15.362 -25.015  0.00  0.00    -0.003 C 
ATOM      8  C   UNL     1      33.283 -14.027 -24.728  0.00  0.00    +0.003 C 
BRANCH   4   9
ATOM      9  C   UNL     1      33.283 -12.119 -23.190  0.00  0.00    +0.003 C 
ATOM     10  C   UNL     1      34.179 -11.121 -23.574  0.00  0.00    +0.000 C 
ATOM     11  C   UNL     1      32.098 -11.778 -22.539  0.00  0.00    +0.000 C 
ATOM     12  C   UNL     1      33.890  -9.783 -23.307  0.00  0.00    +0.000 C 
ATOM     13  C   UNL     1      31.809 -10.440 -22.271  0.00  0.00    +0.000 C 
ATOM     14  C   UNL     1      32.705  -9.443 -22.655  0.00  0.00    +0.000 C 
ENDBRANCH   4   9
BRANCH   6  15
ATOM     15  O   UNL     1      34.468 -13.840 -21.259  0.00  0.00    -0.471 OA
ATOM     16  C   UNL     1      34.458 -14.773 -20.180  0.00  0.00    +0.252 C 
ENDBRANCH   6  15
ENDBRANCH   1   3
BRANCH   1  17
ATOM     17  C   UNL     1      34.870 -18.365 -23.148  0.00  0.00    -0.087 C 
ATOM     18  C   UNL     1      35.195 -18.991 -22.176  0.00  0.00    -0.076 C 
BRANCH  18  23
ATOM     19  N   UNL     1      34.981 -21.210 -19.208  0.00  0.00    -0.336 NA
ATOM     20  N   UNL     1      37.262 -20.473 -19.464  0.00  0.00    -0.317 NA
ATOM     21  N   UNL     1      37.869 -19.031 -21.238  0.00  0.00    -0.334 N 
ATOM     22  N   UNL     1      36.647 -21.904 -17.708  0.00  0.00    -0.283 N 
ATOM     23  C   UNL     1      35.578 -19.742 -21.020  0.00  0.00    +0.179 C 
ATOM     24  C   UNL     1      34.665 -20.487 -20.302  0.00  0.00    +0.120 C 
ATOM     25  C   UNL     1      36.874 -19.773 -20.550  0.00  0.00    +0.186 C 
ATOM     26  C   UNL     1      33.226 -20.537 -20.707  0.00  0.00    +0.064 C 
ATOM     27  C   UNL     1      36.278 -21.159 -18.850  0.00  0.00    +0.196 C 
ATOM     28  H   UNL     1      38.799 -19.041 -20.917  0.00  0.00    +0.144 HD
ATOM     29  H   UNL     1      37.627 -18.507 -22.035  0.00  0.00    +0.144 HD
ATOM     30  H   UNL     1      35.969 -22.424 -17.221  0.00  0.00    +0.156 HD
ATOM     31  H   UNL     1      37.582 -21.904 -17.401  0.00  0.00    +0.156 HD
ENDBRANCH  18  23
ENDBRANCH   1  17
TORSDOF 5
ENDMDL
MODEL 7
REMARK VINA RESULT:     -10.1      5.107      8.995
REMARK  Name = 25195365
REMARK  5 active torsions:
REMARK  status: ('A' for Active; 'I' for Inactive)
REMARK    1  A    between atoms: C_1  and  C_3
REMARK    2  A    between atoms: C_1  and  C_17
REMARK    3  A    between atoms: C_4  and  C_9
REMARK    4  A    between atoms: C_6  and  O_15
REMARK    5  A    between atoms: C_18  and  C_23
REMARK                            x       y       z     vdW  Elec       q    Type
REMARK                         _______ _______ _______ _____ _____    ______ ____
ROOT
ATOM      1  C   UNL     1      35.886 -21.603 -19.766  0.00  0.00    +0.086 C 
ATOM      2  C   UNL     1      37.142 -21.202 -18.969  0.00  0.00    +0.019 C 
ENDROOT
BRANCH   1   3
ATOM      3  C   UNL     1      34.752 -22.018 -18.890  0.00  0.00    -0.007 C 
ATOM      4  C   UNL     1      32.632 -22.792 -17.251  0.00  0.00    +0.034 C 
ATOM      5  C   UNL     1      35.001 -22.735 -17.720  0.00  0.00    +0.034 C 
ATOM      6  C   UNL     1      33.940 -23.123 -16.900  0.00  0.00    +0.138 C 
ATOM      7  C   UNL     1      33.443 -21.688 -19.240  0.00  0.00    -0.003 C 
ATOM      8  C   UNL     1      32.383 -22.075 -18.422  0.00  0.00    +0.003 C 
BRANCH   4   9
ATOM      9  C   UNL     1      31.517 -23.185 -16.416  0.00  0.00    +0.003 C 
ATOM     10  C   UNL     1      30.236 -22.707 -16.692  0.00  0.00    +0.000 C 
ATOM     11  C   UNL     1      31.723 -24.043 -15.335  0.00  0.00    +0.000 C 
ATOM     12  C   UNL     1      29.161 -23.086 -15.888  0.00  0.00    +0.000 C 
ATOM     13  C   UNL     1      30.648 -24.421 -14.531  0.00  0.00    +0.000 C 
ATOM     14  C   UNL     1      29.368 -23.943 -14.808  0.00  0.00    +0.000 C 
ENDBRANCH   4   9
BRANCH   6  15
ATOM     15  O   UNL     1      34.212 -23.822 -15.762  0.00  0.00    -0.471 OA
ATOM     16  C   UNL     1      35.527 -23.697 -15.224  0.00  0.00    +0.252 C 
ENDBRANCH   6  15
ENDBRANCH   1   3
BRANCH   1  17
ATOM     17  C   UNL     1      35.510 -20.500 -20.688  0.00  0.00    -0.087 C 
ATOM     18  C   UNL     1      35.229 -19.602 -21.436  0.00  0.00    -0.076 C 
BRANCH  18  23
ATOM     19  N   UNL     1      34.251 -17.795 -24.526  0.00  0.00    -0.336 NA
ATOM     20  N   UNL     1      34.585 -16.189 -22.760  0.00  0.00    -0.317 NA
ATOM     21  N   UNL     1      35.223 -16.896 -20.596  0.00  0.00    -0.334 N 
ATOM     22  N   UNL     1      33.951 -15.500 -24.913  0.00  0.00    -0.283 N 
ATOM     23  C   UNL     1      34.900 -18.535 -22.330  0.00  0.00    +0.179 C 
ATOM     24  C   UNL     1      34.568 -18.769 -23.648  0.00  0.00    +0.120 C 
ATOM     25  C   UNL     1      34.892 -17.213 -21.938  0.00  0.00    +0.186 C 
ATOM     26  C   UNL     1      34.540 -20.159 -24.199  0.00  0.00    +0.064 C 
ATOM     27  C   UNL     1      34.279 -16.547 -24.022  0.00  0.00    +0.196 C 
ATOM     28  H   UNL     1      35.223 -15.958 -20.297  0.00  0.00    +0.144 HD
ATOM     29  H   UNL     1      35.453 -17.614 -19.963  0.00  0.00    +0.144 HD
ATOM     30  H   UNL     1      33.719 -15.704 -25.847  0.00  0.00    +0.156 HD
ATOM     31  H   UNL     1      33.955 -14.567 -24.598  0.00  0.00    +0.156 HD
ENDBRANCH  18  23
ENDBRANCH   1  17
TORSDOF 5
ENDMDL
MODEL 8
REMARK VINA RESULT:     -10.0      5.937      9.594
REMARK  Name = 25195365
REMARK  5 active torsions:
REMARK  status: ('A' for Active; 'I' for Inactive)
REMARK    1  A    between atoms: C_1  and  C_3
REMARK    2  A    between atoms: C_1  and  C_17
REMARK    3  A    between atoms: C_4  and  C_9
REMARK    4  A    between atoms: C_6  and  O_15
REMARK    5  A    between atoms: C_18  and  C_23
REMARK                            x       y       z     vdW  Elec       q    Type
REMARK                         _______ _______ _______ _____ _____    ______ ____
ROOT
ATOM      1  C   UNL     1      36.156 -19.281 -21.949  0.00  0.00    +0.086 C 
ATOM      2  C   UNL     1      37.651 -19.062 -21.649  0.00  0.00    +0.019 C 
ENDROOT
BRANCH   1   3
ATOM      3  C   UNL     1      35.468 -20.087 -20.900  0.00  0.00    -0.007 C 
ATOM      4  C   UNL     1      34.180 -21.595 -18.938  0.00  0.00    +0.034 C 
ATOM      5  C   UNL     1      36.217 -20.802 -19.965  0.00  0.00    +0.034 C 
ATOM      6  C   UNL     1      35.573 -21.556 -18.984  0.00  0.00    +0.138 C 
ATOM      7  C   UNL     1      34.074 -20.127 -20.853  0.00  0.00    -0.003 C 
ATOM      8  C   UNL     1      33.430 -20.880 -19.872  0.00  0.00    +0.003 C 
BRANCH   4   9
ATOM      9  C   UNL     1      33.492 -22.371 -17.929  0.00  0.00    +0.003 C 
ATOM     10  C   UNL     1      32.106 -22.271 -17.795  0.00  0.00    +0.000 C 
ATOM     11  C   UNL     1      34.213 -23.221 -17.090  0.00  0.00    +0.000 C 
ATOM     12  C   UNL     1      31.443 -23.020 -16.824  0.00  0.00    +0.000 C 
ATOM     13  C   UNL     1      33.549 -23.969 -16.117  0.00  0.00    +0.000 C 
ATOM     14  C   UNL     1      32.165 -23.868 -15.985  0.00  0.00    +0.000 C 
ENDBRANCH   4   9
BRANCH   6  15
ATOM     15  O   UNL     1      36.330 -22.243 -18.082  0.00  0.00    -0.471 OA
ATOM     16  C   UNL     1      37.044 -21.474 -17.116  0.00  0.00    +0.252 C 
ENDBRANCH   6  15
ENDBRANCH   1   3
BRANCH   1  17
ATOM     17  C   UNL     1      35.496 -17.968 -22.173  0.00  0.00    -0.087 C 
ATOM     18  C   UNL     1      34.984 -16.897 -22.357  0.00  0.00    -0.076 C 
BRANCH  18  23
ATOM     19  N   UNL     1      33.534 -13.544 -21.703  0.00  0.00    -0.336 NA
ATOM     20  N   UNL     1      33.466 -13.971 -24.075  0.00  0.00    -0.317 NA
ATOM     21  N   UNL     1      34.291 -16.004 -24.956  0.00  0.00    -0.334 N 
ATOM     22  N   UNL     1      32.650 -11.956 -23.188  0.00  0.00    -0.283 N 
ATOM     23  C   UNL     1      34.380 -15.620 -22.580  0.00  0.00    +0.179 C 
ATOM     24  C   UNL     1      34.103 -14.756 -21.540  0.00  0.00    +0.120 C 
ATOM     25  C   UNL     1      34.036 -15.170 -23.837  0.00  0.00    +0.186 C 
ATOM     26  C   UNL     1      34.425 -15.125 -20.127  0.00  0.00    +0.064 C 
ATOM     27  C   UNL     1      33.246 -13.219 -22.978  0.00  0.00    +0.196 C 
ATOM     28  H   UNL     1      34.053 -15.700 -25.861  0.00  0.00    +0.144 HD
ATOM     29  H   UNL     1      34.706 -16.887 -24.825  0.00  0.00    +0.144 HD
ATOM     30  H   UNL     1      32.467 -11.366 -22.423  0.00  0.00    +0.156 HD
ATOM     31  H   UNL     1      32.418 -11.667 -24.100  0.00  0.00    +0.156 HD
ENDBRANCH  18  23
ENDBRANCH   1  17
TORSDOF 5
ENDMDL
MODEL 9
REMARK VINA RESULT:      -9.6     10.065     13.430
REMARK  Name = 25195365
REMARK  5 active torsions:
REMARK  status: ('A' for Active; 'I' for Inactive)
REMARK    1  A    between atoms: C_1  and  C_3
REMARK    2  A    between atoms: C_1  and  C_17
REMARK    3  A    between atoms: C_4  and  C_9
REMARK    4  A    between atoms: C_6  and  O_15
REMARK    5  A    between atoms: C_18  and  C_23
REMARK                            x       y       z     vdW  Elec       q    Type
REMARK                         _______ _______ _______ _____ _____    ______ ____
ROOT
ATOM      1  C   UNL     1      31.235 -10.936 -21.884  0.00  0.00    +0.086 C 
ATOM      2  C   UNL     1      31.213 -10.679 -20.365  0.00  0.00    +0.019 C 
ENDROOT
BRANCH   1   3
ATOM      3  C   UNL     1      31.720  -9.761 -22.663  0.00  0.00    -0.007 C 
ATOM      4  C   UNL     1      32.626  -7.563 -24.122  0.00  0.00    +0.034 C 
ATOM      5  C   UNL     1      33.088  -9.516 -22.777  0.00  0.00    +0.034 C 
ATOM      6  C   UNL     1      33.542  -8.416 -23.506  0.00  0.00    +0.138 C 
ATOM      7  C   UNL     1      30.805  -8.907 -23.279  0.00  0.00    -0.003 C 
ATOM      8  C   UNL     1      31.258  -7.808 -24.008  0.00  0.00    +0.003 C 
BRANCH   4   9
ATOM      9  C   UNL     1      33.075  -6.416 -24.882  0.00  0.00    +0.003 C 
ATOM     10  C   UNL     1      32.831  -5.126 -24.409  0.00  0.00    +0.000 C 
ATOM     11  C   UNL     1      33.753  -6.600 -26.087  0.00  0.00    +0.000 C 
ATOM     12  C   UNL     1      33.264  -4.021 -25.141  0.00  0.00    +0.000 C 
ATOM     13  C   UNL     1      34.186  -5.494 -26.820  0.00  0.00    +0.000 C 
ATOM     14  C   UNL     1      33.941  -4.205 -26.346  0.00  0.00    +0.000 C 
ENDBRANCH   4   9
BRANCH   6  15
ATOM     15  O   UNL     1      34.885  -8.201 -23.602  0.00  0.00    -0.471 OA
ATOM     16  C   UNL     1      35.686  -9.297 -24.038  0.00  0.00    +0.252 C 
ENDBRANCH   6  15
ENDBRANCH   1   3
BRANCH   1  17
ATOM     17  C   UNL     1      32.022 -12.164 -22.168  0.00  0.00    -0.087 C 
ATOM     18  C   UNL     1      32.672 -13.152 -22.380  0.00  0.00    -0.076 C 
BRANCH  18  23
ATOM     19  N   UNL     1      34.917 -16.052 -21.811  0.00  0.00    -0.336 NA
ATOM     20  N   UNL     1      34.244 -16.034 -24.125  0.00  0.00    -0.317 NA
ATOM     21  N   UNL     1      32.801 -14.349 -24.946  0.00  0.00    -0.334 N 
ATOM     22  N   UNL     1      35.675 -17.701 -23.299  0.00  0.00    -0.283 N 
ATOM     23  C   UNL     1      33.447 -14.329 -22.626  0.00  0.00    +0.179 C 
ATOM     24  C   UNL     1      34.172 -14.942 -21.626  0.00  0.00    +0.120 C 
ATOM     25  C   UNL     1      33.521 -14.925 -23.868  0.00  0.00    +0.186 C 
ATOM     26  C   UNL     1      34.178 -14.396 -20.234  0.00  0.00    +0.064 C 
ATOM     27  C   UNL     1      34.907 -16.538 -23.067  0.00  0.00    +0.196 C 
ATOM     28  H   UNL     1      32.841 -14.760 -25.840  0.00  0.00    +0.144 HD
ATOM     29  H   UNL     1      32.261 -13.539 -24.800  0.00  0.00    +0.144 HD
ATOM     30  H   UNL     1      36.180 -18.111 -22.562  0.00  0.00    +0.156 HD
ATOM     31  H   UNL     1      35.704 -18.100 -24.199  0.00  0.00    +0.156 HD
ENDBRANCH  18  23
ENDBRANCH   1  17
TORSDOF 5
ENDMDL
