MODEL 1
REMARK VINA RESULT:     -11.5      0.000      0.000
REMARK  Name = 11234049
REMARK  5 active torsions:
REMARK  status: ('A' for Active; 'I' for Inactive)
REMARK    1  A    between atoms: C_2  and  N_10
REMARK    2  A    between atoms: C_5  and  C_18
REMARK    3  A    between atoms: C_11  and  C_14
REMARK    4  A    between atoms: C_14  and  O_15
REMARK    5  A    between atoms: C_22  and  C_27
REMARK                            x       y       z     vdW  Elec       q    Type
REMARK                         _______ _______ _______ _____ _____    ______ ____
ROOT
ATOM      1  F   UNL     1      33.294 -22.956 -17.837  0.00  0.00    -0.204 F 
ATOM      2  C   UNL     1      36.024 -23.560 -15.508  0.00  0.00    +0.059 C 
ATOM      3  C   UNL     1      34.764 -23.620 -16.114  0.00  0.00    +0.045 C 
ATOM      4  C   UNL     1      37.023 -22.761 -16.071  0.00  0.00    +0.015 C 
ATOM      5  C   UNL     1      35.508 -22.089 -17.829  0.00  0.00    +0.029 C 
ATOM      6  C   UNL     1      34.507 -22.886 -17.272  0.00  0.00    +0.141 C 
ATOM      7  C   UNL     1      36.766 -22.028 -17.229  0.00  0.00    +0.004 C 
ENDROOT
BRANCH   2  10
ATOM      8  O   UNL     1      36.785 -25.993 -12.908  0.00  0.00    -0.434 OA
ATOM      9  O   UNL     1      36.741 -26.491 -15.120  0.00  0.00    -0.226 OA
ATOM     10  N   UNL     1      36.286 -24.309 -14.325  0.00  0.00    -0.221 N 
ATOM     11  C   UNL     1      36.788 -24.795 -12.120  0.00  0.00    +0.220 C 
ATOM     12  C   UNL     1      36.127 -23.762 -13.005  0.00  0.00    +0.148 C 
ATOM     13  C   UNL     1      36.620 -25.658 -14.233  0.00  0.00    +0.409 C 
BRANCH  11  14
ATOM     14  C   UNL     1      38.226 -24.446 -11.760  0.00  0.00    +0.183 C 
BRANCH  14  15
ATOM     15  O   UNL     1      38.258 -23.123 -11.252  0.00  0.00    -0.378 OA
ATOM     16  H   UNL     1      37.414 -22.924 -10.819  0.00  0.00    +0.211 HD
ENDBRANCH  14  15
ENDBRANCH  11  14
ENDBRANCH   2  10
BRANCH   5  18
ATOM     17  N   UNL     1      36.090 -19.928 -20.811  0.00  0.00    -0.234 NA
ATOM     18  C   UNL     1      35.246 -21.326 -19.031  0.00  0.00    +0.021 C 
ATOM     19  C   UNL     1      33.965 -21.245 -19.560  0.00  0.00    +0.004 C 
ATOM     20  C   UNL     1      36.266 -20.657 -19.685  0.00  0.00    +0.100 C 
ATOM     21  C   UNL     1      33.743 -20.504 -20.715  0.00  0.00    +0.029 C 
ATOM     22  C   UNL     1      34.829 -19.870 -21.297  0.00  0.00    +0.146 C 
BRANCH  22  27
ATOM     23  N   UNL     1      35.026 -17.812 -22.592  0.00  0.00    -0.105 NA
ATOM     24  N   UNL     1      34.657 -17.582 -23.859  0.00  0.00    -0.113 N 
ATOM     25  N   UNL     1      34.104 -19.605 -23.623  0.00  0.00    -0.085 NA
ATOM     26  N   UNL     1      34.106 -18.617 -24.509  0.00  0.00    -0.018 NA
ATOM     27  C   UNL     1      34.659 -19.091 -22.490  0.00  0.00    +0.092 C 
ATOM     28  C   UNL     1      34.840 -16.299 -24.486  0.00  0.00    +0.163 C 
ENDBRANCH  22  27
ENDBRANCH   5  18
TORSDOF 5
ENDMDL
MODEL 2
REMARK VINA RESULT:     -11.5      5.744      6.886
REMARK  Name = 11234049
REMARK  5 active torsions:
REMARK  status: ('A' for Active; 'I' for Inactive)
REMARK    1  A    between atoms: C_2  and  N_10
REMARK    2  A    between atoms: C_5  and  C_18
REMARK    3  A    between atoms: C_11  and  C_14
REMARK    4  A    between atoms: C_14  and  O_15
REMARK    5  A    between atoms: C_22  and  C_27
REMARK                            x       y       z     vdW  Elec       q    Type
REMARK                         _______ _______ _______ _____ _____    ______ ____
ROOT
ATOM      1  F   UNL     1      32.742 -23.540 -12.323  0.00  0.00    -0.204 F 
ATOM      2  C   UNL     1      35.778 -24.891 -13.806  0.00  0.00    +0.059 C 
ATOM      3  C   UNL     1      34.883 -24.372 -12.864  0.00  0.00    +0.045 C 
ATOM      4  C   UNL     1      35.359 -25.070 -15.128  0.00  0.00    +0.015 C 
ATOM      5  C   UNL     1      33.171 -24.218 -14.561  0.00  0.00    +0.029 C 
ATOM      6  C   UNL     1      33.584 -24.037 -13.240  0.00  0.00    +0.141 C 
ATOM      7  C   UNL     1      34.059 -24.736 -15.504  0.00  0.00    +0.004 C 
ENDROOT
BRANCH   2  10
ATOM      8  O   UNL     1      38.872 -26.143 -12.351  0.00  0.00    -0.434 OA
ATOM      9  O   UNL     1      36.809 -26.710 -11.598  0.00  0.00    -0.226 OA
ATOM     10  N   UNL     1      37.106 -25.233 -13.422  0.00  0.00    -0.221 N 
ATOM     11  C   UNL     1      39.403 -25.493 -13.513  0.00  0.00    +0.220 C 
ATOM     12  C   UNL     1      38.269 -24.622 -14.008  0.00  0.00    +0.148 C 
ATOM     13  C   UNL     1      37.496 -26.089 -12.395  0.00  0.00    +0.409 C 
BRANCH  11  14
ATOM     14  C   UNL     1      39.829 -26.554 -14.519  0.00  0.00    +0.183 C 
BRANCH  14  15
ATOM     15  O   UNL     1      40.184 -25.912 -15.732  0.00  0.00    -0.378 OA
ATOM     16  H   UNL     1      40.200 -26.565 -16.449  0.00  0.00    +0.211 HD
ENDBRANCH  14  15
ENDBRANCH  11  14
ENDBRANCH   2  10
BRANCH   5  18
ATOM     17  N   UNL     1      30.357 -22.693 -16.473  0.00  0.00    -0.234 NA
ATOM     18  C   UNL     1      31.822 -23.871 -14.957  0.00  0.00    +0.021 C 
ATOM     19  C   UNL     1      30.727 -24.349 -14.252  0.00  0.00    +0.004 C 
ATOM     20  C   UNL     1      31.590 -23.054 -16.050  0.00  0.00    +0.100 C 
ATOM     21  C   UNL     1      29.443 -23.999 -14.655  0.00  0.00    +0.029 C 
ATOM     22  C   UNL     1      29.313 -23.176 -15.762  0.00  0.00    +0.146 C 
BRANCH  22  27
ATOM     23  N   UNL     1      27.731 -22.532 -17.504  0.00  0.00    -0.105 NA
ATOM     24  N   UNL     1      26.434 -22.219 -17.382  0.00  0.00    -0.113 N 
ATOM     25  N   UNL     1      26.955 -22.629 -15.379  0.00  0.00    -0.085 NA
ATOM     26  N   UNL     1      25.931 -22.264 -16.140  0.00  0.00    -0.018 NA
ATOM     27  C   UNL     1      28.013 -22.781 -16.223  0.00  0.00    +0.092 C 
ATOM     28  C   UNL     1      25.627 -21.855 -18.517  0.00  0.00    +0.163 C 
ENDBRANCH  22  27
ENDBRANCH   5  18
TORSDOF 5
ENDMDL
MODEL 3
REMARK VINA RESULT:     -11.2      4.794     10.049
REMARK  Name = 11234049
REMARK  5 active torsions:
REMARK  status: ('A' for Active; 'I' for Inactive)
REMARK    1  A    between atoms: C_2  and  N_10
REMARK    2  A    between atoms: C_5  and  C_18
REMARK    3  A    between atoms: C_11  and  C_14
REMARK    4  A    between atoms: C_14  and  O_15
REMARK    5  A    between atoms: C_22  and  C_27
REMARK                            x       y       z     vdW  Elec       q    Type
REMARK                         _______ _______ _______ _____ _____    ______ ____
ROOT
ATOM      1  F   UNL     1      32.987 -21.205 -19.681  0.00  0.00    -0.204 F 
ATOM      2  C   UNL     1      35.000 -19.170 -21.928  0.00  0.00    +0.059 C 
ATOM      3  C   UNL     1      33.895 -19.800 -21.346  0.00  0.00    +0.045 C 
ATOM      4  C   UNL     1      36.270 -19.357 -21.373  0.00  0.00    +0.015 C 
ATOM      5  C   UNL     1      35.329 -20.792 -19.674  0.00  0.00    +0.029 C 
ATOM      6  C   UNL     1      34.059 -20.609 -20.223  0.00  0.00    +0.141 C 
ATOM      7  C   UNL     1      36.434 -20.165 -20.249  0.00  0.00    +0.004 C 
ENDROOT
BRANCH   2  10
ATOM      8  O   UNL     1      34.236 -17.588 -25.117  0.00  0.00    -0.434 OA
ATOM      9  O   UNL     1      33.593 -19.693 -24.573  0.00  0.00    -0.226 OA
ATOM     10  N   UNL     1      34.833 -18.344 -23.076  0.00  0.00    -0.221 N 
ATOM     11  C   UNL     1      34.770 -16.458 -24.414  0.00  0.00    +0.220 C 
ATOM     12  C   UNL     1      35.461 -17.057 -23.209  0.00  0.00    +0.148 C 
ATOM     13  C   UNL     1      34.161 -18.659 -24.254  0.00  0.00    +0.409 C 
BRANCH  11  14
ATOM     14  C   UNL     1      33.626 -15.522 -24.046  0.00  0.00    +0.183 C 
BRANCH  14  15
ATOM     15  O   UNL     1      32.914 -15.190 -25.225  0.00  0.00    -0.378 OA
ATOM     16  H   UNL     1      32.979 -14.236 -25.383  0.00  0.00    +0.211 HD
ENDBRANCH  14  15
ENDBRANCH  11  14
ENDBRANCH   2  10
BRANCH   5  18
ATOM     17  N   UNL     1      34.610 -23.317 -17.027  0.00  0.00    -0.234 NA
ATOM     18  C   UNL     1      35.504 -21.631 -18.507  0.00  0.00    +0.021 C 
ATOM     19  C   UNL     1      36.674 -21.581 -17.761  0.00  0.00    +0.004 C 
ATOM     20  C   UNL     1      34.510 -22.506 -18.105  0.00  0.00    +0.100 C 
ATOM     21  C   UNL     1      36.813 -22.399 -16.645  0.00  0.00    +0.029 C 
ATOM     22  C   UNL     1      35.761 -23.241 -16.323  0.00  0.00    +0.146 C 
BRANCH  22  27
ATOM     23  N   UNL     1      36.852 -24.966 -14.988  0.00  0.00    -0.105 NA
ATOM     24  N   UNL     1      36.457 -25.499 -13.824  0.00  0.00    -0.113 N 
ATOM     25  N   UNL     1      34.907 -24.117 -14.200  0.00  0.00    -0.085 NA
ATOM     26  N   UNL     1      35.308 -25.025 -13.319  0.00  0.00    -0.018 NA
ATOM     27  C   UNL     1      35.850 -24.107 -15.182  0.00  0.00    +0.092 C 
ATOM     28  C   UNL     1      37.218 -26.521 -13.154  0.00  0.00    +0.163 C 
ENDBRANCH  22  27
ENDBRANCH   5  18
TORSDOF 5
ENDMDL
MODEL 4
REMARK VINA RESULT:     -10.5      1.489      2.245
REMARK  Name = 11234049
REMARK  5 active torsions:
REMARK  status: ('A' for Active; 'I' for Inactive)
REMARK    1  A    between atoms: C_2  and  N_10
REMARK    2  A    between atoms: C_5  and  C_18
REMARK    3  A    between atoms: C_11  and  C_14
REMARK    4  A    between atoms: C_14  and  O_15
REMARK    5  A    between atoms: C_22  and  C_27
REMARK                            x       y       z     vdW  Elec       q    Type
REMARK                         _______ _______ _______ _____ _____    ______ ____
ROOT
ATOM      1  F   UNL     1      37.566 -20.711 -17.576  0.00  0.00    -0.204 F 
ATOM      2  C   UNL     1      35.930 -23.412 -15.767  0.00  0.00    +0.059 C 
ATOM      3  C   UNL     1      36.851 -22.417 -16.109  0.00  0.00    +0.045 C 
ATOM      4  C   UNL     1      34.825 -23.640 -16.593  0.00  0.00    +0.015 C 
ATOM      5  C   UNL     1      35.565 -21.892 -18.086  0.00  0.00    +0.029 C 
ATOM      6  C   UNL     1      36.670 -21.659 -17.265  0.00  0.00    +0.141 C 
ATOM      7  C   UNL     1      34.643 -22.882 -17.748  0.00  0.00    +0.004 C 
ENDROOT
BRANCH   2  10
ATOM      8  O   UNL     1      35.747 -25.276 -12.644  0.00  0.00    -0.434 OA
ATOM      9  O   UNL     1      33.974 -24.217 -13.581  0.00  0.00    -0.226 OA
ATOM     10  N   UNL     1      36.115 -24.187 -14.586  0.00  0.00    -0.221 N 
ATOM     11  C   UNL     1      37.067 -25.646 -13.064  0.00  0.00    +0.220 C 
ATOM     12  C   UNL     1      37.406 -24.655 -14.157  0.00  0.00    +0.148 C 
ATOM     13  C   UNL     1      35.157 -24.520 -13.633  0.00  0.00    +0.409 C 
BRANCH  11  14
ATOM     14  C   UNL     1      37.044 -27.089 -13.549  0.00  0.00    +0.183 C 
BRANCH  14  15
ATOM     15  O   UNL     1      38.246 -27.351 -14.252  0.00  0.00    -0.378 OA
ATOM     16  H   UNL     1      38.896 -27.738 -13.646  0.00  0.00    +0.211 HD
ENDBRANCH  14  15
ENDBRANCH  11  14
ENDBRANCH   2  10
BRANCH   5  18
ATOM     17  N   UNL     1      33.864 -20.226 -20.954  0.00  0.00    -0.234 NA
ATOM     18  C   UNL     1      35.373 -21.108 -19.287  0.00  0.00    +0.021 C 
ATOM     19  C   UNL     1      36.447 -20.497 -19.920  0.00  0.00    +0.004 C 
ATOM     20  C   UNL     1      34.113 -20.945 -19.836  0.00  0.00    +0.100 C 
ATOM     21  C   UNL     1      36.231 -19.750 -21.073  0.00  0.00    +0.029 C 
ATOM     22  C   UNL     1      34.932 -19.646 -21.545  0.00  0.00    +0.146 C 
BRANCH  22  27
ATOM     23  N   UNL     1      34.923 -17.588 -22.853  0.00  0.00    -0.105 NA
ATOM     24  N   UNL     1      34.478 -17.391 -24.102  0.00  0.00    -0.113 N 
ATOM     25  N   UNL     1      34.078 -19.445 -23.833  0.00  0.00    -0.085 NA
ATOM     26  N   UNL     1      33.969 -18.466 -24.721  0.00  0.00    -0.018 NA
ATOM     27  C   UNL     1      34.651 -18.888 -22.731  0.00  0.00    +0.092 C 
ATOM     28  C   UNL     1      34.542 -16.103 -24.741  0.00  0.00    +0.163 C 
ENDBRANCH  22  27
ENDBRANCH   5  18
TORSDOF 5
ENDMDL
MODEL 5
REMARK VINA RESULT:     -10.2      1.616      2.148
REMARK  Name = 11234049
REMARK  5 active torsions:
REMARK  status: ('A' for Active; 'I' for Inactive)
REMARK    1  A    between atoms: C_2  and  N_10
REMARK    2  A    between atoms: C_5  and  C_18
REMARK    3  A    between atoms: C_11  and  C_14
REMARK    4  A    between atoms: C_14  and  O_15
REMARK    5  A    between atoms: C_22  and  C_27
REMARK                            x       y       z     vdW  Elec       q    Type
REMARK                         _______ _______ _______ _____ _____    ______ ____
ROOT
ATOM      1  F   UNL     1      37.611 -21.490 -16.719  0.00  0.00    -0.204 F 
ATOM      2  C   UNL     1      35.707 -23.941 -14.819  0.00  0.00    +0.059 C 
ATOM      3  C   UNL     1      36.727 -23.060 -15.195  0.00  0.00    +0.045 C 
ATOM      4  C   UNL     1      34.582 -24.081 -15.638  0.00  0.00    +0.015 C 
ATOM      5  C   UNL     1      35.497 -22.473 -17.189  0.00  0.00    +0.029 C 
ATOM      6  C   UNL     1      36.623 -22.328 -16.376  0.00  0.00    +0.141 C 
ATOM      7  C   UNL     1      34.477 -23.348 -16.819  0.00  0.00    +0.004 C 
ENDROOT
BRANCH   2  10
ATOM      8  O   UNL     1      36.461 -26.199 -12.064  0.00  0.00    -0.434 OA
ATOM      9  O   UNL     1      37.512 -26.273 -14.072  0.00  0.00    -0.226 OA
ATOM     10  N   UNL     1      35.814 -24.690 -13.613  0.00  0.00    -0.221 N 
ATOM     11  C   UNL     1      35.594 -25.279 -11.386  0.00  0.00    +0.220 C 
ATOM     12  C   UNL     1      34.921 -24.507 -12.500  0.00  0.00    +0.148 C 
ATOM     13  C   UNL     1      36.681 -25.747 -13.346  0.00  0.00    +0.409 C 
BRANCH  11  14
ATOM     14  C   UNL     1      36.431 -24.400 -10.467  0.00  0.00    +0.183 C 
BRANCH  14  15
ATOM     15  O   UNL     1      35.912 -24.496  -9.152  0.00  0.00    -0.378 OA
ATOM     16  H   UNL     1      35.423 -23.687  -8.937  0.00  0.00    +0.211 HD
ENDBRANCH  14  15
ENDBRANCH  11  14
ENDBRANCH   2  10
BRANCH   5  18
ATOM     17  N   UNL     1      33.974 -20.776 -20.139  0.00  0.00    -0.234 NA
ATOM     18  C   UNL     1      35.384 -21.714 -18.418  0.00  0.00    +0.021 C 
ATOM     19  C   UNL     1      36.512 -21.205 -19.048  0.00  0.00    +0.004 C 
ATOM     20  C   UNL     1      34.149 -21.476 -18.995  0.00  0.00    +0.100 C 
ATOM     21  C   UNL     1      36.372 -20.480 -20.226  0.00  0.00    +0.029 C 
ATOM     22  C   UNL     1      35.093 -20.296 -20.726  0.00  0.00    +0.146 C 
BRANCH  22  27
ATOM     23  N   UNL     1      33.879 -19.788 -22.780  0.00  0.00    -0.105 NA
ATOM     24  N   UNL     1      34.152 -18.858 -23.706  0.00  0.00    -0.113 N 
ATOM     25  N   UNL     1      35.721 -18.551 -22.329  0.00  0.00    -0.085 NA
ATOM     26  N   UNL     1      35.235 -18.102 -23.479  0.00  0.00    -0.018 NA
ATOM     27  C   UNL     1      34.889 -19.556 -21.939  0.00  0.00    +0.092 C 
ATOM     28  C   UNL     1      33.332 -18.683 -24.876  0.00  0.00    +0.163 C 
ENDBRANCH  22  27
ENDBRANCH   5  18
TORSDOF 5
ENDMDL
MODEL 6
REMARK VINA RESULT:     -10.0      8.571     13.265
REMARK  Name = 11234049
REMARK  5 active torsions:
REMARK  status: ('A' for Active; 'I' for Inactive)
REMARK    1  A    between atoms: C_2  and  N_10
REMARK    2  A    between atoms: C_5  and  C_18
REMARK    3  A    between atoms: C_11  and  C_14
REMARK    4  A    between atoms: C_14  and  O_15
REMARK    5  A    between atoms: C_22  and  C_27
REMARK                            x       y       z     vdW  Elec       q    Type
REMARK                         _______ _______ _______ _____ _____    ______ ____
ROOT
ATOM      1  F   UNL     1      31.861 -13.617 -20.572  0.00  0.00    -0.204 F 
ATOM      2  C   UNL     1      32.555 -10.825 -22.802  0.00  0.00    +0.059 C 
ATOM      3  C   UNL     1      31.949 -11.613 -21.817  0.00  0.00    +0.045 C 
ATOM      4  C   UNL     1      33.674 -11.313 -23.482  0.00  0.00    +0.015 C 
ATOM      5  C   UNL     1      33.575 -13.358 -22.202  0.00  0.00    +0.029 C 
ATOM      6  C   UNL     1      32.457 -12.877 -21.518  0.00  0.00    +0.141 C 
ATOM      7  C   UNL     1      34.183 -12.576 -23.182  0.00  0.00    +0.004 C 
ENDROOT
BRANCH   2  10
ATOM      8  O   UNL     1      31.155  -7.466 -22.915  0.00  0.00    -0.434 OA
ATOM      9  O   UNL     1      31.508  -8.615 -20.993  0.00  0.00    -0.226 OA
ATOM     10  N   UNL     1      32.035  -9.535 -23.108  0.00  0.00    -0.221 N 
ATOM     11  C   UNL     1      31.545  -7.606 -24.288  0.00  0.00    +0.220 C 
ATOM     12  C   UNL     1      31.804  -9.087 -24.455  0.00  0.00    +0.148 C 
ATOM     13  C   UNL     1      31.581  -8.570 -22.212  0.00  0.00    +0.409 C 
BRANCH  11  14
ATOM     14  C   UNL     1      32.778  -6.750 -24.540  0.00  0.00    +0.183 C 
BRANCH  14  15
ATOM     15  O   UNL     1      32.683  -5.575 -23.753  0.00  0.00    -0.378 OA
ATOM     16  H   UNL     1      33.273  -5.650 -22.988  0.00  0.00    +0.211 HD
ENDBRANCH  14  15
ENDBRANCH  11  14
ENDBRANCH   2  10
BRANCH   5  18
ATOM     17  N   UNL     1      34.780 -16.283 -20.228  0.00  0.00    -0.234 NA
ATOM     18  C   UNL     1      34.106 -14.670 -21.894  0.00  0.00    +0.021 C 
ATOM     19  C   UNL     1      34.445 -15.557 -22.907  0.00  0.00    +0.004 C 
ATOM     20  C   UNL     1      34.290 -15.073 -20.583  0.00  0.00    +0.100 C 
ATOM     21  C   UNL     1      34.953 -16.810 -22.581  0.00  0.00    +0.029 C 
ATOM     22  C   UNL     1      35.101 -17.121 -21.239  0.00  0.00    +0.146 C 
BRANCH  22  27
ATOM     23  N   UNL     1      34.856 -19.473 -20.641  0.00  0.00    -0.105 NA
ATOM     24  N   UNL     1      35.807 -20.355 -20.305  0.00  0.00    -0.113 N 
ATOM     25  N   UNL     1      36.951 -18.615 -20.645  0.00  0.00    -0.085 NA
ATOM     26  N   UNL     1      37.064 -19.890 -20.295  0.00  0.00    -0.018 NA
ATOM     27  C   UNL     1      35.621 -18.399 -20.844  0.00  0.00    +0.092 C 
ATOM     28  C   UNL     1      35.498 -21.722 -19.974  0.00  0.00    +0.163 C 
ENDBRANCH  22  27
ENDBRANCH   5  18
TORSDOF 5
ENDMDL
MODEL 7
REMARK VINA RESULT:     -10.0      7.984     11.522
REMARK  Name = 11234049
REMARK  5 active torsions:
REMARK  status: ('A' for Active; 'I' for Inactive)
REMARK    1  A    between atoms: C_2  and  N_10
REMARK    2  A    between atoms: C_5  and  C_18
REMARK    3  A    between atoms: C_11  and  C_14
REMARK    4  A    between atoms: C_14  and  O_15
REMARK    5  A    between atoms: C_22  and  C_27
REMARK                            x       y       z     vdW  Elec       q    Type
REMARK                         _______ _______ _______ _____ _____    ______ ____
ROOT
ATOM      1  F   UNL     1      33.150 -13.119 -25.032  0.00  0.00    -0.204 F 
ATOM      2  C   UNL     1      34.276 -15.534 -22.554  0.00  0.00    +0.059 C 
ATOM      3  C   UNL     1      33.928 -14.964 -23.784  0.00  0.00    +0.045 C 
ATOM      4  C   UNL     1      34.169 -14.772 -21.387  0.00  0.00    +0.015 C 
ATOM      5  C   UNL     1      33.375 -12.890 -22.676  0.00  0.00    +0.029 C 
ATOM      6  C   UNL     1      33.479 -13.646 -23.845  0.00  0.00    +0.141 C 
ATOM      7  C   UNL     1      33.721 -13.453 -21.448  0.00  0.00    +0.004 C 
ENDROOT
BRANCH   2  10
ATOM      8  O   UNL     1      35.356 -18.974 -23.066  0.00  0.00    -0.434 OA
ATOM      9  O   UNL     1      34.678 -17.607 -24.743  0.00  0.00    -0.226 OA
ATOM     10  N   UNL     1      34.734 -16.881 -22.492  0.00  0.00    -0.221 N 
ATOM     11  C   UNL     1      35.719 -18.813 -21.688  0.00  0.00    +0.220 C 
ATOM     12  C   UNL     1      34.994 -17.560 -21.251  0.00  0.00    +0.148 C 
ATOM     13  C   UNL     1      34.900 -17.769 -23.553  0.00  0.00    +0.409 C 
BRANCH  11  14
ATOM     14  C   UNL     1      37.234 -18.695 -21.588  0.00  0.00    +0.183 C 
BRANCH  14  15
ATOM     15  O   UNL     1      37.633 -19.061 -20.278  0.00  0.00    -0.378 OA
ATOM     16  H   UNL     1      37.624 -18.277 -19.708  0.00  0.00    +0.211 HD
ENDBRANCH  14  15
ENDBRANCH  11  14
ENDBRANCH   2  10
BRANCH   5  18
ATOM     17  N   UNL     1      33.334  -9.221 -23.340  0.00  0.00    -0.234 NA
ATOM     18  C   UNL     1      32.909 -11.520 -22.734  0.00  0.00    +0.021 C 
ATOM     19  C   UNL     1      31.647 -11.176 -22.269  0.00  0.00    +0.004 C 
ATOM     20  C   UNL     1      33.709 -10.519 -23.256  0.00  0.00    +0.100 C 
ATOM     21  C   UNL     1      31.227  -9.852 -22.338  0.00  0.00    +0.029 C 
ATOM     22  C   UNL     1      32.100  -8.922 -22.877  0.00  0.00    +0.146 C 
BRANCH  22  27
ATOM     23  N   UNL     1      32.010  -6.770 -24.022  0.00  0.00    -0.105 NA
ATOM     24  N   UNL     1      31.447  -5.625 -23.610  0.00  0.00    -0.113 N 
ATOM     25  N   UNL     1      31.026  -6.906 -21.986  0.00  0.00    -0.085 NA
ATOM     26  N   UNL     1      30.853  -5.660 -22.408  0.00  0.00    -0.018 NA
ATOM     27  C   UNL     1      31.720  -7.541 -22.972  0.00  0.00    +0.092 C 
ATOM     28  C   UNL     1      31.480  -4.428 -24.409  0.00  0.00    +0.163 C 
ENDBRANCH  22  27
ENDBRANCH   5  18
TORSDOF 5
ENDMDL
MODEL 8
REMARK VINA RESULT:      -9.8      6.717      9.534
REMARK  Name = 11234049
REMARK  5 active torsions:
REMARK  status: ('A' for Active; 'I' for Inactive)
REMARK    1  A    between atoms: C_2  and  N_10
REMARK    2  A    between atoms: C_5  and  C_18
REMARK    3  A    between atoms: C_11  and  C_14
REMARK    4  A    between atoms: C_14  and  O_15
REMARK    5  A    between atoms: C_22  and  C_27
REMARK                            x       y       z     vdW  Elec       q    Type
REMARK                         _______ _______ _______ _____ _____    ______ ____
ROOT
ATOM      1  F   UNL     1      32.746 -25.056 -12.996  0.00  0.00    -0.204 F 
ATOM      2  C   UNL     1      30.523 -23.570 -15.464  0.00  0.00    +0.059 C 
ATOM      3  C   UNL     1      30.975 -24.192 -14.295  0.00  0.00    +0.045 C 
ATOM      4  C   UNL     1      31.442 -23.216 -16.456  0.00  0.00    +0.015 C 
ATOM      5  C   UNL     1      33.246 -24.103 -15.117  0.00  0.00    +0.029 C 
ATOM      6  C   UNL     1      32.333 -24.458 -14.122  0.00  0.00    +0.141 C 
ATOM      7  C   UNL     1      32.800 -23.481 -16.283  0.00  0.00    +0.004 C 
ENDROOT
BRANCH   2  10
ATOM      8  O   UNL     1      27.066 -22.426 -15.421  0.00  0.00    -0.434 OA
ATOM      9  O   UNL     1      28.676 -21.611 -14.048  0.00  0.00    -0.226 OA
ATOM     10  N   UNL     1      29.136 -23.299 -15.641  0.00  0.00    -0.221 N 
ATOM     11  C   UNL     1      27.032 -23.241 -16.601  0.00  0.00    +0.220 C 
ATOM     12  C   UNL     1      28.299 -24.064 -16.526  0.00  0.00    +0.148 C 
ATOM     13  C   UNL     1      28.360 -22.370 -14.952  0.00  0.00    +0.409 C 
BRANCH  11  14
ATOM     14  C   UNL     1      26.975 -22.336 -17.824  0.00  0.00    +0.183 C 
BRANCH  14  15
ATOM     15  O   UNL     1      26.403 -21.096 -17.444  0.00  0.00    -0.378 OA
ATOM     16  H   UNL     1      25.878 -20.744 -18.180  0.00  0.00    +0.211 HD
ENDBRANCH  14  15
ENDBRANCH  11  14
ENDBRANCH   2  10
BRANCH   5  18
ATOM     17  N   UNL     1      36.413 -25.994 -14.575  0.00  0.00    -0.234 NA
ATOM     18  C   UNL     1      34.657 -24.377 -14.941  0.00  0.00    +0.021 C 
ATOM     19  C   UNL     1      35.591 -23.351 -14.967  0.00  0.00    +0.004 C 
ATOM     20  C   UNL     1      35.111 -25.669 -14.744  0.00  0.00    +0.100 C 
ATOM     21  C   UNL     1      36.940 -23.645 -14.796  0.00  0.00    +0.029 C 
ATOM     22  C   UNL     1      37.295 -24.970 -14.605  0.00  0.00    +0.146 C 
BRANCH  22  27
ATOM     23  N   UNL     1      39.063 -26.464 -13.834  0.00  0.00    -0.105 NA
ATOM     24  N   UNL     1      40.390 -26.305 -13.921  0.00  0.00    -0.113 N 
ATOM     25  N   UNL     1      39.696 -24.536 -14.839  0.00  0.00    -0.085 NA
ATOM     26  N   UNL     1      40.811 -25.176 -14.510  0.00  0.00    -0.018 NA
ATOM     27  C   UNL     1      38.672 -25.331 -14.422  0.00  0.00    +0.092 C 
ATOM     28  C   UNL     1      41.312 -27.287 -13.412  0.00  0.00    +0.163 C 
ENDBRANCH  22  27
ENDBRANCH   5  18
TORSDOF 5
ENDMDL
MODEL 9
REMARK VINA RESULT:      -9.7      4.760      9.963
REMARK  Name = 11234049
REMARK  5 active torsions:
REMARK  status: ('A' for Active; 'I' for Inactive)
REMARK    1  A    between atoms: C_2  and  N_10
REMARK    2  A    between atoms: C_5  and  C_18
REMARK    3  A    between atoms: C_11  and  C_14
REMARK    4  A    between atoms: C_14  and  O_15
REMARK    5  A    between atoms: C_22  and  C_27
REMARK                            x       y       z     vdW  Elec       q    Type
REMARK                         _______ _______ _______ _____ _____    ______ ____
ROOT
ATOM      1  F   UNL     1      37.681 -20.070 -19.328  0.00  0.00    -0.204 F 
ATOM      2  C   UNL     1      35.161 -19.063 -21.753  0.00  0.00    +0.059 C 
ATOM      3  C   UNL     1      36.376 -19.147 -21.065  0.00  0.00    +0.045 C 
ATOM      4  C   UNL     1      34.080 -19.846 -21.338  0.00  0.00    +0.015 C 
ATOM      5  C   UNL     1      35.425 -20.784 -19.564  0.00  0.00    +0.029 C 
ATOM      6  C   UNL     1      36.508 -20.005 -19.974  0.00  0.00    +0.141 C 
ATOM      7  C   UNL     1      34.211 -20.705 -20.247  0.00  0.00    +0.004 C 
ENDROOT
BRANCH   2  10
ATOM      8  O   UNL     1      34.529 -17.353 -24.904  0.00  0.00    -0.434 OA
ATOM      9  O   UNL     1      33.972 -19.516 -24.515  0.00  0.00    -0.226 OA
ATOM     10  N   UNL     1      35.026 -18.186 -22.867  0.00  0.00    -0.221 N 
ATOM     11  C   UNL     1      34.947 -16.236 -24.108  0.00  0.00    +0.220 C 
ATOM     12  C   UNL     1      35.587 -16.862 -22.888  0.00  0.00    +0.148 C 
ATOM     13  C   UNL     1      34.456 -18.471 -24.104  0.00  0.00    +0.409 C 
BRANCH  11  14
ATOM     14  C   UNL     1      33.729 -15.384 -23.776  0.00  0.00    +0.183 C 
BRANCH  14  15
ATOM     15  O   UNL     1      33.673 -15.202 -22.372  0.00  0.00    -0.378 OA
ATOM     16  H   UNL     1      33.201 -15.947 -21.969  0.00  0.00    +0.211 HD
ENDBRANCH  14  15
ENDBRANCH  11  14
ENDBRANCH   2  10
BRANCH   5  18
ATOM     17  N   UNL     1      34.609 -23.428 -17.066  0.00  0.00    -0.234 NA
ATOM     18  C   UNL     1      35.557 -21.676 -18.432  0.00  0.00    +0.021 C 
ATOM     19  C   UNL     1      36.698 -21.662 -17.641  0.00  0.00    +0.004 C 
ATOM     20  C   UNL     1      34.549 -22.568 -18.108  0.00  0.00    +0.100 C 
ATOM     21  C   UNL     1      36.796 -22.531 -16.560  0.00  0.00    +0.029 C 
ATOM     22  C   UNL     1      35.733 -23.386 -16.317  0.00  0.00    +0.146 C 
BRANCH  22  27
ATOM     23  N   UNL     1      36.874 -24.988 -14.874  0.00  0.00    -0.105 NA
ATOM     24  N   UNL     1      36.387 -25.664 -13.824  0.00  0.00    -0.113 N 
ATOM     25  N   UNL     1      34.699 -24.548 -14.423  0.00  0.00    -0.085 NA
ATOM     26  N   UNL     1      35.101 -25.434 -13.521  0.00  0.00    -0.018 NA
ATOM     27  C   UNL     1      35.780 -24.303 -15.214  0.00  0.00    +0.092 C 
ATOM     28  C   UNL     1      37.195 -26.584 -13.068  0.00  0.00    +0.163 C 
ENDBRANCH  22  27
ENDBRANCH   5  18
TORSDOF 5
ENDMDL
