MODEL 1
REMARK VINA RESULT:     -11.7      0.000      0.000
REMARK  Name = 11711595
REMARK  10 active torsions:
REMARK  status: ('A' for Active; 'I' for Inactive)
REMARK    1  A    between atoms: C_1  and  C_9
REMARK    2  A    between atoms: C_3  and  C_17
REMARK    3  A    between atoms: C_5  and  O_7
REMARK    4  A    between atoms: C_9  and  C_10
REMARK    5  A    between atoms: C_10  and  C_12
REMARK    6  A    between atoms: C_10  and  C_15
REMARK    7  A    between atoms: C_12  and  O_13
REMARK    8  A    between atoms: C_17  and  N_19
REMARK    9  A    between atoms: C_20  and  C_23
REMARK   10  A    between atoms: C_26  and  C_32
REMARK                            x       y       z     vdW  Elec       q    Type
REMARK                         _______ _______ _______ _____ _____    ______ ____
ROOT
ATOM      1  C   UNL     1      34.992 -24.300 -14.336  0.00  0.00    -0.022 C 
ATOM      2  C   UNL     1      34.283 -23.984 -15.496  0.00  0.00    -0.004 C 
ATOM      3  C   UNL     1      32.904 -23.780 -15.438  0.00  0.00    +0.031 C 
ATOM      4  C   UNL     1      34.321 -24.410 -13.118  0.00  0.00    -0.001 C 
ATOM      5  C   UNL     1      32.234 -23.891 -14.219  0.00  0.00    +0.136 C 
ATOM      6  C   UNL     1      32.942 -24.206 -13.060  0.00  0.00    +0.036 C 
ENDROOT
BRANCH   5   7
ATOM      7  O   UNL     1      30.888 -23.695 -14.144  0.00  0.00    -0.472 OA
ATOM      8  C   UNL     1      30.068 -24.859 -14.054  0.00  0.00    +0.252 C 
ENDBRANCH   5   7
BRANCH   1   9
ATOM      9  C   UNL     1      36.484 -24.521 -14.400  0.00  0.00    +0.037 C 
BRANCH   9  10
ATOM     10  C   UNL     1      36.944 -25.779 -13.641  0.00  0.00    +0.103 C 
BRANCH  10  12
ATOM     11  O   UNL     1      36.400 -27.197 -15.544  0.00  0.00    -0.250 OA
ATOM     12  C   UNL     1      37.164 -26.916 -14.629  0.00  0.00    +0.314 C 
BRANCH  12  13
ATOM     13  O   UNL     1      38.325 -27.585 -14.409  0.00  0.00    -0.480 OA
ATOM     14  H   UNL     1      39.146 -27.156 -14.547  0.00  0.00    +0.295 HD
ENDBRANCH  12  13
ENDBRANCH  10  12
BRANCH  10  15
ATOM     15  C   UNL     1      38.245 -25.489 -12.869  0.00  0.00    +0.011 C 
ATOM     16  C   UNL     1      38.033 -24.532 -11.702  0.00  0.00    +0.001 C 
ENDBRANCH  10  15
ENDBRANCH   9  10
ENDBRANCH   1   9
BRANCH   3  17
ATOM     17  C   UNL     1      32.163 -23.444 -16.689  0.00  0.00    +0.120 C 
BRANCH  17  19
ATOM     18  O   UNL     1      33.761 -24.086 -18.985  0.00  0.00    -0.270 OA
ATOM     19  N   UNL     1      32.886 -22.516 -17.519  0.00  0.00    -0.297 N 
ATOM     20  C   UNL     1      33.637 -22.922 -18.615  0.00  0.00    +0.248 C 
ATOM     21  H   UNL     1      32.848 -21.557 -17.302  0.00  0.00    +0.150 HD
BRANCH  20  23
ATOM     22  F   UNL     1      32.290 -21.012 -20.201  0.00  0.00    -0.204 F 
ATOM     23  C   UNL     1      34.347 -21.846 -19.353  0.00  0.00    +0.081 C 
ATOM     24  C   UNL     1      33.627 -20.931 -20.121  0.00  0.00    +0.144 C 
ATOM     25  C   UNL     1      35.736 -21.752 -19.277  0.00  0.00    +0.007 C 
ATOM     26  C   UNL     1      35.684 -19.827 -20.736  0.00  0.00    +0.074 C 
ATOM     27  C   UNL     1      34.295 -19.921 -20.812  0.00  0.00    +0.034 C 
ATOM     28  C   UNL     1      36.405 -20.742 -19.969  0.00  0.00    +0.004 C 
BRANCH  26  32
ATOM     29  F   UNL     1      37.754 -18.761 -21.291  0.00  0.00    -0.166 F 
ATOM     30  F   UNL     1      36.224 -18.801 -22.828  0.00  0.00    -0.166 F 
ATOM     31  F   UNL     1      35.993 -17.498 -21.103  0.00  0.00    -0.166 F 
ATOM     32  C   UNL     1      36.400 -18.746 -21.475  0.00  0.00    +0.419 C 
ENDBRANCH  26  32
ENDBRANCH  20  23
ENDBRANCH  17  19
ENDBRANCH   3  17
TORSDOF 10
ENDMDL
MODEL 2
REMARK VINA RESULT:     -11.6      2.239      5.171
REMARK  Name = 11711595
REMARK  10 active torsions:
REMARK  status: ('A' for Active; 'I' for Inactive)
REMARK    1  A    between atoms: C_1  and  C_9
REMARK    2  A    between atoms: C_3  and  C_17
REMARK    3  A    between atoms: C_5  and  O_7
REMARK    4  A    between atoms: C_9  and  C_10
REMARK    5  A    between atoms: C_10  and  C_12
REMARK    6  A    between atoms: C_10  and  C_15
REMARK    7  A    between atoms: C_12  and  O_13
REMARK    8  A    between atoms: C_17  and  N_19
REMARK    9  A    between atoms: C_20  and  C_23
REMARK   10  A    between atoms: C_26  and  C_32
REMARK                            x       y       z     vdW  Elec       q    Type
REMARK                         _______ _______ _______ _____ _____    ______ ____
ROOT
ATOM      1  C   UNL     1      31.056 -23.014 -14.689  0.00  0.00    -0.022 C 
ATOM      2  C   UNL     1      32.075 -23.277 -15.605  0.00  0.00    -0.004 C 
ATOM      3  C   UNL     1      33.292 -23.797 -15.164  0.00  0.00    +0.031 C 
ATOM      4  C   UNL     1      31.255 -23.271 -13.333  0.00  0.00    -0.001 C 
ATOM      5  C   UNL     1      33.490 -24.054 -13.807  0.00  0.00    +0.136 C 
ATOM      6  C   UNL     1      32.472 -23.791 -12.892  0.00  0.00    +0.036 C 
ENDROOT
BRANCH   5   7
ATOM      7  O   UNL     1      34.673 -24.561 -13.359  0.00  0.00    -0.472 OA
ATOM      8  C   UNL     1      34.995 -24.341 -11.987  0.00  0.00    +0.252 C 
ENDBRANCH   5   7
BRANCH   1   9
ATOM      9  C   UNL     1      29.738 -22.451 -15.166  0.00  0.00    +0.037 C 
BRANCH   9  10
ATOM     10  C   UNL     1      28.644 -23.523 -15.331  0.00  0.00    +0.103 C 
BRANCH  10  12
ATOM     11  O   UNL     1      27.394 -22.048 -16.811  0.00  0.00    -0.250 OA
ATOM     12  C   UNL     1      27.773 -23.178 -16.531  0.00  0.00    +0.314 C 
BRANCH  12  13
ATOM     13  O   UNL     1      27.472 -24.264 -17.288  0.00  0.00    -0.480 OA
ATOM     14  H   UNL     1      27.850 -25.097 -17.084  0.00  0.00    +0.295 HD
ENDBRANCH  12  13
ENDBRANCH  10  12
BRANCH  10  15
ATOM     15  C   UNL     1      29.283 -24.911 -15.520  0.00  0.00    +0.011 C 
ATOM     16  C   UNL     1      29.000 -25.851 -14.355  0.00  0.00    +0.001 C 
ENDBRANCH  10  15
ENDBRANCH   9  10
ENDBRANCH   1   9
BRANCH   3  17
ATOM     17  C   UNL     1      34.371 -24.072 -16.158  0.00  0.00    +0.120 C 
BRANCH  17  19
ATOM     18  O   UNL     1      33.775 -24.104 -18.966  0.00  0.00    -0.270 OA
ATOM     19  N   UNL     1      34.547 -22.986 -17.087  0.00  0.00    -0.297 N 
ATOM     20  C   UNL     1      34.230 -23.095 -18.434  0.00  0.00    +0.248 C 
ATOM     21  H   UNL     1      34.908 -22.132 -16.754  0.00  0.00    +0.150 HD
BRANCH  20  23
ATOM     22  F   UNL     1      36.837 -22.137 -18.949  0.00  0.00    -0.204 F 
ATOM     23  C   UNL     1      34.496 -21.893 -19.266  0.00  0.00    +0.081 C 
ATOM     24  C   UNL     1      35.806 -21.469 -19.486  0.00  0.00    +0.144 C 
ATOM     25  C   UNL     1      33.431 -21.190 -19.829  0.00  0.00    +0.007 C 
ATOM     26  C   UNL     1      34.988 -19.638 -20.831  0.00  0.00    +0.074 C 
ATOM     27  C   UNL     1      36.053 -20.341 -20.268  0.00  0.00    +0.034 C 
ATOM     28  C   UNL     1      33.677 -20.061 -20.612  0.00  0.00    +0.004 C 
BRANCH  26  32
ATOM     29  F   UNL     1      36.549 -18.327 -22.085  0.00  0.00    -0.166 F 
ATOM     30  F   UNL     1      34.506 -18.387 -22.812  0.00  0.00    -0.166 F 
ATOM     31  F   UNL     1      34.982 -17.267 -21.010  0.00  0.00    -0.166 F 
ATOM     32  C   UNL     1      35.251 -18.432 -21.669  0.00  0.00    +0.419 C 
ENDBRANCH  26  32
ENDBRANCH  20  23
ENDBRANCH  17  19
ENDBRANCH   3  17
TORSDOF 10
ENDMDL
MODEL 3
REMARK VINA RESULT:     -10.9      1.653      2.265
REMARK  Name = 11711595
REMARK  10 active torsions:
REMARK  status: ('A' for Active; 'I' for Inactive)
REMARK    1  A    between atoms: C_1  and  C_9
REMARK    2  A    between atoms: C_3  and  C_17
REMARK    3  A    between atoms: C_5  and  O_7
REMARK    4  A    between atoms: C_9  and  C_10
REMARK    5  A    between atoms: C_10  and  C_12
REMARK    6  A    between atoms: C_10  and  C_15
REMARK    7  A    between atoms: C_12  and  O_13
REMARK    8  A    between atoms: C_17  and  N_19
REMARK    9  A    between atoms: C_20  and  C_23
REMARK   10  A    between atoms: C_26  and  C_32
REMARK                            x       y       z     vdW  Elec       q    Type
REMARK                         _______ _______ _______ _____ _____    ______ ____
ROOT
ATOM      1  C   UNL     1      34.272 -23.775 -14.029  0.00  0.00    -0.022 C 
ATOM      2  C   UNL     1      33.789 -23.670 -15.334  0.00  0.00    -0.004 C 
ATOM      3  C   UNL     1      32.416 -23.711 -15.575  0.00  0.00    +0.031 C 
ATOM      4  C   UNL     1      33.382 -23.921 -12.966  0.00  0.00    -0.001 C 
ATOM      5  C   UNL     1      31.525 -23.857 -14.510  0.00  0.00    +0.136 C 
ATOM      6  C   UNL     1      32.008 -23.962 -13.206  0.00  0.00    +0.036 C 
ENDROOT
BRANCH   5   7
ATOM      7  O   UNL     1      30.181 -23.899 -14.728  0.00  0.00    -0.472 OA
ATOM      8  C   UNL     1      29.479 -22.658 -14.688  0.00  0.00    +0.252 C 
ENDBRANCH   5   7
BRANCH   1   9
ATOM      9  C   UNL     1      35.759 -23.731 -13.768  0.00  0.00    +0.037 C 
BRANCH   9  10
ATOM     10  C   UNL     1      36.595 -24.312 -14.923  0.00  0.00    +0.103 C 
BRANCH  10  12
ATOM     11  O   UNL     1      37.294 -22.082 -15.608  0.00  0.00    -0.250 OA
ATOM     12  C   UNL     1      37.577 -23.259 -15.419  0.00  0.00    +0.314 C 
BRANCH  12  13
ATOM     13  O   UNL     1      38.825 -23.757 -15.614  0.00  0.00    -0.480 OA
ATOM     14  H   UNL     1      39.317 -24.086 -14.887  0.00  0.00    +0.295 HD
ENDBRANCH  12  13
ENDBRANCH  10  12
BRANCH  10  15
ATOM     15  C   UNL     1      37.356 -25.565 -14.451  0.00  0.00    +0.011 C 
ATOM     16  C   UNL     1      36.714 -26.859 -14.936  0.00  0.00    +0.001 C 
ENDBRANCH  10  15
ENDBRANCH   9  10
ENDBRANCH   1   9
BRANCH   3  17
ATOM     17  C   UNL     1      31.917 -23.597 -16.977  0.00  0.00    +0.120 C 
BRANCH  17  19
ATOM     18  O   UNL     1      33.812 -24.151 -19.061  0.00  0.00    -0.270 OA
ATOM     19  N   UNL     1      32.660 -22.630 -17.743  0.00  0.00    -0.297 N 
ATOM     20  C   UNL     1      33.559 -22.994 -18.736  0.00  0.00    +0.248 C 
ATOM     21  H   UNL     1      32.525 -21.673 -17.555  0.00  0.00    +0.150 HD
BRANCH  20  23
ATOM     22  F   UNL     1      36.317 -22.492 -18.385  0.00  0.00    -0.204 F 
ATOM     23  C   UNL     1      34.266 -21.878 -19.416  0.00  0.00    +0.081 C 
ATOM     24  C   UNL     1      35.630 -21.681 -19.204  0.00  0.00    +0.144 C 
ATOM     25  C   UNL     1      33.563 -21.029 -20.270  0.00  0.00    +0.007 C 
ATOM     26  C   UNL     1      35.589 -19.785 -20.699  0.00  0.00    +0.074 C 
ATOM     27  C   UNL     1      36.292 -20.634 -19.845  0.00  0.00    +0.034 C 
ATOM     28  C   UNL     1      34.224 -19.981 -20.911  0.00  0.00    +0.004 C 
BRANCH  26  32
ATOM     29  F   UNL     1      35.904 -17.427 -20.960  0.00  0.00    -0.166 F 
ATOM     30  F   UNL     1      37.651 -18.688 -21.214  0.00  0.00    -0.166 F 
ATOM     31  F   UNL     1      36.098 -18.668 -22.736  0.00  0.00    -0.166 F 
ATOM     32  C   UNL     1      36.297 -18.665 -21.385  0.00  0.00    +0.419 C 
ENDBRANCH  26  32
ENDBRANCH  20  23
ENDBRANCH  17  19
ENDBRANCH   3  17
TORSDOF 10
ENDMDL
MODEL 4
REMARK VINA RESULT:     -10.9      1.473      1.879
REMARK  Name = 11711595
REMARK  10 active torsions:
REMARK  status: ('A' for Active; 'I' for Inactive)
REMARK    1  A    between atoms: C_1  and  C_9
REMARK    2  A    between atoms: C_3  and  C_17
REMARK    3  A    between atoms: C_5  and  O_7
REMARK    4  A    between atoms: C_9  and  C_10
REMARK    5  A    between atoms: C_10  and  C_12
REMARK    6  A    between atoms: C_10  and  C_15
REMARK    7  A    between atoms: C_12  and  O_13
REMARK    8  A    between atoms: C_17  and  N_19
REMARK    9  A    between atoms: C_20  and  C_23
REMARK   10  A    between atoms: C_26  and  C_32
REMARK                            x       y       z     vdW  Elec       q    Type
REMARK                         _______ _______ _______ _____ _____    ______ ____
ROOT
ATOM      1  C   UNL     1      35.612 -23.785 -13.955  0.00  0.00    -0.022 C 
ATOM      2  C   UNL     1      34.918 -23.648 -15.158  0.00  0.00    -0.004 C 
ATOM      3  C   UNL     1      33.554 -23.936 -15.213  0.00  0.00    +0.031 C 
ATOM      4  C   UNL     1      34.942 -24.211 -12.809  0.00  0.00    -0.001 C 
ATOM      5  C   UNL     1      32.884 -24.362 -14.065  0.00  0.00    +0.136 C 
ATOM      6  C   UNL     1      33.578 -24.500 -12.864  0.00  0.00    +0.036 C 
ENDROOT
BRANCH   5   7
ATOM      7  O   UNL     1      31.553 -24.648 -14.102  0.00  0.00    -0.472 OA
ATOM      8  C   UNL     1      30.724 -24.002 -13.137  0.00  0.00    +0.252 C 
ENDBRANCH   5   7
BRANCH   1   9
ATOM      9  C   UNL     1      37.088 -23.473 -13.896  0.00  0.00    +0.037 C 
BRANCH   9  10
ATOM     10  C   UNL     1      37.898 -24.517 -13.105  0.00  0.00    +0.103 C 
BRANCH  10  12
ATOM     11  O   UNL     1      37.704 -24.856 -10.701  0.00  0.00    -0.250 OA
ATOM     12  C   UNL     1      37.957 -24.110 -11.639  0.00  0.00    +0.314 C 
BRANCH  12  13
ATOM     13  O   UNL     1      38.346 -22.821 -11.469  0.00  0.00    -0.480 OA
ATOM     14  H   UNL     1      38.545 -22.289 -12.214  0.00  0.00    +0.295 HD
ENDBRANCH  12  13
ENDBRANCH  10  12
BRANCH  10  15
ATOM     15  C   UNL     1      37.251 -25.908 -13.242  0.00  0.00    +0.011 C 
ATOM     16  C   UNL     1      37.768 -26.678 -14.452  0.00  0.00    +0.001 C 
ENDBRANCH  10  15
ENDBRANCH   9  10
ENDBRANCH   1   9
BRANCH   3  17
ATOM     17  C   UNL     1      32.828 -23.783 -16.508  0.00  0.00    +0.120 C 
BRANCH  17  19
ATOM     18  O   UNL     1      33.828 -24.169 -19.171  0.00  0.00    -0.270 OA
ATOM     19  N   UNL     1      33.426 -22.784 -17.355  0.00  0.00    -0.297 N 
ATOM     20  C   UNL     1      33.884 -23.065 -18.635  0.00  0.00    +0.248 C 
ATOM     21  H   UNL     1      33.516 -21.866 -17.013  0.00  0.00    +0.150 HD
BRANCH  20  23
ATOM     22  F   UNL     1      32.369 -21.199 -20.118  0.00  0.00    -0.204 F 
ATOM     23  C   UNL     1      34.501 -21.932 -19.371  0.00  0.00    +0.081 C 
ATOM     24  C   UNL     1      33.701 -21.042 -20.086  0.00  0.00    +0.144 C 
ATOM     25  C   UNL     1      35.885 -21.759 -19.345  0.00  0.00    +0.007 C 
ATOM     26  C   UNL     1      35.666 -19.805 -20.749  0.00  0.00    +0.074 C 
ATOM     27  C   UNL     1      34.282 -19.978 -20.775  0.00  0.00    +0.034 C 
ATOM     28  C   UNL     1      36.468 -20.696 -20.034  0.00  0.00    +0.004 C 
BRANCH  26  32
ATOM     29  F   UNL     1      37.654 -18.664 -21.435  0.00  0.00    -0.166 F 
ATOM     30  F   UNL     1      35.981 -18.643 -22.815  0.00  0.00    -0.166 F 
ATOM     31  F   UNL     1      35.902 -17.452 -20.998  0.00  0.00    -0.166 F 
ATOM     32  C   UNL     1      36.289 -18.667 -21.485  0.00  0.00    +0.419 C 
ENDBRANCH  26  32
ENDBRANCH  20  23
ENDBRANCH  17  19
ENDBRANCH   3  17
TORSDOF 10
ENDMDL
MODEL 5
REMARK VINA RESULT:     -10.3      1.967      4.761
REMARK  Name = 11711595
REMARK  10 active torsions:
REMARK  status: ('A' for Active; 'I' for Inactive)
REMARK    1  A    between atoms: C_1  and  C_9
REMARK    2  A    between atoms: C_3  and  C_17
REMARK    3  A    between atoms: C_5  and  O_7
REMARK    4  A    between atoms: C_9  and  C_10
REMARK    5  A    between atoms: C_10  and  C_12
REMARK    6  A    between atoms: C_10  and  C_15
REMARK    7  A    between atoms: C_12  and  O_13
REMARK    8  A    between atoms: C_17  and  N_19
REMARK    9  A    between atoms: C_20  and  C_23
REMARK   10  A    between atoms: C_26  and  C_32
REMARK                            x       y       z     vdW  Elec       q    Type
REMARK                         _______ _______ _______ _____ _____    ______ ____
ROOT
ATOM      1  C   UNL     1      31.330 -23.319 -14.523  0.00  0.00    -0.022 C 
ATOM      2  C   UNL     1      32.341 -23.585 -15.448  0.00  0.00    -0.004 C 
ATOM      3  C   UNL     1      33.642 -23.830 -15.008  0.00  0.00    +0.031 C 
ATOM      4  C   UNL     1      31.621 -23.300 -13.159  0.00  0.00    -0.001 C 
ATOM      5  C   UNL     1      33.932 -23.810 -13.643  0.00  0.00    +0.136 C 
ATOM      6  C   UNL     1      32.922 -23.545 -12.719  0.00  0.00    +0.036 C 
ENDROOT
BRANCH   5   7
ATOM      7  O   UNL     1      35.197 -24.048 -13.196  0.00  0.00    -0.472 OA
ATOM      8  C   UNL     1      35.327 -24.688 -11.928  0.00  0.00    +0.252 C 
ENDBRANCH   5   7
BRANCH   1   9
ATOM      9  C   UNL     1      29.922 -23.053 -14.999  0.00  0.00    +0.037 C 
BRANCH   9  10
ATOM     10  C   UNL     1      29.343 -24.198 -15.851  0.00  0.00    +0.103 C 
BRANCH  10  12
ATOM     11  O   UNL     1      30.174 -26.427 -15.329  0.00  0.00    -0.250 OA
ATOM     12  C   UNL     1      29.416 -25.501 -15.067  0.00  0.00    +0.314 C 
BRANCH  12  13
ATOM     13  O   UNL     1      28.559 -25.527 -14.014  0.00  0.00    -0.480 OA
ATOM     14  H   UNL     1      28.893 -25.532 -13.138  0.00  0.00    +0.295 HD
ENDBRANCH  12  13
ENDBRANCH  10  12
BRANCH  10  15
ATOM     15  C   UNL     1      27.883 -23.891 -16.233  0.00  0.00    +0.011 C 
ATOM     16  C   UNL     1      27.347 -22.640 -15.547  0.00  0.00    +0.001 C 
ENDBRANCH  10  15
ENDBRANCH   9  10
ENDBRANCH   1   9
BRANCH   3  17
ATOM     17  C   UNL     1      34.710 -24.112 -16.011  0.00  0.00    +0.120 C 
BRANCH  17  19
ATOM     18  O   UNL     1      33.798 -24.111 -18.733  0.00  0.00    -0.270 OA
ATOM     19  N   UNL     1      34.857 -23.044 -16.967  0.00  0.00    -0.297 N 
ATOM     20  C   UNL     1      34.381 -23.136 -18.268  0.00  0.00    +0.248 C 
ATOM     21  H   UNL     1      35.313 -22.219 -16.687  0.00  0.00    +0.150 HD
BRANCH  20  23
ATOM     22  F   UNL     1      32.303 -21.552 -19.342  0.00  0.00    -0.204 F 
ATOM     23  C   UNL     1      34.635 -21.959 -19.139  0.00  0.00    +0.081 C 
ATOM     24  C   UNL     1      33.567 -21.215 -19.639  0.00  0.00    +0.144 C 
ATOM     25  C   UNL     1      35.945 -21.600 -19.455  0.00  0.00    +0.007 C 
ATOM     26  C   UNL     1      35.118 -19.750 -20.771  0.00  0.00    +0.074 C 
ATOM     27  C   UNL     1      33.808 -20.110 -20.455  0.00  0.00    +0.034 C 
ATOM     28  C   UNL     1      36.187 -20.495 -20.272  0.00  0.00    +0.004 C 
BRANCH  26  32
ATOM     29  F   UNL     1      35.265 -17.372 -20.994  0.00  0.00    -0.166 F 
ATOM     30  F   UNL     1      36.625 -18.559 -22.196  0.00  0.00    -0.166 F 
ATOM     31  F   UNL     1      34.510 -18.495 -22.697  0.00  0.00    -0.166 F 
ATOM     32  C   UNL     1      35.376 -18.569 -21.645  0.00  0.00    +0.419 C 
ENDBRANCH  26  32
ENDBRANCH  20  23
ENDBRANCH  17  19
ENDBRANCH   3  17
TORSDOF 10
ENDMDL
MODEL 6
REMARK VINA RESULT:     -10.3      6.322     11.435
REMARK  Name = 11711595
REMARK  10 active torsions:
REMARK  status: ('A' for Active; 'I' for Inactive)
REMARK    1  A    between atoms: C_1  and  C_9
REMARK    2  A    between atoms: C_3  and  C_17
REMARK    3  A    between atoms: C_5  and  O_7
REMARK    4  A    between atoms: C_9  and  C_10
REMARK    5  A    between atoms: C_10  and  C_12
REMARK    6  A    between atoms: C_10  and  C_15
REMARK    7  A    between atoms: C_12  and  O_13
REMARK    8  A    between atoms: C_17  and  N_19
REMARK    9  A    between atoms: C_20  and  C_23
REMARK   10  A    between atoms: C_26  and  C_32
REMARK                            x       y       z     vdW  Elec       q    Type
REMARK                         _______ _______ _______ _____ _____    ______ ____
ROOT
ATOM      1  C   UNL     1      32.885 -13.946 -21.376  0.00  0.00    -0.022 C 
ATOM      2  C   UNL     1      33.947 -14.815 -21.122  0.00  0.00    -0.004 C 
ATOM      3  C   UNL     1      34.563 -15.491 -22.177  0.00  0.00    +0.031 C 
ATOM      4  C   UNL     1      32.439 -13.753 -22.683  0.00  0.00    -0.001 C 
ATOM      5  C   UNL     1      34.116 -15.297 -23.485  0.00  0.00    +0.136 C 
ATOM      6  C   UNL     1      33.055 -14.428 -23.737  0.00  0.00    +0.036 C 
ENDROOT
BRANCH   5   7
ATOM      7  O   UNL     1      34.705 -15.948 -24.526  0.00  0.00    -0.472 OA
ATOM      8  C   UNL     1      34.134 -17.196 -24.916  0.00  0.00    +0.252 C 
ENDBRANCH   5   7
BRANCH   1   9
ATOM      9  C   UNL     1      32.219 -13.216 -20.234  0.00  0.00    +0.037 C 
BRANCH   9  10
ATOM     10  C   UNL     1      32.287 -11.683 -20.372  0.00  0.00    +0.103 C 
BRANCH  10  12
ATOM     11  O   UNL     1      31.535 -10.518 -22.374  0.00  0.00    -0.250 OA
ATOM     12  C   UNL     1      31.270 -11.221 -21.406  0.00  0.00    +0.314 C 
BRANCH  12  13
ATOM     13  O   UNL     1      30.021 -11.693 -21.159  0.00  0.00    -0.480 OA
ATOM     14  H   UNL     1      29.445 -11.220 -20.591  0.00  0.00    +0.295 HD
ENDBRANCH  12  13
ENDBRANCH  10  12
BRANCH  10  15
ATOM     15  C   UNL     1      32.004 -11.014 -19.014  0.00  0.00    +0.011 C 
ATOM     16  C   UNL     1      32.070  -9.493 -19.085  0.00  0.00    +0.001 C 
ENDBRANCH  10  15
ENDBRANCH   9  10
ENDBRANCH   1   9
BRANCH   3  17
ATOM     17  C   UNL     1      35.697 -16.416 -21.887  0.00  0.00    +0.120 C 
BRANCH  17  19
ATOM     18  O   UNL     1      35.809 -19.172 -22.685  0.00  0.00    -0.270 OA
ATOM     19  N   UNL     1      35.286 -17.555 -21.107  0.00  0.00    -0.297 N 
ATOM     20  C   UNL     1      35.378 -18.858 -21.579  0.00  0.00    +0.248 C 
ATOM     21  H   UNL     1      34.925 -17.404 -20.204  0.00  0.00    +0.150 HD
BRANCH  20  23
ATOM     22  F   UNL     1      37.113 -20.478 -20.049  0.00  0.00    -0.204 F 
ATOM     23  C   UNL     1      34.887 -19.919 -20.663  0.00  0.00    +0.081 C 
ATOM     24  C   UNL     1      35.793 -20.687 -19.932  0.00  0.00    +0.144 C 
ATOM     25  C   UNL     1      33.517 -20.147 -20.534  0.00  0.00    +0.007 C 
ATOM     26  C   UNL     1      33.961 -21.910 -18.943  0.00  0.00    +0.074 C 
ATOM     27  C   UNL     1      35.331 -21.683 -19.072  0.00  0.00    +0.034 C 
ATOM     28  C   UNL     1      33.054 -21.142 -19.675  0.00  0.00    +0.004 C 
BRANCH  26  32
ATOM     29  F   UNL     1      32.173 -22.790 -17.619  0.00  0.00    -0.166 F 
ATOM     30  F   UNL     1      33.492 -24.225 -18.570  0.00  0.00    -0.166 F 
ATOM     31  F   UNL     1      34.199 -23.060 -16.876  0.00  0.00    -0.166 F 
ATOM     32  C   UNL     1      33.465 -22.974 -18.023  0.00  0.00    +0.419 C 
ENDBRANCH  26  32
ENDBRANCH  20  23
ENDBRANCH  17  19
ENDBRANCH   3  17
TORSDOF 10
ENDMDL
MODEL 7
REMARK VINA RESULT:     -10.2      2.833      4.857
REMARK  Name = 11711595
REMARK  10 active torsions:
REMARK  status: ('A' for Active; 'I' for Inactive)
REMARK    1  A    between atoms: C_1  and  C_9
REMARK    2  A    between atoms: C_3  and  C_17
REMARK    3  A    between atoms: C_5  and  O_7
REMARK    4  A    between atoms: C_9  and  C_10
REMARK    5  A    between atoms: C_10  and  C_12
REMARK    6  A    between atoms: C_10  and  C_15
REMARK    7  A    between atoms: C_12  and  O_13
REMARK    8  A    between atoms: C_17  and  N_19
REMARK    9  A    between atoms: C_20  and  C_23
REMARK   10  A    between atoms: C_26  and  C_32
REMARK                            x       y       z     vdW  Elec       q    Type
REMARK                         _______ _______ _______ _____ _____    ______ ____
ROOT
ATOM      1  C   UNL     1      34.941 -22.988 -16.560  0.00  0.00    -0.022 C 
ATOM      2  C   UNL     1      35.826 -22.391 -17.458  0.00  0.00    -0.004 C 
ATOM      3  C   UNL     1      35.360 -21.914 -18.684  0.00  0.00    +0.031 C 
ATOM      4  C   UNL     1      33.590 -23.108 -16.887  0.00  0.00    -0.001 C 
ATOM      5  C   UNL     1      34.008 -22.034 -19.010  0.00  0.00    +0.136 C 
ATOM      6  C   UNL     1      33.124 -22.631 -18.112  0.00  0.00    +0.036 C 
ENDROOT
BRANCH   5   7
ATOM      7  O   UNL     1      33.537 -21.574 -20.203  0.00  0.00    -0.472 OA
ATOM      8  C   UNL     1      32.584 -20.513 -20.157  0.00  0.00    +0.252 C 
ENDBRANCH   5   7
BRANCH   1   9
ATOM      9  C   UNL     1      35.446 -23.505 -15.233  0.00  0.00    +0.037 C 
BRANCH   9  10
ATOM     10  C   UNL     1      34.704 -24.765 -14.751  0.00  0.00    +0.103 C 
BRANCH  10  12
ATOM     11  O   UNL     1      36.023 -26.657 -15.534  0.00  0.00    -0.250 OA
ATOM     12  C   UNL     1      35.693 -25.915 -14.616  0.00  0.00    +0.314 C 
BRANCH  12  13
ATOM     13  O   UNL     1      36.201 -26.025 -13.363  0.00  0.00    -0.480 OA
ATOM     14  H   UNL     1      36.552 -25.271 -12.931  0.00  0.00    +0.295 HD
ENDBRANCH  12  13
ENDBRANCH  10  12
BRANCH  10  15
ATOM     15  C   UNL     1      34.019 -24.495 -13.398  0.00  0.00    +0.011 C 
ATOM     16  C   UNL     1      32.508 -24.345 -13.526  0.00  0.00    +0.001 C 
ENDBRANCH  10  15
ENDBRANCH   9  10
ENDBRANCH   1   9
BRANCH   3  17
ATOM     17  C   UNL     1      36.321 -21.279 -19.633  0.00  0.00    +0.120 C 
BRANCH  17  19
ATOM     18  O   UNL     1      37.758 -19.022 -20.674  0.00  0.00    -0.270 OA
ATOM     19  N   UNL     1      35.756 -20.131 -20.294  0.00  0.00    -0.297 N 
ATOM     20  C   UNL     1      36.534 -19.082 -20.766  0.00  0.00    +0.248 C 
ATOM     21  H   UNL     1      34.780 -20.087 -20.416  0.00  0.00    +0.150 HD
BRANCH  20  23
ATOM     22  F   UNL     1      35.915 -19.023 -23.521  0.00  0.00    -0.204 F 
ATOM     23  C   UNL     1      35.799 -17.958 -21.400  0.00  0.00    +0.081 C 
ATOM     24  C   UNL     1      35.521 -17.986 -22.767  0.00  0.00    +0.144 C 
ATOM     25  C   UNL     1      35.384 -16.875 -20.626  0.00  0.00    +0.007 C 
ATOM     26  C   UNL     1      34.415 -15.847 -22.586  0.00  0.00    +0.074 C 
ATOM     27  C   UNL     1      34.829 -16.930 -23.360  0.00  0.00    +0.034 C 
ATOM     28  C   UNL     1      34.693 -15.818 -21.219  0.00  0.00    +0.004 C 
BRANCH  26  32
ATOM     29  F   UNL     1      33.096 -15.044 -24.414  0.00  0.00    -0.166 F 
ATOM     30  F   UNL     1      32.655 -14.232 -22.452  0.00  0.00    -0.166 F 
ATOM     31  F   UNL     1      34.478 -13.645 -23.482  0.00  0.00    -0.166 F 
ATOM     32  C   UNL     1      33.675 -14.717 -23.220  0.00  0.00    +0.419 C 
ENDBRANCH  26  32
ENDBRANCH  20  23
ENDBRANCH  17  19
ENDBRANCH   3  17
TORSDOF 10
ENDMDL
MODEL 8
REMARK VINA RESULT:     -10.2      5.560     11.078
REMARK  Name = 11711595
REMARK  10 active torsions:
REMARK  status: ('A' for Active; 'I' for Inactive)
REMARK    1  A    between atoms: C_1  and  C_9
REMARK    2  A    between atoms: C_3  and  C_17
REMARK    3  A    between atoms: C_5  and  O_7
REMARK    4  A    between atoms: C_9  and  C_10
REMARK    5  A    between atoms: C_10  and  C_12
REMARK    6  A    between atoms: C_10  and  C_15
REMARK    7  A    between atoms: C_12  and  O_13
REMARK    8  A    between atoms: C_17  and  N_19
REMARK    9  A    between atoms: C_20  and  C_23
REMARK   10  A    between atoms: C_26  and  C_32
REMARK                            x       y       z     vdW  Elec       q    Type
REMARK                         _______ _______ _______ _____ _____    ______ ____
ROOT
ATOM      1  C   UNL     1      33.764 -14.268 -23.137  0.00  0.00    -0.022 C 
ATOM      2  C   UNL     1      34.760 -15.074 -22.584  0.00  0.00    -0.004 C 
ATOM      3  C   UNL     1      35.056 -16.310 -23.160  0.00  0.00    +0.031 C 
ATOM      4  C   UNL     1      33.066 -14.698 -24.265  0.00  0.00    -0.001 C 
ATOM      5  C   UNL     1      34.357 -16.740 -24.288  0.00  0.00    +0.136 C 
ATOM      6  C   UNL     1      33.362 -15.934 -24.841  0.00  0.00    +0.036 C 
ENDROOT
BRANCH   5   7
ATOM      7  O   UNL     1      34.633 -17.944 -24.862  0.00  0.00    -0.472 OA
ATOM      8  C   UNL     1      33.743 -19.020 -24.571  0.00  0.00    +0.252 C 
ENDBRANCH   5   7
BRANCH   1   9
ATOM      9  C   UNL     1      33.444 -12.930 -22.514  0.00  0.00    +0.037 C 
BRANCH   9  10
ATOM     10  C   UNL     1      32.043 -12.877 -21.878  0.00  0.00    +0.103 C 
BRANCH  10  12
ATOM     11  O   UNL     1      32.206 -14.337 -19.935  0.00  0.00    -0.250 OA
ATOM     12  C   UNL     1      32.147 -13.202 -20.394  0.00  0.00    +0.314 C 
BRANCH  12  13
ATOM     13  O   UNL     1      32.193 -12.091 -19.616  0.00  0.00    -0.480 OA
ATOM     14  H   UNL     1      32.509 -12.148 -18.736  0.00  0.00    +0.295 HD
ENDBRANCH  12  13
ENDBRANCH  10  12
BRANCH  10  15
ATOM     15  C   UNL     1      31.423 -11.480 -22.071  0.00  0.00    +0.011 C 
ATOM     16  C   UNL     1      32.339 -10.533 -22.837  0.00  0.00    +0.001 C 
ENDBRANCH  10  15
ENDBRANCH   9  10
ENDBRANCH   1   9
BRANCH   3  17
ATOM     17  C   UNL     1      36.124 -17.160 -22.555  0.00  0.00    +0.120 C 
BRANCH  17  19
ATOM     18  O   UNL     1      37.615 -19.053 -20.994  0.00  0.00    -0.270 OA
ATOM     19  N   UNL     1      35.584 -18.217 -21.740  0.00  0.00    -0.297 N 
ATOM     20  C   UNL     1      36.387 -19.089 -21.018  0.00  0.00    +0.248 C 
ATOM     21  H   UNL     1      34.607 -18.328 -21.695  0.00  0.00    +0.150 HD
BRANCH  20  23
ATOM     22  F   UNL     1      33.618 -19.576 -21.286  0.00  0.00    -0.204 F 
ATOM     23  C   UNL     1      35.678 -20.144 -20.248  0.00  0.00    +0.081 C 
ATOM     24  C   UNL     1      34.308 -20.337 -20.424  0.00  0.00    +0.144 C 
ATOM     25  C   UNL     1      36.386 -20.941 -19.349  0.00  0.00    +0.007 C 
ATOM     26  C   UNL     1      34.353 -22.127 -18.803  0.00  0.00    +0.074 C 
ATOM     27  C   UNL     1      33.645 -21.329 -19.701  0.00  0.00    +0.034 C 
ATOM     28  C   UNL     1      35.723 -21.933 -18.626  0.00  0.00    +0.004 C 
BRANCH  26  32
ATOM     29  F   UNL     1      34.240 -23.487 -16.837  0.00  0.00    -0.166 F 
ATOM     30  F   UNL     1      32.356 -22.864 -17.713  0.00  0.00    -0.166 F 
ATOM     31  F   UNL     1      33.569 -24.369 -18.708  0.00  0.00    -0.166 F 
ATOM     32  C   UNL     1      33.644 -23.188 -18.029  0.00  0.00    +0.419 C 
ENDBRANCH  26  32
ENDBRANCH  20  23
ENDBRANCH  17  19
ENDBRANCH   3  17
TORSDOF 10
ENDMDL
MODEL 9
REMARK VINA RESULT:     -10.2      9.698     14.399
REMARK  Name = 11711595
REMARK  10 active torsions:
REMARK  status: ('A' for Active; 'I' for Inactive)
REMARK    1  A    between atoms: C_1  and  C_9
REMARK    2  A    between atoms: C_3  and  C_17
REMARK    3  A    between atoms: C_5  and  O_7
REMARK    4  A    between atoms: C_9  and  C_10
REMARK    5  A    between atoms: C_10  and  C_12
REMARK    6  A    between atoms: C_10  and  C_15
REMARK    7  A    between atoms: C_12  and  O_13
REMARK    8  A    between atoms: C_17  and  N_19
REMARK    9  A    between atoms: C_20  and  C_23
REMARK   10  A    between atoms: C_26  and  C_32
REMARK                            x       y       z     vdW  Elec       q    Type
REMARK                         _______ _______ _______ _____ _____    ______ ____
ROOT
ATOM      1  C   UNL     1      32.290  -8.849 -21.297  0.00  0.00    -0.022 C 
ATOM      2  C   UNL     1      32.577  -9.583 -22.449  0.00  0.00    -0.004 C 
ATOM      3  C   UNL     1      32.351 -10.959 -22.474  0.00  0.00    +0.031 C 
ATOM      4  C   UNL     1      31.778  -9.493 -20.171  0.00  0.00    -0.001 C 
ATOM      5  C   UNL     1      31.838 -11.603 -21.347  0.00  0.00    +0.136 C 
ATOM      6  C   UNL     1      31.552 -10.870 -20.196  0.00  0.00    +0.036 C 
ENDROOT
BRANCH   5   7
ATOM      7  O   UNL     1      31.612 -12.946 -21.354  0.00  0.00    -0.472 OA
ATOM      8  C   UNL     1      32.130 -13.696 -20.257  0.00  0.00    +0.252 C 
ENDBRANCH   5   7
BRANCH   1   9
ATOM      9  C   UNL     1      32.535  -7.359 -21.270  0.00  0.00    +0.037 C 
BRANCH   9  10
ATOM     10  C   UNL     1      32.242  -6.672 -22.617  0.00  0.00    +0.103 C 
BRANCH  10  12
ATOM     11  O   UNL     1      30.399  -5.602 -21.437  0.00  0.00    -0.250 OA
ATOM     12  C   UNL     1      31.087  -5.694 -22.446  0.00  0.00    +0.314 C 
BRANCH  12  13
ATOM     13  O   UNL     1      30.907  -4.902 -23.534  0.00  0.00    -0.480 OA
ATOM     14  H   UNL     1      30.589  -5.270 -24.334  0.00  0.00    +0.295 HD
ENDBRANCH  12  13
ENDBRANCH  10  12
BRANCH  10  15
ATOM     15  C   UNL     1      33.495  -5.930 -23.119  0.00  0.00    +0.011 C 
ATOM     16  C   UNL     1      34.701  -6.850 -23.265  0.00  0.00    +0.001 C 
ENDBRANCH  10  15
ENDBRANCH   9  10
ENDBRANCH   1   9
BRANCH   3  17
ATOM     17  C   UNL     1      32.664 -11.728 -23.715  0.00  0.00    +0.120 C 
BRANCH  17  19
ATOM     18  O   UNL     1      33.401 -13.736 -25.630  0.00  0.00    -0.270 OA
ATOM     19  N   UNL     1      33.190 -13.037 -23.428  0.00  0.00    -0.297 N 
ATOM     20  C   UNL     1      33.519 -13.946 -24.425  0.00  0.00    +0.248 C 
ATOM     21  H   UNL     1      33.321 -13.299 -22.488  0.00  0.00    +0.150 HD
BRANCH  20  23
ATOM     22  F   UNL     1      34.892 -14.288 -21.981  0.00  0.00    -0.204 F 
ATOM     23  C   UNL     1      34.024 -15.265 -23.965  0.00  0.00    +0.081 C 
ATOM     24  C   UNL     1      34.695 -15.371 -22.747  0.00  0.00    +0.144 C 
ATOM     25  C   UNL     1      33.826 -16.398 -24.753  0.00  0.00    +0.007 C 
ATOM     26  C   UNL     1      34.968 -17.744 -23.104  0.00  0.00    +0.074 C 
ATOM     27  C   UNL     1      35.167 -16.611 -22.316  0.00  0.00    +0.034 C 
ATOM     28  C   UNL     1      34.298 -17.638 -24.323  0.00  0.00    +0.004 C 
BRANCH  26  32
ATOM     29  F   UNL     1      34.925 -19.484 -21.463  0.00  0.00    -0.166 F 
ATOM     30  F   UNL     1      35.228 -20.084 -23.525  0.00  0.00    -0.166 F 
ATOM     31  F   UNL     1      36.823 -19.077 -22.444  0.00  0.00    -0.166 F 
ATOM     32  C   UNL     1      35.473 -19.070 -22.644  0.00  0.00    +0.419 C 
ENDBRANCH  26  32
ENDBRANCH  20  23
ENDBRANCH  17  19
ENDBRANCH   3  17
TORSDOF 10
ENDMDL
