MODEL 1
REMARK VINA RESULT:     -11.8      0.000      0.000
REMARK  Name = 657131
REMARK  7 active torsions:
REMARK  status: ('A' for Active; 'I' for Inactive)
REMARK    1  A    between atoms: C_1  and  CA_2
REMARK    2  A    between atoms: C_1  and  C_3
REMARK    3  A    between atoms: CA_2  and  C_28
REMARK    4  A    between atoms: C_4  and  O_9
REMARK    5  A    between atoms: O_9  and  C_11
REMARK    6  A    between atoms: C_19  and  C_21
REMARK    7  A    between atoms: C_28  and  O_29
REMARK                            x       y       z     vdW  Elec       q    Type
REMARK                         _______ _______ _______ _____ _____    ______ ____
ROOT
ATOM      1  C   UNL     1      34.942 -14.755 -22.649  0.00  0.00    +0.074 C 
ENDROOT
BRANCH   1   2
ATOM      2  C   UNL     1      33.912 -13.773 -22.354  0.00  0.00    -0.016 C 
ATOM      3  C   UNL     1      31.935 -11.886 -21.792  0.00  0.00    +0.145 C 
ATOM      4  C   UNL     1      33.113 -13.916 -21.220  0.00  0.00    -0.001 C 
ATOM      5  C   UNL     1      33.722 -12.685 -23.207  0.00  0.00    -0.001 C 
ATOM      6  C   UNL     1      32.124 -12.973 -20.938  0.00  0.00    +0.037 C 
ATOM      7  C   UNL     1      32.734 -11.741 -22.926  0.00  0.00    +0.037 C 
BRANCH   3   8
ATOM      8  O   UNL     1      30.971 -10.965 -21.516  0.00  0.00    -0.453 OA
BRANCH   8  10
ATOM      9 BR   UNL     1      31.733 -10.317 -18.559  0.00  0.00    -0.046 Br
ATOM     10  C   UNL     1      31.369  -9.651 -21.335  0.00  0.00    +0.151 C 
ATOM     11  C   UNL     1      31.742  -9.192 -20.084  0.00  0.00    +0.069 C 
ATOM     12  C   UNL     1      31.378  -8.822 -22.444  0.00  0.00    +0.038 C 
ATOM     13  C   UNL     1      32.136  -7.862 -19.937  0.00  0.00    +0.010 C 
ATOM     14  C   UNL     1      31.773  -7.492 -22.296  0.00  0.00    +0.003 C 
ATOM     15  C   UNL     1      32.152  -7.012 -21.043  0.00  0.00    +0.001 C 
ENDBRANCH   8  10
ENDBRANCH   3   8
ENDBRANCH   1   2
BRANCH   1  16
ATOM     16  CA  UNL     1      34.740 -16.050 -22.986  0.00  0.00    +0.108 C 
ATOM     17  O   UNL     1      34.351 -18.817 -23.570  0.00  0.00    -0.270 OA
ATOM     18  N   UNL     1      34.945 -17.093 -22.126  0.00  0.00    -0.278 N 
ATOM     19  C   UNL     1      34.737 -18.419 -22.473  0.00  0.00    +0.249 C 
ATOM     20  H   UNL     1      35.256 -16.892 -21.214  0.00  0.00    +0.155 HD
BRANCH  19  21
ATOM     21  C   UNL     1      35.036 -19.414 -21.411  0.00  0.00    +0.054 C 
ATOM     22  C   UNL     1      34.003 -20.172 -20.899  0.00  0.00    +0.005 C 
ATOM     23  C   UNL     1      36.336 -19.551 -20.974  0.00  0.00    +0.005 C 
ATOM     24  C   UNL     1      34.283 -21.106 -19.903  0.00  0.00    +0.000 C 
ATOM     25  C   UNL     1      36.617 -20.486 -19.977  0.00  0.00    +0.000 C 
ATOM     26  C   UNL     1      35.589 -21.263 -19.442  0.00  0.00    +0.000 C 
ENDBRANCH  19  21
BRANCH  16  28
ATOM     27  OXT UNL     1      33.133 -16.292 -24.767  0.00  0.00    -0.244 OA
ATOM     28  C   UNL     1      34.287 -16.354 -24.369  0.00  0.00    +0.348 C 
BRANCH  28  29
ATOM     29  O   UNL     1      35.332 -16.717 -25.151  0.00  0.00    -0.476 OA
ATOM     30  H   UNL     1      35.178 -17.153 -25.966  0.00  0.00    +0.295 HD
ENDBRANCH  28  29
ENDBRANCH  16  28
ENDBRANCH   1  16
TORSDOF 7
ENDMDL
MODEL 2
REMARK VINA RESULT:     -11.5      1.188      2.082
REMARK  Name = 657131
REMARK  7 active torsions:
REMARK  status: ('A' for Active; 'I' for Inactive)
REMARK    1  A    between atoms: C_1  and  CA_2
REMARK    2  A    between atoms: C_1  and  C_3
REMARK    3  A    between atoms: CA_2  and  C_28
REMARK    4  A    between atoms: C_4  and  O_9
REMARK    5  A    between atoms: O_9  and  C_11
REMARK    6  A    between atoms: C_19  and  C_21
REMARK    7  A    between atoms: C_28  and  O_29
REMARK                            x       y       z     vdW  Elec       q    Type
REMARK                         _______ _______ _______ _____ _____    ______ ____
ROOT
ATOM      1  C   UNL     1      35.020 -15.214 -22.535  0.00  0.00    +0.074 C 
ENDROOT
BRANCH   1   2
ATOM      2  C   UNL     1      34.008 -14.181 -22.386  0.00  0.00    -0.016 C 
ATOM      3  C   UNL     1      32.064 -12.201 -22.097  0.00  0.00    +0.145 C 
ATOM      4  C   UNL     1      33.933 -13.137 -23.308  0.00  0.00    -0.001 C 
ATOM      5  C   UNL     1      33.110 -14.235 -21.319  0.00  0.00    -0.001 C 
ATOM      6  C   UNL     1      32.961 -12.147 -23.163  0.00  0.00    +0.037 C 
ATOM      7  C   UNL     1      32.138 -13.244 -21.175  0.00  0.00    +0.037 C 
BRANCH   3   8
ATOM      8  O   UNL     1      31.116 -11.235 -21.957  0.00  0.00    -0.453 OA
BRANCH   8  10
ATOM      9 BR   UNL     1      31.764  -8.620 -23.534  0.00  0.00    -0.046 Br
ATOM     10  C   UNL     1      31.406 -10.162 -21.130  0.00  0.00    +0.151 C 
ATOM     11  C   UNL     1      31.716  -8.923 -21.663  0.00  0.00    +0.069 C 
ATOM     12  C   UNL     1      31.373 -10.375 -19.763  0.00  0.00    +0.038 C 
ATOM     13  C   UNL     1      32.003  -7.864 -20.802  0.00  0.00    +0.010 C 
ATOM     14  C   UNL     1      31.659  -9.315 -18.902  0.00  0.00    +0.003 C 
ATOM     15  C   UNL     1      31.974  -8.060 -19.422  0.00  0.00    +0.001 C 
ENDBRANCH   8  10
ENDBRANCH   3   8
ENDBRANCH   1   2
BRANCH   1  16
ATOM     16  CA  UNL     1      34.800 -16.509 -22.859  0.00  0.00    +0.108 C 
ATOM     17  O   UNL     1      34.359 -19.275 -23.412  0.00  0.00    -0.270 OA
ATOM     18  N   UNL     1      34.891 -17.537 -21.961  0.00  0.00    -0.278 N 
ATOM     19  C   UNL     1      34.664 -18.863 -22.295  0.00  0.00    +0.249 C 
ATOM     20  H   UNL     1      35.130 -17.323 -21.031  0.00  0.00    +0.155 HD
BRANCH  19  21
ATOM     21  C   UNL     1      34.834 -19.840 -21.188  0.00  0.00    +0.054 C 
ATOM     22  C   UNL     1      36.109 -20.138 -20.754  0.00  0.00    +0.005 C 
ATOM     23  C   UNL     1      33.712 -20.416 -20.630  0.00  0.00    +0.005 C 
ATOM     24  C   UNL     1      36.269 -21.054 -19.715  0.00  0.00    +0.000 C 
ATOM     25  C   UNL     1      33.873 -21.333 -19.591  0.00  0.00    +0.000 C 
ATOM     26  C   UNL     1      35.152 -21.652 -19.134  0.00  0.00    +0.000 C 
ENDBRANCH  19  21
BRANCH  16  28
ATOM     27  OXT UNL     1      35.245 -16.872 -25.200  0.00  0.00    -0.244 OA
ATOM     28  C   UNL     1      34.455 -16.833 -24.269  0.00  0.00    +0.348 C 
BRANCH  28  29
ATOM     29  O   UNL     1      33.130 -17.083 -24.398  0.00  0.00    -0.476 OA
ATOM     30  H   UNL     1      32.656 -16.735 -25.127  0.00  0.00    +0.295 HD
ENDBRANCH  28  29
ENDBRANCH  16  28
ENDBRANCH   1  16
TORSDOF 7
ENDMDL
MODEL 3
REMARK VINA RESULT:     -11.0      4.820      8.200
REMARK  Name = 657131
REMARK  7 active torsions:
REMARK  status: ('A' for Active; 'I' for Inactive)
REMARK    1  A    between atoms: C_1  and  CA_2
REMARK    2  A    between atoms: C_1  and  C_3
REMARK    3  A    between atoms: CA_2  and  C_28
REMARK    4  A    between atoms: C_4  and  O_9
REMARK    5  A    between atoms: O_9  and  C_11
REMARK    6  A    between atoms: C_19  and  C_21
REMARK    7  A    between atoms: C_28  and  O_29
REMARK                            x       y       z     vdW  Elec       q    Type
REMARK                         _______ _______ _______ _____ _____    ______ ____
ROOT
ATOM      1  C   UNL     1      35.482 -22.273 -19.271  0.00  0.00    +0.074 C 
ENDROOT
BRANCH   1   2
ATOM      2  C   UNL     1      35.582 -21.043 -20.040  0.00  0.00    -0.016 C 
ATOM      3  C   UNL     1      35.772 -18.684 -21.517  0.00  0.00    +0.145 C 
ATOM      4  C   UNL     1      36.810 -20.391 -20.159  0.00  0.00    -0.001 C 
ATOM      5  C   UNL     1      34.450 -20.516 -20.661  0.00  0.00    -0.001 C 
ATOM      6  C   UNL     1      36.905 -19.211 -20.897  0.00  0.00    +0.037 C 
ATOM      7  C   UNL     1      34.545 -19.336 -21.399  0.00  0.00    +0.037 C 
BRANCH   3   8
ATOM      8  O   UNL     1      35.865 -17.534 -22.238  0.00  0.00    -0.453 OA
BRANCH   8  10
ATOM      9 BR   UNL     1      34.572 -16.040 -24.655  0.00  0.00    -0.046 Br
ATOM     10  C   UNL     1      35.073 -16.465 -21.852  0.00  0.00    +0.151 C 
ATOM     11  C   UNL     1      34.422 -15.692 -22.798  0.00  0.00    +0.069 C 
ATOM     12  C   UNL     1      34.957 -16.204 -20.498  0.00  0.00    +0.038 C 
ATOM     13  C   UNL     1      33.631 -14.623 -22.375  0.00  0.00    +0.010 C 
ATOM     14  C   UNL     1      34.166 -15.135 -20.076  0.00  0.00    +0.003 C 
ATOM     15  C   UNL     1      33.503 -14.345 -21.014  0.00  0.00    +0.001 C 
ENDBRANCH   8  10
ENDBRANCH   3   8
ENDBRANCH   1   2
BRANCH   1  16
ATOM     16  CA  UNL     1      35.432 -22.371 -17.922  0.00  0.00    +0.108 C 
ATOM     17  O   UNL     1      35.200 -22.626 -15.089  0.00  0.00    -0.270 OA
ATOM     18  N   UNL     1      34.330 -22.804 -17.238  0.00  0.00    -0.278 N 
ATOM     19  C   UNL     1      34.281 -22.905 -15.857  0.00  0.00    +0.249 C 
ATOM     20  H   UNL     1      33.531 -23.057 -17.754  0.00  0.00    +0.155 HD
BRANCH  19  21
ATOM     21  C   UNL     1      32.988 -23.373 -15.293  0.00  0.00    +0.054 C 
ATOM     22  C   UNL     1      31.861 -23.326 -16.087  0.00  0.00    +0.005 C 
ATOM     23  C   UNL     1      32.958 -23.841 -13.997  0.00  0.00    +0.005 C 
ATOM     24  C   UNL     1      30.648 -23.766 -15.559  0.00  0.00    +0.000 C 
ATOM     25  C   UNL     1      31.744 -24.281 -13.469  0.00  0.00    +0.000 C 
ATOM     26  C   UNL     1      30.588 -24.243 -14.250  0.00  0.00    +0.000 C 
ENDBRANCH  19  21
BRANCH  16  28
ATOM     27  OXT UNL     1      36.981 -20.824 -16.912  0.00  0.00    -0.244 OA
ATOM     28  C   UNL     1      36.634 -21.973 -17.143  0.00  0.00    +0.348 C 
BRANCH  28  29
ATOM     29  O   UNL     1      37.315 -23.063 -16.713  0.00  0.00    -0.476 OA
ATOM     30  H   UNL     1      37.764 -23.040 -15.891  0.00  0.00    +0.295 HD
ENDBRANCH  28  29
ENDBRANCH  16  28
ENDBRANCH   1  16
TORSDOF 7
ENDMDL
MODEL 4
REMARK VINA RESULT:     -10.9      3.126      9.754
REMARK  Name = 657131
REMARK  7 active torsions:
REMARK  status: ('A' for Active; 'I' for Inactive)
REMARK    1  A    between atoms: C_1  and  CA_2
REMARK    2  A    between atoms: C_1  and  C_3
REMARK    3  A    between atoms: CA_2  and  C_28
REMARK    4  A    between atoms: C_4  and  O_9
REMARK    5  A    between atoms: O_9  and  C_11
REMARK    6  A    between atoms: C_19  and  C_21
REMARK    7  A    between atoms: C_28  and  O_29
REMARK                            x       y       z     vdW  Elec       q    Type
REMARK                         _______ _______ _______ _____ _____    ______ ____
ROOT
ATOM      1  C   UNL     1      31.563 -11.857 -20.994  0.00  0.00    +0.074 C 
ENDROOT
BRANCH   1   2
ATOM      2  C   UNL     1      32.539 -12.849 -21.414  0.00  0.00    -0.016 C 
ATOM      3  C   UNL     1      34.413 -14.752 -22.223  0.00  0.00    +0.145 C 
ATOM      4  C   UNL     1      32.937 -13.855 -20.534  0.00  0.00    -0.001 C 
ATOM      5  C   UNL     1      33.078 -12.796 -22.700  0.00  0.00    -0.001 C 
ATOM      6  C   UNL     1      33.874 -14.807 -20.937  0.00  0.00    +0.037 C 
ATOM      7  C   UNL     1      34.015 -13.747 -23.104  0.00  0.00    +0.037 C 
BRANCH   3   8
ATOM      8  O   UNL     1      35.325 -15.681 -22.617  0.00  0.00    -0.453 OA
BRANCH   8  10
ATOM      9 BR   UNL     1      36.086 -18.264 -21.037  0.00  0.00    -0.046 Br
ATOM     10  C   UNL     1      34.852 -16.838 -23.212  0.00  0.00    +0.151 C 
ATOM     11  C   UNL     1      35.098 -18.076 -22.644  0.00  0.00    +0.069 C 
ATOM     12  C   UNL     1      34.129 -16.710 -24.386  0.00  0.00    +0.038 C 
ATOM     13  C   UNL     1      34.606 -19.222 -23.270  0.00  0.00    +0.010 C 
ATOM     14  C   UNL     1      33.637 -17.857 -25.011  0.00  0.00    +0.003 C 
ATOM     15  C   UNL     1      33.876 -19.112 -24.453  0.00  0.00    +0.001 C 
ENDBRANCH   8  10
ENDBRANCH   3   8
ENDBRANCH   1   2
BRANCH   1  16
ATOM     16  CA  UNL     1      31.825 -10.579 -20.634  0.00  0.00    +0.108 C 
ATOM     17  O   UNL     1      32.421  -7.860 -20.002  0.00  0.00    -0.270 OA
ATOM     18  N   UNL     1      32.352  -9.649 -21.486  0.00  0.00    -0.278 N 
ATOM     19  C   UNL     1      32.619  -8.340 -21.116  0.00  0.00    +0.249 C 
ATOM     20  H   UNL     1      32.552  -9.923 -22.410  0.00  0.00    +0.155 HD
BRANCH  19  21
ATOM     21  C   UNL     1      33.213  -7.482 -22.174  0.00  0.00    +0.054 C 
ATOM     22  C   UNL     1      34.453  -7.813 -22.680  0.00  0.00    +0.005 C 
ATOM     23  C   UNL     1      32.504  -6.387 -22.619  0.00  0.00    +0.005 C 
ATOM     24  C   UNL     1      35.010  -7.009 -23.673  0.00  0.00    +0.000 C 
ATOM     25  C   UNL     1      33.062  -5.582 -23.613  0.00  0.00    +0.000 C 
ATOM     26  C   UNL     1      34.315  -5.893 -24.140  0.00  0.00    +0.000 C 
ENDBRANCH  19  21
BRANCH  16  28
ATOM     27  OXT UNL     1      30.431  -9.931 -18.777  0.00  0.00    -0.244 OA
ATOM     28  C   UNL     1      31.539 -10.171 -19.234  0.00  0.00    +0.348 C 
BRANCH  28  29
ATOM     29  O   UNL     1      32.682 -10.093 -18.510  0.00  0.00    -0.476 OA
ATOM     30  H   UNL     1      33.116  -9.270 -18.406  0.00  0.00    +0.295 HD
ENDBRANCH  28  29
ENDBRANCH  16  28
ENDBRANCH   1  16
TORSDOF 7
ENDMDL
MODEL 5
REMARK VINA RESULT:     -10.9      3.001      9.805
REMARK  Name = 657131
REMARK  7 active torsions:
REMARK  status: ('A' for Active; 'I' for Inactive)
REMARK    1  A    between atoms: C_1  and  CA_2
REMARK    2  A    between atoms: C_1  and  C_3
REMARK    3  A    between atoms: CA_2  and  C_28
REMARK    4  A    between atoms: C_4  and  O_9
REMARK    5  A    between atoms: O_9  and  C_11
REMARK    6  A    between atoms: C_19  and  C_21
REMARK    7  A    between atoms: C_28  and  O_29
REMARK                            x       y       z     vdW  Elec       q    Type
REMARK                         _______ _______ _______ _____ _____    ______ ____
ROOT
ATOM      1  C   UNL     1      31.584 -11.964 -21.024  0.00  0.00    +0.074 C 
ENDROOT
BRANCH   1   2
ATOM      2  C   UNL     1      32.598 -12.926 -21.421  0.00  0.00    -0.016 C 
ATOM      3  C   UNL     1      34.544 -14.773 -22.188  0.00  0.00    +0.145 C 
ATOM      4  C   UNL     1      33.080 -13.856 -20.500  0.00  0.00    -0.001 C 
ATOM      5  C   UNL     1      33.090 -12.921 -22.727  0.00  0.00    -0.001 C 
ATOM      6  C   UNL     1      34.052 -14.779 -20.882  0.00  0.00    +0.037 C 
ATOM      7  C   UNL     1      34.062 -13.845 -23.110  0.00  0.00    +0.037 C 
BRANCH   3   8
ATOM      8  O   UNL     1      35.492 -15.675 -22.561  0.00  0.00    -0.453 OA
BRANCH   8  10
ATOM      9 BR   UNL     1      34.003 -16.831 -25.050  0.00  0.00    -0.046 Br
ATOM     10  C   UNL     1      35.188 -17.020 -22.434  0.00  0.00    +0.151 C 
ATOM     11  C   UNL     1      34.527 -17.694 -23.446  0.00  0.00    +0.069 C 
ATOM     12  C   UNL     1      35.567 -17.658 -21.265  0.00  0.00    +0.038 C 
ATOM     13  C   UNL     1      34.237 -19.049 -23.285  0.00  0.00    +0.010 C 
ATOM     14  C   UNL     1      35.277 -19.013 -21.105  0.00  0.00    +0.003 C 
ATOM     15  C   UNL     1      34.612 -19.708 -22.114  0.00  0.00    +0.001 C 
ENDBRANCH   8  10
ENDBRANCH   3   8
ENDBRANCH   1   2
BRANCH   1  16
ATOM     16  CA  UNL     1      31.801 -10.681 -20.649  0.00  0.00    +0.108 C 
ATOM     17  O   UNL     1      32.303  -7.951 -19.986  0.00  0.00    -0.270 OA
ATOM     18  N   UNL     1      32.312  -9.728 -21.486  0.00  0.00    -0.278 N 
ATOM     19  C   UNL     1      32.533  -8.415 -21.101  0.00  0.00    +0.249 C 
ATOM     20  H   UNL     1      32.534  -9.988 -22.409  0.00  0.00    +0.155 HD
BRANCH  19  21
ATOM     21  C   UNL     1      33.116  -7.530 -22.143  0.00  0.00    +0.054 C 
ATOM     22  C   UNL     1      32.367  -6.470 -22.610  0.00  0.00    +0.005 C 
ATOM     23  C   UNL     1      34.386  -7.797 -22.607  0.00  0.00    +0.005 C 
ATOM     24  C   UNL     1      32.914  -5.640 -23.587  0.00  0.00    +0.000 C 
ATOM     25  C   UNL     1      34.934  -6.966 -23.585  0.00  0.00    +0.000 C 
ATOM     26  C   UNL     1      34.197  -5.887 -24.075  0.00  0.00    +0.000 C 
ENDBRANCH  19  21
BRANCH  16  28
ATOM     27  OXT UNL     1      30.360 -10.087 -18.810  0.00  0.00    -0.244 OA
ATOM     28  C   UNL     1      31.482 -10.294 -19.250  0.00  0.00    +0.348 C 
BRANCH  28  29
ATOM     29  O   UNL     1      32.609 -10.194 -18.506  0.00  0.00    -0.476 OA
ATOM     30  H   UNL     1      32.674  -9.541 -17.838  0.00  0.00    +0.295 HD
ENDBRANCH  28  29
ENDBRANCH  16  28
ENDBRANCH   1  16
TORSDOF 7
ENDMDL
MODEL 6
REMARK VINA RESULT:     -10.9      4.285     10.118
REMARK  Name = 657131
REMARK  7 active torsions:
REMARK  status: ('A' for Active; 'I' for Inactive)
REMARK    1  A    between atoms: C_1  and  CA_2
REMARK    2  A    between atoms: C_1  and  C_3
REMARK    3  A    between atoms: CA_2  and  C_28
REMARK    4  A    between atoms: C_4  and  O_9
REMARK    5  A    between atoms: O_9  and  C_11
REMARK    6  A    between atoms: C_19  and  C_21
REMARK    7  A    between atoms: C_28  and  O_29
REMARK                            x       y       z     vdW  Elec       q    Type
REMARK                         _______ _______ _______ _____ _____    ______ ____
ROOT
ATOM      1  C   UNL     1      35.582 -18.962 -21.108  0.00  0.00    +0.074 C 
ENDROOT
BRANCH   1   2
ATOM      2  C   UNL     1      35.247 -20.153 -20.345  0.00  0.00    -0.016 C 
ATOM      3  C   UNL     1      34.606 -22.440 -18.882  0.00  0.00    +0.145 C 
ATOM      4  C   UNL     1      33.912 -20.511 -20.158  0.00  0.00    -0.001 C 
ATOM      5  C   UNL     1      36.262 -20.940 -19.801  0.00  0.00    -0.001 C 
ATOM      6  C   UNL     1      33.591 -21.654 -19.426  0.00  0.00    +0.037 C 
ATOM      7  C   UNL     1      35.941 -22.084 -19.069  0.00  0.00    +0.037 C 
BRANCH   3   8
ATOM      8  O   UNL     1      34.294 -23.556 -18.168  0.00  0.00    -0.453 OA
BRANCH   8  10
ATOM      9 BR   UNL     1      36.151 -23.375 -15.665  0.00  0.00    -0.046 Br
ATOM     10  C   UNL     1      33.593 -23.390 -16.986  0.00  0.00    +0.151 C 
ATOM     11  C   UNL     1      34.260 -23.291 -15.777  0.00  0.00    +0.069 C 
ATOM     12  C   UNL     1      32.212 -23.327 -17.058  0.00  0.00    +0.038 C 
ATOM     13  C   UNL     1      33.523 -23.124 -14.604  0.00  0.00    +0.010 C 
ATOM     14  C   UNL     1      31.475 -23.160 -15.885  0.00  0.00    +0.003 C 
ATOM     15  C   UNL     1      32.131 -23.058 -14.658  0.00  0.00    +0.001 C 
ENDBRANCH   8  10
ENDBRANCH   3   8
ENDBRANCH   1   2
BRANCH   1  16
ATOM     16  CA  UNL     1      35.047 -18.596 -22.296  0.00  0.00    +0.108 C 
ATOM     17  O   UNL     1      33.930 -17.695 -24.764  0.00  0.00    -0.270 OA
ATOM     18  N   UNL     1      34.808 -17.297 -22.647  0.00  0.00    -0.278 N 
ATOM     19  C   UNL     1      34.262 -16.924 -23.866  0.00  0.00    +0.249 C 
ATOM     20  H   UNL     1      35.037 -16.590 -22.002  0.00  0.00    +0.155 HD
BRANCH  19  21
ATOM     21  C   UNL     1      34.055 -15.465 -24.056  0.00  0.00    +0.054 C 
ATOM     22  C   UNL     1      33.553 -15.016 -25.260  0.00  0.00    +0.005 C 
ATOM     23  C   UNL     1      34.369 -14.607 -23.023  0.00  0.00    +0.005 C 
ATOM     24  C   UNL     1      33.358 -13.647 -25.438  0.00  0.00    +0.000 C 
ATOM     25  C   UNL     1      34.174 -13.238 -23.202  0.00  0.00    +0.000 C 
ATOM     26  C   UNL     1      33.669 -12.757 -24.410  0.00  0.00    +0.000 C 
ENDBRANCH  19  21
BRANCH  16  28
ATOM     27  OXT UNL     1      35.478 -20.311 -23.935  0.00  0.00    -0.244 OA
ATOM     28  C   UNL     1      34.686 -19.666 -23.264  0.00  0.00    +0.348 C 
BRANCH  28  29
ATOM     29  O   UNL     1      33.344 -19.840 -23.314  0.00  0.00    -0.476 OA
ATOM     30  H   UNL     1      32.777 -19.248 -22.860  0.00  0.00    +0.295 HD
ENDBRANCH  28  29
ENDBRANCH  16  28
ENDBRANCH   1  16
TORSDOF 7
ENDMDL
MODEL 7
REMARK VINA RESULT:     -10.8      4.602      7.934
REMARK  Name = 657131
REMARK  7 active torsions:
REMARK  status: ('A' for Active; 'I' for Inactive)
REMARK    1  A    between atoms: C_1  and  CA_2
REMARK    2  A    between atoms: C_1  and  C_3
REMARK    3  A    between atoms: CA_2  and  C_28
REMARK    4  A    between atoms: C_4  and  O_9
REMARK    5  A    between atoms: O_9  and  C_11
REMARK    6  A    between atoms: C_19  and  C_21
REMARK    7  A    between atoms: C_28  and  O_29
REMARK                            x       y       z     vdW  Elec       q    Type
REMARK                         _______ _______ _______ _____ _____    ______ ____
ROOT
ATOM      1  C   UNL     1      36.108 -21.878 -19.073  0.00  0.00    +0.074 C 
ENDROOT
BRANCH   1   2
ATOM      2  C   UNL     1      35.935 -20.761 -19.986  0.00  0.00    -0.016 C 
ATOM      3  C   UNL     1      35.605 -18.614 -21.738  0.00  0.00    +0.145 C 
ATOM      4  C   UNL     1      34.706 -20.554 -20.613  0.00  0.00    -0.001 C 
ATOM      5  C   UNL     1      36.999 -19.893 -20.235  0.00  0.00    -0.001 C 
ATOM      6  C   UNL     1      34.541 -19.480 -21.489  0.00  0.00    +0.037 C 
ATOM      7  C   UNL     1      36.834 -18.820 -21.111  0.00  0.00    +0.037 C 
BRANCH   3   8
ATOM      8  O   UNL     1      35.444 -17.567 -22.591  0.00  0.00    -0.453 OA
BRANCH   8  10
ATOM      9 BR   UNL     1      34.101 -15.837 -24.817  0.00  0.00    -0.046 Br
ATOM     10  C   UNL     1      34.845 -16.419 -22.098  0.00  0.00    +0.151 C 
ATOM     11  C   UNL     1      34.202 -15.537 -22.948  0.00  0.00    +0.069 C 
ATOM     12  C   UNL     1      34.914 -16.192 -20.734  0.00  0.00    +0.038 C 
ATOM     13  C   UNL     1      33.610 -14.390 -22.418  0.00  0.00    +0.010 C 
ATOM     14  C   UNL     1      34.321 -15.046 -20.204  0.00  0.00    +0.003 C 
ATOM     15  C   UNL     1      33.669 -14.145 -21.046  0.00  0.00    +0.001 C 
ENDBRANCH   8  10
ENDBRANCH   3   8
ENDBRANCH   1   2
BRANCH   1  16
ATOM     16  CA  UNL     1      35.145 -22.441 -18.306  0.00  0.00    +0.108 C 
ATOM     17  O   UNL     1      33.202 -23.623 -16.581  0.00  0.00    -0.270 OA
ATOM     18  N   UNL     1      35.315 -22.740 -16.983  0.00  0.00    -0.278 N 
ATOM     19  C   UNL     1      34.328 -23.315 -16.198  0.00  0.00    +0.249 C 
ATOM     20  H   UNL     1      36.184 -22.536 -16.566  0.00  0.00    +0.155 HD
BRANCH  19  21
ATOM     21  C   UNL     1      34.708 -23.588 -14.787  0.00  0.00    +0.054 C 
ATOM     22  C   UNL     1      33.784 -24.181 -13.952  0.00  0.00    +0.005 C 
ATOM     23  C   UNL     1      35.972 -23.241 -14.359  0.00  0.00    +0.005 C 
ATOM     24  C   UNL     1      34.140 -24.438 -12.629  0.00  0.00    +0.000 C 
ATOM     25  C   UNL     1      36.328 -23.498 -13.035  0.00  0.00    +0.000 C 
ATOM     26  C   UNL     1      35.412 -24.096 -12.170  0.00  0.00    +0.000 C 
ENDBRANCH  19  21
BRANCH  16  28
ATOM     27  OXT UNL     1      32.869 -22.024 -18.983  0.00  0.00    -0.244 OA
ATOM     28  C   UNL     1      33.840 -22.765 -18.940  0.00  0.00    +0.348 C 
BRANCH  28  29
ATOM     29  O   UNL     1      33.858 -24.010 -19.474  0.00  0.00    -0.476 OA
ATOM     30  H   UNL     1      34.671 -24.401 -19.724  0.00  0.00    +0.295 HD
ENDBRANCH  28  29
ENDBRANCH  16  28
ENDBRANCH   1  16
TORSDOF 7
ENDMDL
MODEL 8
REMARK VINA RESULT:     -10.7      3.267      9.653
REMARK  Name = 657131
REMARK  7 active torsions:
REMARK  status: ('A' for Active; 'I' for Inactive)
REMARK    1  A    between atoms: C_1  and  CA_2
REMARK    2  A    between atoms: C_1  and  C_3
REMARK    3  A    between atoms: CA_2  and  C_28
REMARK    4  A    between atoms: C_4  and  O_9
REMARK    5  A    between atoms: O_9  and  C_11
REMARK    6  A    between atoms: C_19  and  C_21
REMARK    7  A    between atoms: C_28  and  O_29
REMARK                            x       y       z     vdW  Elec       q    Type
REMARK                         _______ _______ _______ _____ _____    ______ ____
ROOT
ATOM      1  C   UNL     1      35.936 -17.696 -22.223  0.00  0.00    +0.074 C 
ENDROOT
BRANCH   1   2
ATOM      2  C   UNL     1      35.587 -18.859 -21.423  0.00  0.00    -0.016 C 
ATOM      3  C   UNL     1      34.920 -21.091 -19.889  0.00  0.00    +0.145 C 
ATOM      4  C   UNL     1      34.259 -19.276 -21.339  0.00  0.00    -0.001 C 
ATOM      5  C   UNL     1      36.582 -19.559 -20.740  0.00  0.00    -0.001 C 
ATOM      6  C   UNL     1      33.925 -20.392 -20.572  0.00  0.00    +0.037 C 
ATOM      7  C   UNL     1      36.248 -20.675 -19.973  0.00  0.00    +0.037 C 
BRANCH   3   8
ATOM      8  O   UNL     1      34.594 -22.181 -19.141  0.00  0.00    -0.453 OA
BRANCH   8  10
ATOM      9 BR   UNL     1      32.779 -23.453 -16.943  0.00  0.00    -0.046 Br
ATOM     10  C   UNL     1      35.247 -22.351 -17.932  0.00  0.00    +0.151 C 
ATOM     11  C   UNL     1      34.590 -22.903 -16.846  0.00  0.00    +0.069 C 
ATOM     12  C   UNL     1      36.570 -21.952 -17.852  0.00  0.00    +0.038 C 
ATOM     13  C   UNL     1      35.278 -23.061 -15.642  0.00  0.00    +0.010 C 
ATOM     14  C   UNL     1      37.258 -22.111 -16.648  0.00  0.00    +0.003 C 
ATOM     15  C   UNL     1      36.611 -22.665 -15.544  0.00  0.00    +0.001 C 
ENDBRANCH   8  10
ENDBRANCH   3   8
ENDBRANCH   1   2
BRANCH   1  16
ATOM     16  CA  UNL     1      35.071 -16.885 -22.875  0.00  0.00    +0.108 C 
ATOM     17  O   UNL     1      33.238 -15.098 -24.138  0.00  0.00    -0.270 OA
ATOM     18  N   UNL     1      34.478 -15.796 -22.299  0.00  0.00    -0.278 N 
ATOM     19  C   UNL     1      33.594 -14.965 -22.969  0.00  0.00    +0.249 C 
ATOM     20  H   UNL     1      34.691 -15.591 -21.360  0.00  0.00    +0.155 HD
BRANCH  19  21
ATOM     21  C   UNL     1      33.034 -13.845 -22.169  0.00  0.00    +0.054 C 
ATOM     22  C   UNL     1      32.735 -12.658 -22.804  0.00  0.00    +0.005 C 
ATOM     23  C   UNL     1      32.829 -14.030 -20.818  0.00  0.00    +0.005 C 
ATOM     24  C   UNL     1      32.210 -11.607 -22.054  0.00  0.00    +0.000 C 
ATOM     25  C   UNL     1      32.303 -12.979 -20.067  0.00  0.00    +0.000 C 
ATOM     26  C   UNL     1      31.993 -11.767 -20.686  0.00  0.00    +0.000 C 
ENDBRANCH  19  21
BRANCH  16  28
ATOM     27  OXT UNL     1      33.977 -18.090 -24.654  0.00  0.00    -0.244 OA
ATOM     28  C   UNL     1      34.737 -17.205 -24.288  0.00  0.00    +0.348 C 
BRANCH  28  29
ATOM     29  O   UNL     1      35.392 -16.379 -25.139  0.00  0.00    -0.476 OA
ATOM     30  H   UNL     1      34.936 -15.669 -25.547  0.00  0.00    +0.295 HD
ENDBRANCH  28  29
ENDBRANCH  16  28
ENDBRANCH   1  16
TORSDOF 7
ENDMDL
MODEL 9
REMARK VINA RESULT:     -10.6      4.154     10.105
REMARK  Name = 657131
REMARK  7 active torsions:
REMARK  status: ('A' for Active; 'I' for Inactive)
REMARK    1  A    between atoms: C_1  and  CA_2
REMARK    2  A    between atoms: C_1  and  C_3
REMARK    3  A    between atoms: CA_2  and  C_28
REMARK    4  A    between atoms: C_4  and  O_9
REMARK    5  A    between atoms: O_9  and  C_11
REMARK    6  A    between atoms: C_19  and  C_21
REMARK    7  A    between atoms: C_28  and  O_29
REMARK                            x       y       z     vdW  Elec       q    Type
REMARK                         _______ _______ _______ _____ _____    ______ ____
ROOT
ATOM      1  C   UNL     1      35.418 -19.365 -21.457  0.00  0.00    +0.074 C 
ENDROOT
BRANCH   1   2
ATOM      2  C   UNL     1      34.746 -20.327 -20.599  0.00  0.00    -0.016 C 
ATOM      3  C   UNL     1      33.454 -22.170 -18.951  0.00  0.00    +0.145 C 
ATOM      4  C   UNL     1      35.480 -21.326 -19.960  0.00  0.00    -0.001 C 
ATOM      5  C   UNL     1      33.365 -20.249 -20.413  0.00  0.00    -0.001 C 
ATOM      6  C   UNL     1      34.834 -22.248 -19.136  0.00  0.00    +0.037 C 
ATOM      7  C   UNL     1      32.720 -21.171 -19.589  0.00  0.00    +0.037 C 
BRANCH   3   8
ATOM      8  O   UNL     1      32.824 -23.069 -18.147  0.00  0.00    -0.453 OA
BRANCH   8  10
ATOM      9 BR   UNL     1      30.546 -23.366 -16.032  0.00  0.00    -0.046 Br
ATOM     10  C   UNL     1      33.301 -23.223 -16.856  0.00  0.00    +0.151 C 
ATOM     11  C   UNL     1      32.426 -23.369 -15.792  0.00  0.00    +0.069 C 
ATOM     12  C   UNL     1      34.673 -23.226 -16.671  0.00  0.00    +0.038 C 
ATOM     13  C   UNL     1      32.940 -23.522 -14.505  0.00  0.00    +0.010 C 
ATOM     14  C   UNL     1      35.186 -23.380 -15.383  0.00  0.00    +0.003 C 
ATOM     15  C   UNL     1      34.320 -23.527 -14.300  0.00  0.00    +0.001 C 
ENDBRANCH   8  10
ENDBRANCH   3   8
ENDBRANCH   1   2
BRANCH   1  16
ATOM     16  CA  UNL     1      34.926 -18.831 -22.600  0.00  0.00    +0.108 C 
ATOM     17  O   UNL     1      33.902 -17.582 -24.953  0.00  0.00    -0.270 OA
ATOM     18  N   UNL     1      34.739 -17.490 -22.785  0.00  0.00    -0.278 N 
ATOM     19  C   UNL     1      34.236 -16.945 -23.956  0.00  0.00    +0.249 C 
ATOM     20  H   UNL     1      34.974 -16.880 -22.049  0.00  0.00    +0.155 HD
BRANCH  19  21
ATOM     21  C   UNL     1      34.082 -15.467 -23.961  0.00  0.00    +0.054 C 
ATOM     22  C   UNL     1      34.466 -14.754 -22.844  0.00  0.00    +0.005 C 
ATOM     23  C   UNL     1      33.563 -14.855 -25.083  0.00  0.00    +0.005 C 
ATOM     24  C   UNL     1      34.323 -13.367 -22.849  0.00  0.00    +0.000 C 
ATOM     25  C   UNL     1      33.420 -13.468 -25.087  0.00  0.00    +0.000 C 
ATOM     26  C   UNL     1      33.799 -12.724 -23.970  0.00  0.00    +0.000 C 
ENDBRANCH  19  21
BRANCH  16  28
ATOM     27  OXT UNL     1      35.339 -20.409 -24.375  0.00  0.00    -0.244 OA
ATOM     28  C   UNL     1      34.555 -19.755 -23.704  0.00  0.00    +0.348 C 
BRANCH  28  29
ATOM     29  O   UNL     1      33.212 -19.781 -23.882  0.00  0.00    -0.476 OA
ATOM     30  H   UNL     1      32.728 -20.557 -23.676  0.00  0.00    +0.295 HD
ENDBRANCH  28  29
ENDBRANCH  16  28
ENDBRANCH   1  16
TORSDOF 7
ENDMDL
