MODEL 1
REMARK VINA RESULT:     -11.4      0.000      0.000
REMARK  Name = 16752640
REMARK  7 active torsions:
REMARK  status: ('A' for Active; 'I' for Inactive)
REMARK    1  A    between atoms: C_1  and  N_4
REMARK    2  A    between atoms: C_1  and  C_18
REMARK    3  A    between atoms: C_1  and  C_21
REMARK    4  A    between atoms: C_11  and  C_14
REMARK    5  A    between atoms: C_14  and  O_15
REMARK    6  A    between atoms: C_18  and  O_19
REMARK    7  A    between atoms: C_21  and  C_22
REMARK                            x       y       z     vdW  Elec       q    Type
REMARK                         _______ _______ _______ _____ _____    ______ ____
ROOT
ATOM      1  C   UNL     1      34.213 -23.721 -16.031  0.00  0.00    +0.186 C 
ENDROOT
BRANCH   1   4
ATOM      2  O   UNL     1      32.621 -22.699 -18.339  0.00  0.00    -0.269 OA
ATOM      3  O   UNL     1      36.901 -22.549 -16.569  0.00  0.00    -0.269 OA
ATOM      4  N   UNL     1      34.637 -22.878 -17.130  0.00  0.00    -0.213 N 
ATOM      5  C   UNL     1      34.630 -21.655 -19.037  0.00  0.00    +0.059 C 
ATOM      6  C   UNL     1      33.802 -22.471 -18.149  0.00  0.00    +0.256 C 
ATOM      7  C   UNL     1      35.921 -22.395 -17.274  0.00  0.00    +0.256 C 
ATOM      8  C   UNL     1      35.911 -21.610 -18.508  0.00  0.00    +0.058 C 
ATOM      9  C   UNL     1      34.300 -21.005 -20.207  0.00  0.00    +0.011 C 
ATOM     10  C   UNL     1      36.930 -20.911 -19.121  0.00  0.00    +0.005 C 
ATOM     11  C   UNL     1      35.317 -20.289 -20.847  0.00  0.00    +0.076 C 
ATOM     12  C   UNL     1      36.619 -20.244 -20.310  0.00  0.00    +0.007 C 
BRANCH  11  14
ATOM     13  O   UNL     1      33.990 -19.694 -22.747  0.00  0.00    -0.245 OA
ATOM     14  C   UNL     1      35.028 -19.583 -22.085  0.00  0.00    +0.338 C 
BRANCH  14  15
ATOM     15  O   UNL     1      36.042 -18.758 -22.462  0.00  0.00    -0.477 OA
ATOM     16  H   UNL     1      36.916 -18.927 -22.172  0.00  0.00    +0.295 HD
ENDBRANCH  14  15
ENDBRANCH  11  14
ENDBRANCH   1   4
BRANCH   1  18
ATOM     17  O   UNL     1      35.970 -25.289 -15.474  0.00  0.00    -0.248 OA
ATOM     18  C   UNL     1      35.410 -24.223 -15.235  0.00  0.00    +0.333 C 
BRANCH  18  19
ATOM     19  O   UNL     1      35.819 -23.399 -14.242  0.00  0.00    -0.479 OA
ATOM     20  H   UNL     1      35.300 -23.306 -13.467  0.00  0.00    +0.295 HD
ENDBRANCH  18  19
ENDBRANCH   1  18
BRANCH   1  21
ATOM     21  C   UNL     1      33.239 -22.984 -15.103  0.00  0.00    +0.058 C 
BRANCH  21  22
ATOM     22  C   UNL     1      32.153 -23.880 -14.556  0.00  0.00    -0.020 C 
ATOM     23  C   UNL     1      30.842 -23.852 -15.060  0.00  0.00    -0.004 C 
ATOM     24  C   UNL     1      29.871 -24.718 -14.504  0.00  0.00    -0.000 C 
ATOM     25  C   UNL     1      32.501 -24.748 -13.521  0.00  0.00    -0.004 C 
ATOM     26  C   UNL     1      30.475 -22.985 -16.100  0.00  0.00    -0.000 C 
ATOM     27  C   UNL     1      30.238 -25.586 -13.463  0.00  0.00    -0.000 C 
ATOM     28  C   UNL     1      31.544 -25.600 -12.975  0.00  0.00    -0.000 C 
ATOM     29  C   UNL     1      28.560 -24.691 -15.007  0.00  0.00    -0.000 C 
ATOM     30  C   UNL     1      29.168 -22.971 -16.588  0.00  0.00    -0.000 C 
ATOM     31  C   UNL     1      28.212 -23.822 -16.042  0.00  0.00    -0.000 C 
ENDBRANCH  21  22
ENDBRANCH   1  21
TORSDOF 7
ENDMDL
MODEL 2
REMARK VINA RESULT:     -10.8     10.916     15.131
REMARK  Name = 16752640
REMARK  7 active torsions:
REMARK  status: ('A' for Active; 'I' for Inactive)
REMARK    1  A    between atoms: C_1  and  N_4
REMARK    2  A    between atoms: C_1  and  C_18
REMARK    3  A    between atoms: C_1  and  C_21
REMARK    4  A    between atoms: C_11  and  C_14
REMARK    5  A    between atoms: C_14  and  O_15
REMARK    6  A    between atoms: C_18  and  O_19
REMARK    7  A    between atoms: C_21  and  C_22
REMARK                            x       y       z     vdW  Elec       q    Type
REMARK                         _______ _______ _______ _____ _____    ______ ____
ROOT
ATOM      1  C   UNL     1      31.690  -9.478 -20.487  0.00  0.00    +0.186 C 
ENDROOT
BRANCH   1   4
ATOM      2  O   UNL     1      31.989  -9.744 -23.444  0.00  0.00    -0.269 OA
ATOM      3  O   UNL     1      32.467 -12.197 -19.543  0.00  0.00    -0.269 OA
ATOM      4  N   UNL     1      32.102 -10.631 -21.263  0.00  0.00    -0.213 N 
ATOM      5  C   UNL     1      32.631 -11.981 -23.003  0.00  0.00    +0.059 C 
ATOM      6  C   UNL     1      32.200 -10.632 -22.639  0.00  0.00    +0.256 C 
ATOM      7  C   UNL     1      32.438 -11.848 -20.708  0.00  0.00    +0.256 C 
ATOM      8  C   UNL     1      32.775 -12.716 -21.836  0.00  0.00    +0.058 C 
ATOM      9  C   UNL     1      32.880 -12.527 -24.245  0.00  0.00    +0.011 C 
ATOM     10  C   UNL     1      33.176 -14.036 -21.849  0.00  0.00    +0.005 C 
ATOM     11  C   UNL     1      33.288 -13.864 -24.283  0.00  0.00    +0.076 C 
ATOM     12  C   UNL     1      33.433 -14.611 -23.097  0.00  0.00    +0.007 C 
BRANCH  11  14
ATOM     13  O   UNL     1      33.827 -13.895 -26.614  0.00  0.00    -0.245 OA
ATOM     14  C   UNL     1      33.566 -14.493 -25.564  0.00  0.00    +0.338 C 
BRANCH  14  15
ATOM     15  O   UNL     1      33.509 -15.851 -25.501  0.00  0.00    -0.477 OA
ATOM     16  H   UNL     1      33.354 -16.275 -24.680  0.00  0.00    +0.295 HD
ENDBRANCH  14  15
ENDBRANCH  11  14
ENDBRANCH   1   4
BRANCH   1  18
ATOM     17  O   UNL     1      30.143 -10.264 -18.800  0.00  0.00    -0.248 OA
ATOM     18  C   UNL     1      31.277  -9.888 -19.080  0.00  0.00    +0.333 C 
BRANCH  18  19
ATOM     19  O   UNL     1      32.263  -9.813 -18.154  0.00  0.00    -0.479 OA
ATOM     20  H   UNL     1      32.051  -9.639 -17.258  0.00  0.00    +0.295 HD
ENDBRANCH  18  19
ENDBRANCH   1  18
BRANCH   1  21
ATOM     21  C   UNL     1      32.800  -8.422 -20.421  0.00  0.00    +0.058 C 
BRANCH  21  22
ATOM     22  C   UNL     1      32.540  -7.237 -21.320  0.00  0.00    -0.020 C 
ATOM     23  C   UNL     1      33.407  -6.896 -22.370  0.00  0.00    -0.004 C 
ATOM     24  C   UNL     1      33.107  -5.773 -23.177  0.00  0.00    -0.000 C 
ATOM     25  C   UNL     1      31.394  -6.482 -21.067  0.00  0.00    -0.004 C 
ATOM     26  C   UNL     1      34.565  -7.643 -22.637  0.00  0.00    -0.000 C 
ATOM     27  C   UNL     1      31.948  -5.025 -22.910  0.00  0.00    -0.000 C 
ATOM     28  C   UNL     1      31.099  -5.378 -21.862  0.00  0.00    -0.000 C 
ATOM     29  C   UNL     1      33.974  -5.431 -24.228  0.00  0.00    -0.000 C 
ATOM     30  C   UNL     1      35.416  -7.289 -23.685  0.00  0.00    -0.000 C 
ATOM     31  C   UNL     1      35.121  -6.185 -24.479  0.00  0.00    -0.000 C 
ENDBRANCH  21  22
ENDBRANCH   1  21
TORSDOF 7
ENDMDL
MODEL 3
REMARK VINA RESULT:     -10.7      2.212      3.873
REMARK  Name = 16752640
REMARK  7 active torsions:
REMARK  status: ('A' for Active; 'I' for Inactive)
REMARK    1  A    between atoms: C_1  and  N_4
REMARK    2  A    between atoms: C_1  and  C_18
REMARK    3  A    between atoms: C_1  and  C_21
REMARK    4  A    between atoms: C_11  and  C_14
REMARK    5  A    between atoms: C_14  and  O_15
REMARK    6  A    between atoms: C_18  and  O_19
REMARK    7  A    between atoms: C_21  and  C_22
REMARK                            x       y       z     vdW  Elec       q    Type
REMARK                         _______ _______ _______ _____ _____    ______ ____
ROOT
ATOM      1  C   UNL     1      34.011 -22.815 -18.114  0.00  0.00    +0.186 C 
ENDROOT
BRANCH   1   4
ATOM      2  O   UNL     1      32.464 -21.153 -20.051  0.00  0.00    -0.269 OA
ATOM      3  O   UNL     1      36.792 -21.831 -18.542  0.00  0.00    -0.269 OA
ATOM      4  N   UNL     1      34.488 -21.797 -19.028  0.00  0.00    -0.213 N 
ATOM      5  C   UNL     1      34.551 -20.190 -20.623  0.00  0.00    +0.059 C 
ATOM      6  C   UNL     1      33.668 -21.093 -19.885  0.00  0.00    +0.256 C 
ATOM      7  C   UNL     1      35.812 -21.426 -19.138  0.00  0.00    +0.256 C 
ATOM      8  C   UNL     1      35.847 -20.391 -20.172  0.00  0.00    +0.058 C 
ATOM      9  C   UNL     1      34.255 -19.267 -21.604  0.00  0.00    +0.011 C 
ATOM     10  C   UNL     1      36.915 -19.681 -20.678  0.00  0.00    +0.005 C 
ATOM     11  C   UNL     1      35.322 -18.534 -22.133  0.00  0.00    +0.076 C 
ATOM     12  C   UNL     1      36.640 -18.740 -21.675  0.00  0.00    +0.007 C 
BRANCH  11  14
ATOM     13  O   UNL     1      34.360 -17.720 -24.166  0.00  0.00    -0.245 OA
ATOM     14  C   UNL     1      35.071 -17.547 -23.170  0.00  0.00    +0.338 C 
BRANCH  14  15
ATOM     15  O   UNL     1      35.714 -16.371 -22.936  0.00  0.00    -0.477 OA
ATOM     16  H   UNL     1      35.266 -15.558 -23.068  0.00  0.00    +0.295 HD
ENDBRANCH  14  15
ENDBRANCH  11  14
ENDBRANCH   1   4
BRANCH   1  18
ATOM     17  O   UNL     1      34.257 -24.348 -19.970  0.00  0.00    -0.248 OA
ATOM     18  C   UNL     1      33.907 -24.166 -18.808  0.00  0.00    +0.333 C 
BRANCH  18  19
ATOM     19  O   UNL     1      33.405 -25.163 -18.041  0.00  0.00    -0.479 OA
ATOM     20  H   UNL     1      33.717 -26.040 -18.149  0.00  0.00    +0.295 HD
ENDBRANCH  18  19
ENDBRANCH   1  18
BRANCH   1  21
ATOM     21  C   UNL     1      34.915 -22.928 -16.880  0.00  0.00    +0.058 C 
BRANCH  21  22
ATOM     22  C   UNL     1      34.161 -23.316 -15.630  0.00  0.00    -0.020 C 
ATOM     23  C   UNL     1      34.805 -23.890 -14.522  0.00  0.00    -0.004 C 
ATOM     24  C   UNL     1      34.041 -24.231 -13.380  0.00  0.00    -0.000 C 
ATOM     25  C   UNL     1      32.786 -23.082 -15.615  0.00  0.00    -0.004 C 
ATOM     26  C   UNL     1      36.187 -24.133 -14.521  0.00  0.00    -0.000 C 
ATOM     27  C   UNL     1      32.658 -23.988 -13.381  0.00  0.00    -0.000 C 
ATOM     28  C   UNL     1      32.036 -23.418 -14.491  0.00  0.00    -0.000 C 
ATOM     29  C   UNL     1      34.684 -24.805 -12.271  0.00  0.00    -0.000 C 
ATOM     30  C   UNL     1      36.810 -24.704 -13.411  0.00  0.00    -0.000 C 
ATOM     31  C   UNL     1      36.059 -25.040 -12.288  0.00  0.00    -0.000 C 
ENDBRANCH  21  22
ENDBRANCH   1  21
TORSDOF 7
ENDMDL
MODEL 4
REMARK VINA RESULT:     -10.6      6.974     12.144
REMARK  Name = 16752640
REMARK  7 active torsions:
REMARK  status: ('A' for Active; 'I' for Inactive)
REMARK    1  A    between atoms: C_1  and  N_4
REMARK    2  A    between atoms: C_1  and  C_18
REMARK    3  A    between atoms: C_1  and  C_21
REMARK    4  A    between atoms: C_11  and  C_14
REMARK    5  A    between atoms: C_14  and  O_15
REMARK    6  A    between atoms: C_18  and  O_19
REMARK    7  A    between atoms: C_21  and  C_22
REMARK                            x       y       z     vdW  Elec       q    Type
REMARK                         _______ _______ _______ _____ _____    ______ ____
ROOT
ATOM      1  C   UNL     1      33.790 -13.743 -24.244  0.00  0.00    +0.186 C 
ENDROOT
BRANCH   1   4
ATOM      2  O   UNL     1      35.038 -14.428 -21.621  0.00  0.00    -0.269 OA
ATOM      3  O   UNL     1      33.528 -16.424 -25.521  0.00  0.00    -0.269 OA
ATOM      4  N   UNL     1      34.173 -15.041 -23.727  0.00  0.00    -0.213 N 
ATOM      5  C   UNL     1      34.980 -16.672 -22.379  0.00  0.00    +0.059 C 
ATOM      6  C   UNL     1      34.750 -15.232 -22.489  0.00  0.00    +0.256 C 
ATOM      7  C   UNL     1      34.003 -16.222 -24.419  0.00  0.00    +0.256 C 
ATOM      8  C   UNL     1      34.529 -17.270 -23.545  0.00  0.00    +0.058 C 
ATOM      9  C   UNL     1      35.535 -17.405 -21.350  0.00  0.00    +0.011 C 
ATOM     10  C   UNL     1      34.607 -18.633 -23.745  0.00  0.00    +0.005 C 
ATOM     11  C   UNL     1      35.625 -18.788 -21.530  0.00  0.00    +0.076 C 
ATOM     12  C   UNL     1      35.167 -19.396 -22.716  0.00  0.00    +0.007 C 
BRANCH  11  14
ATOM     13  O   UNL     1      35.643 -20.572 -19.936  0.00  0.00    -0.245 OA
ATOM     14  C   UNL     1      36.201 -19.612 -20.479  0.00  0.00    +0.338 C 
BRANCH  14  15
ATOM     15  O   UNL     1      37.456 -19.216 -20.135  0.00  0.00    -0.477 OA
ATOM     16  H   UNL     1      38.127 -19.167 -20.787  0.00  0.00    +0.295 HD
ENDBRANCH  14  15
ENDBRANCH  11  14
ENDBRANCH   1   4
BRANCH   1  18
ATOM     17  O   UNL     1      34.166 -13.712 -26.634  0.00  0.00    -0.248 OA
ATOM     18  C   UNL     1      33.374 -13.839 -25.706  0.00  0.00    +0.333 C 
BRANCH  18  19
ATOM     19  O   UNL     1      32.058 -14.083 -25.908  0.00  0.00    -0.479 OA
ATOM     20  H   UNL     1      31.626 -14.758 -25.421  0.00  0.00    +0.295 HD
ENDBRANCH  18  19
ENDBRANCH   1  18
BRANCH   1  21
ATOM     21  C   UNL     1      32.656 -13.123 -23.417  0.00  0.00    +0.058 C 
BRANCH  21  22
ATOM     22  C   UNL     1      32.904 -11.673 -23.072  0.00  0.00    -0.020 C 
ATOM     23  C   UNL     1      32.311 -11.064 -21.954  0.00  0.00    -0.004 C 
ATOM     24  C   UNL     1      32.583  -9.702 -21.685  0.00  0.00    -0.000 C 
ATOM     25  C   UNL     1      33.751 -10.952 -23.913  0.00  0.00    -0.004 C 
ATOM     26  C   UNL     1      31.455 -11.775 -21.098  0.00  0.00    -0.000 C 
ATOM     27  C   UNL     1      33.440  -8.990 -22.541  0.00  0.00    -0.000 C 
ATOM     28  C   UNL     1      34.019  -9.611 -23.647  0.00  0.00    -0.000 C 
ATOM     29  C   UNL     1      31.992  -9.091 -20.567  0.00  0.00    -0.000 C 
ATOM     30  C   UNL     1      30.875 -11.153 -19.993  0.00  0.00    -0.000 C 
ATOM     31  C   UNL     1      31.143  -9.814 -19.728  0.00  0.00    -0.000 C 
ENDBRANCH  21  22
ENDBRANCH   1  21
TORSDOF 7
ENDMDL
MODEL 5
REMARK VINA RESULT:     -10.4      7.445     12.062
REMARK  Name = 16752640
REMARK  7 active torsions:
REMARK  status: ('A' for Active; 'I' for Inactive)
REMARK    1  A    between atoms: C_1  and  N_4
REMARK    2  A    between atoms: C_1  and  C_18
REMARK    3  A    between atoms: C_1  and  C_21
REMARK    4  A    between atoms: C_11  and  C_14
REMARK    5  A    between atoms: C_14  and  O_15
REMARK    6  A    between atoms: C_18  and  O_19
REMARK    7  A    between atoms: C_21  and  C_22
REMARK                            x       y       z     vdW  Elec       q    Type
REMARK                         _______ _______ _______ _____ _____    ______ ____
ROOT
ATOM      1  C   UNL     1      33.648 -13.006 -22.701  0.00  0.00    +0.186 C 
ENDROOT
BRANCH   1   4
ATOM      2  O   UNL     1      34.581 -14.450 -20.262  0.00  0.00    -0.269 OA
ATOM      3  O   UNL     1      33.822 -15.134 -24.781  0.00  0.00    -0.269 OA
ATOM      4  N   UNL     1      34.078 -14.383 -22.564  0.00  0.00    -0.213 N 
ATOM      5  C   UNL     1      34.843 -16.326 -21.685  0.00  0.00    +0.059 C 
ATOM      6  C   UNL     1      34.494 -14.940 -21.373  0.00  0.00    +0.256 C 
ATOM      7  C   UNL     1      34.118 -15.280 -23.610  0.00  0.00    +0.256 C 
ATOM      8  C   UNL     1      34.616 -16.531 -23.038  0.00  0.00    +0.058 C 
ATOM      9  C   UNL     1      35.317 -17.327 -20.865  0.00  0.00    +0.011 C 
ATOM     10  C   UNL     1      34.850 -17.750 -23.641  0.00  0.00    +0.005 C 
ATOM     11  C   UNL     1      35.563 -18.571 -21.453  0.00  0.00    +0.076 C 
ATOM     12  C   UNL     1      35.333 -18.780 -22.828  0.00  0.00    +0.007 C 
BRANCH  11  14
ATOM     13  O   UNL     1      35.512 -20.761 -20.492  0.00  0.00    -0.245 OA
ATOM     14  C   UNL     1      36.064 -19.665 -20.637  0.00  0.00    +0.338 C 
BRANCH  14  15
ATOM     15  O   UNL     1      37.239 -19.361 -20.023  0.00  0.00    -0.477 OA
ATOM     16  H   UNL     1      37.374 -18.505 -19.668  0.00  0.00    +0.295 HD
ENDBRANCH  14  15
ENDBRANCH  11  14
ENDBRANCH   1   4
BRANCH   1  18
ATOM     17  O   UNL     1      34.810 -11.954 -24.545  0.00  0.00    -0.248 OA
ATOM     18  C   UNL     1      33.804 -12.526 -24.138  0.00  0.00    +0.333 C 
BRANCH  18  19
ATOM     19  O   UNL     1      32.746 -12.786 -24.942  0.00  0.00    -0.479 OA
ATOM     20  H   UNL     1      32.192 -13.521 -24.765  0.00  0.00    +0.295 HD
ENDBRANCH  18  19
ENDBRANCH   1  18
BRANCH   1  21
ATOM     21  C   UNL     1      32.195 -12.824 -22.243  0.00  0.00    +0.058 C 
BRANCH  21  22
ATOM     22  C   UNL     1      32.026 -11.695 -21.255  0.00  0.00    -0.020 C 
ATOM     23  C   UNL     1      31.872 -10.362 -21.668  0.00  0.00    -0.004 C 
ATOM     24  C   UNL     1      31.717  -9.349 -20.692  0.00  0.00    -0.000 C 
ATOM     25  C   UNL     1      32.028 -12.026 -19.899  0.00  0.00    -0.004 C 
ATOM     26  C   UNL     1      31.868 -10.011 -23.028  0.00  0.00    -0.000 C 
ATOM     27  C   UNL     1      31.720  -9.699 -19.332  0.00  0.00    -0.000 C 
ATOM     28  C   UNL     1      31.875 -11.029 -18.939  0.00  0.00    -0.000 C 
ATOM     29  C   UNL     1      31.563  -8.016 -21.105  0.00  0.00    -0.000 C 
ATOM     30  C   UNL     1      31.714  -8.682 -23.420  0.00  0.00    -0.000 C 
ATOM     31  C   UNL     1      31.562  -7.686 -22.461  0.00  0.00    -0.000 C 
ENDBRANCH  21  22
ENDBRANCH   1  21
TORSDOF 7
ENDMDL
MODEL 6
REMARK VINA RESULT:     -10.2      1.629      2.961
REMARK  Name = 16752640
REMARK  7 active torsions:
REMARK  status: ('A' for Active; 'I' for Inactive)
REMARK    1  A    between atoms: C_1  and  N_4
REMARK    2  A    between atoms: C_1  and  C_18
REMARK    3  A    between atoms: C_1  and  C_21
REMARK    4  A    between atoms: C_11  and  C_14
REMARK    5  A    between atoms: C_14  and  O_15
REMARK    6  A    between atoms: C_18  and  O_19
REMARK    7  A    between atoms: C_21  and  C_22
REMARK                            x       y       z     vdW  Elec       q    Type
REMARK                         _______ _______ _______ _____ _____    ______ ____
ROOT
ATOM      1  C   UNL     1      33.120 -22.923 -18.341  0.00  0.00    +0.186 C 
ENDROOT
BRANCH   1   4
ATOM      2  O   UNL     1      32.025 -20.831 -20.167  0.00  0.00    -0.269 OA
ATOM      3  O   UNL     1      36.046 -22.358 -18.443  0.00  0.00    -0.269 OA
ATOM      4  N   UNL     1      33.827 -21.901 -19.087  0.00  0.00    -0.213 N 
ATOM      5  C   UNL     1      34.278 -20.159 -20.464  0.00  0.00    +0.059 C 
ATOM      6  C   UNL     1      33.205 -20.984 -19.908  0.00  0.00    +0.256 C 
ATOM      7  C   UNL     1      35.196 -21.738 -19.055  0.00  0.00    +0.256 C 
ATOM      8  C   UNL     1      35.482 -20.616 -19.948  0.00  0.00    +0.058 C 
ATOM      9  C   UNL     1      34.216 -19.099 -21.344  0.00  0.00    +0.011 C 
ATOM     10  C   UNL     1      36.687 -20.036 -20.285  0.00  0.00    +0.005 C 
ATOM     11  C   UNL     1      35.425 -18.495 -21.700  0.00  0.00    +0.076 C 
ATOM     12  C   UNL     1      36.649 -18.959 -21.176  0.00  0.00    +0.007 C 
BRANCH  11  14
ATOM     13  O   UNL     1      35.528 -16.183 -22.306  0.00  0.00    -0.245 OA
ATOM     14  C   UNL     1      35.422 -17.372 -22.624  0.00  0.00    +0.338 C 
BRANCH  14  15
ATOM     15  O   UNL     1      35.286 -17.765 -23.919  0.00  0.00    -0.477 OA
ATOM     16  H   UNL     1      36.041 -18.015 -24.414  0.00  0.00    +0.295 HD
ENDBRANCH  14  15
ENDBRANCH  11  14
ENDBRANCH   1   4
BRANCH   1  18
ATOM     17  O   UNL     1      33.839 -24.901 -19.534  0.00  0.00    -0.248 OA
ATOM     18  C   UNL     1      33.808 -24.273 -18.480  0.00  0.00    +0.333 C 
BRANCH  18  19
ATOM     19  O   UNL     1      34.395 -24.732 -17.349  0.00  0.00    -0.479 OA
ATOM     20  H   UNL     1      34.477 -24.171 -16.603  0.00  0.00    +0.295 HD
ENDBRANCH  18  19
ENDBRANCH   1  18
BRANCH   1  21
ATOM     21  C   UNL     1      32.995 -22.548 -16.859  0.00  0.00    +0.058 C 
BRANCH  21  22
ATOM     22  C   UNL     1      31.717 -23.050 -16.230  0.00  0.00    -0.020 C 
ATOM     23  C   UNL     1      31.720 -23.862 -15.085  0.00  0.00    -0.004 C 
ATOM     24  C   UNL     1      30.487 -24.299 -14.544  0.00  0.00    -0.000 C 
ATOM     25  C   UNL     1      30.517 -22.673 -16.835  0.00  0.00    -0.004 C 
ATOM     26  C   UNL     1      32.918 -24.251 -14.465  0.00  0.00    -0.000 C 
ATOM     27  C   UNL     1      29.288 -23.910 -15.164  0.00  0.00    -0.000 C 
ATOM     28  C   UNL     1      29.304 -23.103 -16.302  0.00  0.00    -0.000 C 
ATOM     29  C   UNL     1      30.490 -25.111 -13.399  0.00  0.00    -0.000 C 
ATOM     30  C   UNL     1      32.902 -25.058 -13.327  0.00  0.00    -0.000 C 
ATOM     31  C   UNL     1      31.690 -25.488 -12.796  0.00  0.00    -0.000 C 
ENDBRANCH  21  22
ENDBRANCH   1  21
TORSDOF 7
ENDMDL
MODEL 7
REMARK VINA RESULT:     -10.2     10.492     15.022
REMARK  Name = 16752640
REMARK  7 active torsions:
REMARK  status: ('A' for Active; 'I' for Inactive)
REMARK    1  A    between atoms: C_1  and  N_4
REMARK    2  A    between atoms: C_1  and  C_18
REMARK    3  A    between atoms: C_1  and  C_21
REMARK    4  A    between atoms: C_11  and  C_14
REMARK    5  A    between atoms: C_14  and  O_15
REMARK    6  A    between atoms: C_18  and  O_19
REMARK    7  A    between atoms: C_21  and  C_22
REMARK                            x       y       z     vdW  Elec       q    Type
REMARK                         _______ _______ _______ _____ _____    ______ ____
ROOT
ATOM      1  C   UNL     1      31.708  -9.600 -20.630  0.00  0.00    +0.186 C 
ENDROOT
BRANCH   1   4
ATOM      2  O   UNL     1      32.566 -12.262 -19.588  0.00  0.00    -0.269 OA
ATOM      3  O   UNL     1      32.179  -9.905 -23.558  0.00  0.00    -0.269 OA
ATOM      4  N   UNL     1      32.224 -10.743 -21.358  0.00  0.00    -0.213 N 
ATOM      5  C   UNL     1      33.060 -12.791 -21.844  0.00  0.00    +0.059 C 
ATOM      6  C   UNL     1      32.593 -11.929 -20.758  0.00  0.00    +0.256 C 
ATOM      7  C   UNL     1      32.401 -10.763 -22.725  0.00  0.00    +0.256 C 
ATOM      8  C   UNL     1      32.944 -12.086 -23.033  0.00  0.00    +0.058 C 
ATOM      9  C   UNL     1      33.546 -14.081 -21.804  0.00  0.00    +0.011 C 
ATOM     10  C   UNL     1      33.307 -12.635 -24.245  0.00  0.00    +0.005 C 
ATOM     11  C   UNL     1      33.920 -14.658 -23.021  0.00  0.00    +0.076 C 
ATOM     12  C   UNL     1      33.803 -13.942 -24.230  0.00  0.00    +0.007 C 
BRANCH  11  14
ATOM     13  O   UNL     1      34.381 -16.790 -24.004  0.00  0.00    -0.245 OA
ATOM     14  C   UNL     1      34.438 -16.017 -23.042  0.00  0.00    +0.338 C 
BRANCH  14  15
ATOM     15  O   UNL     1      35.013 -16.373 -21.861  0.00  0.00    -0.477 OA
ATOM     16  H   UNL     1      35.746 -15.891 -21.533  0.00  0.00    +0.295 HD
ENDBRANCH  14  15
ENDBRANCH  11  14
ENDBRANCH   1   4
BRANCH   1  18
ATOM     17  O   UNL     1      30.085 -10.459 -19.053  0.00  0.00    -0.248 OA
ATOM     18  C   UNL     1      31.211 -10.011 -19.251  0.00  0.00    +0.333 C 
BRANCH  18  19
ATOM     19  O   UNL     1      32.110  -9.852 -18.251  0.00  0.00    -0.479 OA
ATOM     20  H   UNL     1      31.819  -9.616 -17.392  0.00  0.00    +0.295 HD
ENDBRANCH  18  19
ENDBRANCH   1  18
BRANCH   1  21
ATOM     21  C   UNL     1      32.765  -8.496 -20.498  0.00  0.00    +0.058 C 
BRANCH  21  22
ATOM     22  C   UNL     1      32.475  -7.297 -21.369  0.00  0.00    -0.020 C 
ATOM     23  C   UNL     1      33.340  -6.904 -22.404  0.00  0.00    -0.004 C 
ATOM     24  C   UNL     1      33.012  -5.770 -23.184  0.00  0.00    -0.000 C 
ATOM     25  C   UNL     1      31.305  -6.584 -21.108  0.00  0.00    -0.004 C 
ATOM     26  C   UNL     1      34.522  -7.609 -22.680  0.00  0.00    -0.000 C 
ATOM     27  C   UNL     1      31.829  -5.064 -22.909  0.00  0.00    -0.000 C 
ATOM     28  C   UNL     1      30.983  -5.469 -21.877  0.00  0.00    -0.000 C 
ATOM     29  C   UNL     1      33.876  -5.376 -24.219  0.00  0.00    -0.000 C 
ATOM     30  C   UNL     1      35.369  -7.203 -23.711  0.00  0.00    -0.000 C 
ATOM     31  C   UNL     1      35.047  -6.089 -24.479  0.00  0.00    -0.000 C 
ENDBRANCH  21  22
ENDBRANCH   1  21
TORSDOF 7
ENDMDL
MODEL 8
REMARK VINA RESULT:     -10.2      1.675      2.400
REMARK  Name = 16752640
REMARK  7 active torsions:
REMARK  status: ('A' for Active; 'I' for Inactive)
REMARK    1  A    between atoms: C_1  and  N_4
REMARK    2  A    between atoms: C_1  and  C_18
REMARK    3  A    between atoms: C_1  and  C_21
REMARK    4  A    between atoms: C_11  and  C_14
REMARK    5  A    between atoms: C_14  and  O_15
REMARK    6  A    between atoms: C_18  and  O_19
REMARK    7  A    between atoms: C_21  and  C_22
REMARK                            x       y       z     vdW  Elec       q    Type
REMARK                         _______ _______ _______ _____ _____    ______ ____
ROOT
ATOM      1  C   UNL     1      33.740 -22.884 -18.055  0.00  0.00    +0.186 C 
ENDROOT
BRANCH   1   4
ATOM      2  O   UNL     1      32.302 -21.157 -20.019  0.00  0.00    -0.269 OA
ATOM      3  O   UNL     1      36.566 -22.006 -18.417  0.00  0.00    -0.269 OA
ATOM      4  N   UNL     1      34.276 -21.882 -18.954  0.00  0.00    -0.213 N 
ATOM      5  C   UNL     1      34.437 -20.273 -20.540  0.00  0.00    +0.059 C 
ATOM      6  C   UNL     1      33.504 -21.144 -19.826  0.00  0.00    +0.256 C 
ATOM      7  C   UNL     1      35.615 -21.563 -19.034  0.00  0.00    +0.256 C 
ATOM      8  C   UNL     1      35.713 -20.526 -20.061  0.00  0.00    +0.058 C 
ATOM      9  C   UNL     1      34.199 -19.337 -21.524  0.00  0.00    +0.011 C 
ATOM     10  C   UNL     1      36.819 -19.856 -20.541  0.00  0.00    +0.005 C 
ATOM     11  C   UNL     1      35.305 -18.644 -22.026  0.00  0.00    +0.076 C 
ATOM     12  C   UNL     1      36.603 -18.902 -21.540  0.00  0.00    +0.007 C 
BRANCH  11  14
ATOM     13  O   UNL     1      34.496 -17.817 -24.120  0.00  0.00    -0.245 OA
ATOM     14  C   UNL     1      35.115 -17.644 -23.065  0.00  0.00    +0.338 C 
BRANCH  14  15
ATOM     15  O   UNL     1      35.703 -16.457 -22.758  0.00  0.00    -0.477 OA
ATOM     16  H   UNL     1      35.916 -15.850 -23.439  0.00  0.00    +0.295 HD
ENDBRANCH  14  15
ENDBRANCH  11  14
ENDBRANCH   1   4
BRANCH   1  18
ATOM     17  O   UNL     1      33.441 -25.285 -18.095  0.00  0.00    -0.248 OA
ATOM     18  C   UNL     1      33.819 -24.272 -18.675  0.00  0.00    +0.333 C 
BRANCH  18  19
ATOM     19  O   UNL     1      34.336 -24.308 -19.926  0.00  0.00    -0.479 OA
ATOM     20  H   UNL     1      34.888 -23.612 -20.225  0.00  0.00    +0.295 HD
ENDBRANCH  18  19
ENDBRANCH   1  18
BRANCH   1  21
ATOM     21  C   UNL     1      34.467 -22.871 -16.704  0.00  0.00    +0.058 C 
BRANCH  21  22
ATOM     22  C   UNL     1      33.711 -23.603 -15.621  0.00  0.00    -0.020 C 
ATOM     23  C   UNL     1      32.310 -23.568 -15.539  0.00  0.00    -0.004 C 
ATOM     24  C   UNL     1      31.661 -24.275 -14.500  0.00  0.00    -0.000 C 
ATOM     25  C   UNL     1      34.462 -24.323 -14.692  0.00  0.00    -0.004 C 
ATOM     26  C   UNL     1      31.539 -22.847 -16.465  0.00  0.00    -0.000 C 
ATOM     27  C   UNL     1      32.432 -24.996 -13.573  0.00  0.00    -0.000 C 
ATOM     28  C   UNL     1      33.823 -25.019 -13.669  0.00  0.00    -0.000 C 
ATOM     29  C   UNL     1      30.259 -24.241 -14.417  0.00  0.00    -0.000 C 
ATOM     30  C   UNL     1      30.147 -22.824 -16.368  0.00  0.00    -0.000 C 
ATOM     31  C   UNL     1      29.509 -23.519 -15.346  0.00  0.00    -0.000 C 
ENDBRANCH  21  22
ENDBRANCH   1  21
TORSDOF 7
ENDMDL
MODEL 9
REMARK VINA RESULT:     -10.0     11.967     15.646
REMARK  Name = 16752640
REMARK  7 active torsions:
REMARK  status: ('A' for Active; 'I' for Inactive)
REMARK    1  A    between atoms: C_1  and  N_4
REMARK    2  A    between atoms: C_1  and  C_18
REMARK    3  A    between atoms: C_1  and  C_21
REMARK    4  A    between atoms: C_11  and  C_14
REMARK    5  A    between atoms: C_14  and  O_15
REMARK    6  A    between atoms: C_18  and  O_19
REMARK    7  A    between atoms: C_21  and  C_22
REMARK                            x       y       z     vdW  Elec       q    Type
REMARK                         _______ _______ _______ _____ _____    ______ ____
ROOT
ATOM      1  C   UNL     1      32.851  -8.854 -21.291  0.00  0.00    +0.186 C 
ENDROOT
BRANCH   1   4
ATOM      2  O   UNL     1      30.890  -6.877 -22.365  0.00  0.00    -0.269 OA
ATOM      3  O   UNL     1      35.312  -8.180 -22.833  0.00  0.00    -0.269 OA
ATOM      4  N   UNL     1      33.043  -7.834 -22.303  0.00  0.00    -0.213 N 
ATOM      5  C   UNL     1      32.665  -6.129 -23.746  0.00  0.00    +0.059 C 
ATOM      6  C   UNL     1      32.050  -6.974 -22.722  0.00  0.00    +0.256 C 
ATOM      7  C   UNL     1      34.240  -7.617 -22.954  0.00  0.00    +0.256 C 
ATOM      8  C   UNL     1      33.988  -6.519 -23.886  0.00  0.00    +0.058 C 
ATOM      9  C   UNL     1      32.121  -5.107 -24.494  0.00  0.00    +0.011 C 
ATOM     10  C   UNL     1      34.839  -5.905 -24.782  0.00  0.00    +0.005 C 
ATOM     11  C   UNL     1      32.964  -4.469 -25.409  0.00  0.00    +0.076 C 
ATOM     12  C   UNL     1      34.309  -4.866 -25.553  0.00  0.00    +0.007 C 
BRANCH  11  14
ATOM     13  O   UNL     1      32.048  -2.294 -25.799  0.00  0.00    -0.245 OA
ATOM     14  C   UNL     1      32.447  -3.383 -26.226  0.00  0.00    +0.338 C 
BRANCH  14  15
ATOM     15  O   UNL     1      32.441  -3.686 -27.552  0.00  0.00    -0.477 OA
ATOM     16  H   UNL     1      32.566  -3.009 -28.188  0.00  0.00    +0.295 HD
ENDBRANCH  14  15
ENDBRANCH  11  14
ENDBRANCH   1   4
BRANCH   1  18
ATOM     17  O   UNL     1      31.506  -8.442 -19.322  0.00  0.00    -0.248 OA
ATOM     18  C   UNL     1      32.546  -8.228 -19.937  0.00  0.00    +0.333 C 
BRANCH  18  19
ATOM     19  O   UNL     1      33.517  -7.417 -19.454  0.00  0.00    -0.479 OA
ATOM     20  H   UNL     1      34.413  -7.576 -19.675  0.00  0.00    +0.295 HD
ENDBRANCH  18  19
ENDBRANCH   1  18
BRANCH   1  21
ATOM     21  C   UNL     1      31.731  -9.827 -21.683  0.00  0.00    +0.058 C 
BRANCH  21  22
ATOM     22  C   UNL     1      32.054 -11.263 -21.345  0.00  0.00    -0.020 C 
ATOM     23  C   UNL     1      32.651 -12.129 -22.275  0.00  0.00    -0.004 C 
ATOM     24  C   UNL     1      32.928 -13.464 -21.897  0.00  0.00    -0.000 C 
ATOM     25  C   UNL     1      31.733 -11.705 -20.062  0.00  0.00    -0.004 C 
ATOM     26  C   UNL     1      32.979 -11.700 -23.571  0.00  0.00    -0.000 C 
ATOM     27  C   UNL     1      32.600 -13.893 -20.600  0.00  0.00    -0.000 C 
ATOM     28  C   UNL     1      32.006 -13.019 -19.690  0.00  0.00    -0.000 C 
ATOM     29  C   UNL     1      33.526 -14.330 -22.826  0.00  0.00    -0.000 C 
ATOM     30  C   UNL     1      33.573 -12.575 -24.482  0.00  0.00    -0.000 C 
ATOM     31  C   UNL     1      33.845 -13.887 -24.110  0.00  0.00    -0.000 C 
ENDBRANCH  21  22
ENDBRANCH   1  21
TORSDOF 7
ENDMDL
