MODEL 1
REMARK VINA RESULT:     -10.8      0.000      0.000
REMARK  Name = 86764100
REMARK  4 active torsions:
REMARK  status: ('A' for Active; 'I' for Inactive)
REMARK    1  A    between atoms: C_1  and  C_12
REMARK    2  A    between atoms: C_5  and  O_19
REMARK    3  A    between atoms: O_19  and  C_21
REMARK    4  A    between atoms: C_22  and  C_29
REMARK                            x       y       z     vdW  Elec       q    Type
REMARK                         _______ _______ _______ _____ _____    ______ ____
ROOT
ATOM      1  C   UNL     1      34.942 -18.973 -21.242  0.00  0.00    +0.012 C 
ATOM      2  C   UNL     1      36.187 -19.522 -20.936  0.00  0.00    -0.017 C 
ATOM      3  C   UNL     1      33.775 -19.617 -20.830  0.00  0.00    +0.004 C 
ATOM      4  C   UNL     1      36.266 -20.716 -20.219  0.00  0.00    +0.033 C 
ATOM      5  C   UNL     1      35.099 -21.360 -19.808  0.00  0.00    +0.147 C 
ATOM      6  C   UNL     1      33.854 -20.812 -20.113  0.00  0.00    +0.038 C 
ATOM      7  C   UNL     1      37.458 -18.858 -21.361  0.00  0.00    +0.031 C 
ENDROOT
BRANCH   1  12
ATOM      8  O   UNL     1      34.551 -16.621 -25.406  0.00  0.00    -0.246 OA
ATOM      9  O   UNL     1      34.658 -14.190 -21.530  0.00  0.00    -0.267 OA
ATOM     10  N   UNL     1      34.740 -17.785 -23.388  0.00  0.00    -0.280 N 
ATOM     11  N   UNL     1      34.605 -15.432 -23.459  0.00  0.00    -0.275 N 
ATOM     12  C   UNL     1      34.825 -17.724 -21.992  0.00  0.00    +0.064 A 
ATOM     13  C   UNL     1      34.803 -16.555 -21.316  0.00  0.00    +0.050 A 
ATOM     14  C   UNL     1      34.628 -16.625 -24.174  0.00  0.00    +0.331 A 
ATOM     15  C   UNL     1      34.682 -15.284 -22.089  0.00  0.00    +0.258 A 
ATOM     16  C   UNL     1      34.771 -19.085 -24.060  0.00  0.00    +0.135 C 
ATOM     17  C   UNL     1      34.887 -16.386 -19.822  0.00  0.00    +0.038 C 
ATOM     18  H   UNL     1      34.526 -14.605 -23.986  0.00  0.00    +0.173 HD
ENDBRANCH   1  12
BRANCH   5  19
ATOM     19  O   UNL     1      35.176 -22.526 -19.108  0.00  0.00    -0.436 OA
BRANCH  19  21
ATOM     20  N   UNL     1      36.811 -21.944 -17.561  0.00  0.00    -0.210 NA
ATOM     21  C   UNL     1      35.581 -22.457 -17.786  0.00  0.00    +0.234 C 
ATOM     22  C   UNL     1      34.733 -22.905 -16.785  0.00  0.00    +0.125 C 
ATOM     23  C   UNL     1      35.177 -22.821 -15.469  0.00  0.00    +0.010 C 
ATOM     24  C   UNL     1      36.437 -22.298 -15.199  0.00  0.00    +0.021 C 
ATOM     25  C   UNL     1      37.208 -21.877 -16.270  0.00  0.00    +0.102 C 
BRANCH  22  29
ATOM     26  F   UNL     1      32.530 -22.559 -17.652  0.00  0.00    -0.166 F 
ATOM     27  F   UNL     1      33.410 -24.519 -17.954  0.00  0.00    -0.166 F 
ATOM     28  F   UNL     1      32.744 -23.923 -15.972  0.00  0.00    -0.166 F 
ATOM     29  C   UNL     1      33.386 -23.463 -17.086  0.00  0.00    +0.423 C 
ENDBRANCH  22  29
ENDBRANCH  19  21
ENDBRANCH   5  19
TORSDOF 4
ENDMDL
MODEL 2
REMARK VINA RESULT:     -10.7      0.522      2.039
REMARK  Name = 86764100
REMARK  4 active torsions:
REMARK  status: ('A' for Active; 'I' for Inactive)
REMARK    1  A    between atoms: C_1  and  C_12
REMARK    2  A    between atoms: C_5  and  O_19
REMARK    3  A    between atoms: O_19  and  C_21
REMARK    4  A    between atoms: C_22  and  C_29
REMARK                            x       y       z     vdW  Elec       q    Type
REMARK                         _______ _______ _______ _____ _____    ______ ____
ROOT
ATOM      1  C   UNL     1      34.957 -19.033 -21.273  0.00  0.00    +0.012 C 
ATOM      2  C   UNL     1      36.201 -19.574 -20.945  0.00  0.00    -0.017 C 
ATOM      3  C   UNL     1      33.788 -19.674 -20.862  0.00  0.00    +0.004 C 
ATOM      4  C   UNL     1      36.275 -20.754 -20.207  0.00  0.00    +0.033 C 
ATOM      5  C   UNL     1      35.106 -21.395 -19.796  0.00  0.00    +0.147 C 
ATOM      6  C   UNL     1      33.862 -20.855 -20.123  0.00  0.00    +0.038 C 
ATOM      7  C   UNL     1      37.474 -18.914 -21.369  0.00  0.00    +0.031 C 
ENDROOT
BRANCH   1  12
ATOM      8  O   UNL     1      34.727 -14.246 -21.493  0.00  0.00    -0.246 OA
ATOM      9  O   UNL     1      34.535 -16.619 -25.401  0.00  0.00    -0.267 OA
ATOM     10  N   UNL     1      34.842 -16.576 -21.365  0.00  0.00    -0.280 N 
ATOM     11  N   UNL     1      34.635 -15.453 -23.427  0.00  0.00    -0.275 N 
ATOM     12  C   UNL     1      34.844 -17.799 -22.047  0.00  0.00    +0.064 A 
ATOM     13  C   UNL     1      34.744 -17.877 -23.392  0.00  0.00    +0.050 A 
ATOM     14  C   UNL     1      34.735 -15.350 -22.044  0.00  0.00    +0.331 A 
ATOM     15  C   UNL     1      34.629 -16.612 -24.176  0.00  0.00    +0.258 A 
ATOM     16  C   UNL     1      34.952 -16.561 -19.905  0.00  0.00    +0.135 C 
ATOM     17  C   UNL     1      34.737 -19.138 -24.215  0.00  0.00    +0.038 C 
ATOM     18  H   UNL     1      34.560 -14.608 -23.926  0.00  0.00    +0.173 HD
ENDBRANCH   1  12
BRANCH   5  19
ATOM     19  O   UNL     1      35.179 -22.547 -19.075  0.00  0.00    -0.436 OA
BRANCH  19  21
ATOM     20  N   UNL     1      36.827 -21.949 -17.548  0.00  0.00    -0.210 NA
ATOM     21  C   UNL     1      35.591 -22.457 -17.757  0.00  0.00    +0.234 C 
ATOM     22  C   UNL     1      34.747 -22.879 -16.743  0.00  0.00    +0.125 C 
ATOM     23  C   UNL     1      35.198 -22.774 -15.432  0.00  0.00    +0.010 C 
ATOM     24  C   UNL     1      36.464 -22.256 -15.178  0.00  0.00    +0.021 C 
ATOM     25  C   UNL     1      37.232 -21.861 -16.262  0.00  0.00    +0.102 C 
BRANCH  22  29
ATOM     26  F   UNL     1      32.541 -22.533 -17.603  0.00  0.00    -0.166 F 
ATOM     27  F   UNL     1      33.405 -24.505 -17.874  0.00  0.00    -0.166 F 
ATOM     28  F   UNL     1      32.754 -23.867 -15.900  0.00  0.00    -0.166 F 
ATOM     29  C   UNL     1      33.393 -23.433 -17.026  0.00  0.00    +0.423 C 
ENDBRANCH  22  29
ENDBRANCH  19  21
ENDBRANCH   5  19
TORSDOF 4
ENDMDL
MODEL 3
REMARK VINA RESULT:     -10.3      1.851      3.053
REMARK  Name = 86764100
REMARK  4 active torsions:
REMARK  status: ('A' for Active; 'I' for Inactive)
REMARK    1  A    between atoms: C_1  and  C_12
REMARK    2  A    between atoms: C_5  and  O_19
REMARK    3  A    between atoms: O_19  and  C_21
REMARK    4  A    between atoms: C_22  and  C_29
REMARK                            x       y       z     vdW  Elec       q    Type
REMARK                         _______ _______ _______ _____ _____    ______ ____
ROOT
ATOM      1  C   UNL     1      35.242 -19.137 -21.192  0.00  0.00    +0.012 C 
ATOM      2  C   UNL     1      36.563 -19.491 -20.916  0.00  0.00    -0.017 C 
ATOM      3  C   UNL     1      34.193 -19.877 -20.645  0.00  0.00    +0.004 C 
ATOM      4  C   UNL     1      36.835 -20.583 -20.093  0.00  0.00    +0.033 C 
ATOM      5  C   UNL     1      35.786 -21.323 -19.546  0.00  0.00    +0.147 C 
ATOM      6  C   UNL     1      34.465 -20.970 -19.822  0.00  0.00    +0.038 C 
ATOM      7  C   UNL     1      37.712 -18.721 -21.485  0.00  0.00    +0.031 C 
ENDROOT
BRANCH   1  12
ATOM      8  O   UNL     1      34.497 -14.436 -21.795  0.00  0.00    -0.246 OA
ATOM      9  O   UNL     1      34.150 -17.183 -25.438  0.00  0.00    -0.267 OA
ATOM     10  N   UNL     1      34.864 -16.722 -21.481  0.00  0.00    -0.280 N 
ATOM     11  N   UNL     1      34.331 -15.827 -23.596  0.00  0.00    -0.275 N 
ATOM     12  C   UNL     1      34.923 -17.999 -22.051  0.00  0.00    +0.064 A 
ATOM     13  C   UNL     1      34.694 -18.216 -23.365  0.00  0.00    +0.050 A 
ATOM     14  C   UNL     1      34.562 -15.583 -22.246  0.00  0.00    +0.331 A 
ATOM     15  C   UNL     1      34.369 -17.048 -24.236  0.00  0.00    +0.258 A 
ATOM     16  C   UNL     1      35.122 -16.556 -20.049  0.00  0.00    +0.135 C 
ATOM     17  C   UNL     1      34.734 -19.545 -24.071  0.00  0.00    +0.038 C 
ATOM     18  H   UNL     1      34.118 -15.045 -24.154  0.00  0.00    +0.173 HD
ENDBRANCH   1  12
BRANCH   5  19
ATOM     19  O   UNL     1      36.052 -22.389 -18.743  0.00  0.00    -0.436 OA
BRANCH  19  21
ATOM     20  N   UNL     1      33.890 -23.081 -18.235  0.00  0.00    -0.210 NA
ATOM     21  C   UNL     1      35.112 -22.721 -17.781  0.00  0.00    +0.234 C 
ATOM     22  C   UNL     1      35.456 -22.670 -16.440  0.00  0.00    +0.125 C 
ATOM     23  C   UNL     1      34.484 -23.009 -15.505  0.00  0.00    +0.010 C 
ATOM     24  C   UNL     1      33.216 -23.384 -15.934  0.00  0.00    +0.021 C 
ATOM     25  C   UNL     1      32.972 -23.404 -17.297  0.00  0.00    +0.102 C 
BRANCH  22  29
ATOM     26  F   UNL     1      37.815 -23.068 -16.473  0.00  0.00    -0.166 F 
ATOM     27  F   UNL     1      37.168 -21.000 -16.370  0.00  0.00    -0.166 F 
ATOM     28  F   UNL     1      36.956 -22.291 -14.633  0.00  0.00    -0.166 F 
ATOM     29  C   UNL     1      36.818 -22.266 -15.992  0.00  0.00    +0.423 C 
ENDBRANCH  22  29
ENDBRANCH  19  21
ENDBRANCH   5  19
TORSDOF 4
ENDMDL
MODEL 4
REMARK VINA RESULT:     -10.2      1.796      2.275
REMARK  Name = 86764100
REMARK  4 active torsions:
REMARK  status: ('A' for Active; 'I' for Inactive)
REMARK    1  A    between atoms: C_1  and  C_12
REMARK    2  A    between atoms: C_5  and  O_19
REMARK    3  A    between atoms: O_19  and  C_21
REMARK    4  A    between atoms: C_22  and  C_29
REMARK                            x       y       z     vdW  Elec       q    Type
REMARK                         _______ _______ _______ _____ _____    ______ ____
ROOT
ATOM      1  C   UNL     1      35.208 -19.106 -21.181  0.00  0.00    +0.012 C 
ATOM      2  C   UNL     1      36.525 -19.489 -20.925  0.00  0.00    -0.017 C 
ATOM      3  C   UNL     1      34.151 -19.841 -20.644  0.00  0.00    +0.004 C 
ATOM      4  C   UNL     1      36.785 -20.607 -20.133  0.00  0.00    +0.033 C 
ATOM      5  C   UNL     1      35.728 -21.342 -19.596  0.00  0.00    +0.147 C 
ATOM      6  C   UNL     1      34.411 -20.960 -19.851  0.00  0.00    +0.038 C 
ATOM      7  C   UNL     1      37.682 -18.724 -21.484  0.00  0.00    +0.031 C 
ENDROOT
BRANCH   1  12
ATOM      8  O   UNL     1      34.178 -17.161 -25.445  0.00  0.00    -0.246 OA
ATOM      9  O   UNL     1      34.466 -14.404 -21.803  0.00  0.00    -0.267 OA
ATOM     10  N   UNL     1      34.680 -18.127 -23.377  0.00  0.00    -0.280 N 
ATOM     11  N   UNL     1      34.326 -15.809 -23.613  0.00  0.00    -0.275 N 
ATOM     12  C   UNL     1      34.902 -17.940 -22.008  0.00  0.00    +0.064 A 
ATOM     13  C   UNL     1      34.845 -16.723 -21.425  0.00  0.00    +0.050 A 
ATOM     14  C   UNL     1      34.382 -17.053 -24.233  0.00  0.00    +0.331 A 
ATOM     15  C   UNL     1      34.531 -15.537 -22.276  0.00  0.00    +0.258 A 
ATOM     16  C   UNL     1      34.758 -19.474 -23.946  0.00  0.00    +0.135 C 
ATOM     17  C   UNL     1      35.067 -16.419 -19.968  0.00  0.00    +0.038 C 
ATOM     18  H   UNL     1      34.118 -15.039 -24.190  0.00  0.00    +0.173 HD
ENDBRANCH   1  12
BRANCH   5  19
ATOM     19  O   UNL     1      35.981 -22.433 -18.823  0.00  0.00    -0.436 OA
BRANCH  19  21
ATOM     20  N   UNL     1      33.843 -23.099 -18.197  0.00  0.00    -0.210 NA
ATOM     21  C   UNL     1      35.085 -22.727 -17.810  0.00  0.00    +0.234 C 
ATOM     22  C   UNL     1      35.487 -22.630 -16.488  0.00  0.00    +0.125 C 
ATOM     23  C   UNL     1      34.556 -22.932 -15.499  0.00  0.00    +0.010 C 
ATOM     24  C   UNL     1      33.270 -23.318 -15.859  0.00  0.00    +0.021 C 
ATOM     25  C   UNL     1      32.967 -23.386 -17.209  0.00  0.00    +0.102 C 
BRANCH  22  29
ATOM     26  F   UNL     1      37.843 -23.018 -16.635  0.00  0.00    -0.166 F 
ATOM     27  F   UNL     1      37.192 -20.952 -16.526  0.00  0.00    -0.166 F 
ATOM     28  F   UNL     1      37.073 -22.220 -14.764  0.00  0.00    -0.166 F 
ATOM     29  C   UNL     1      36.868 -22.214 -16.114  0.00  0.00    +0.423 C 
ENDBRANCH  22  29
ENDBRANCH  19  21
ENDBRANCH   5  19
TORSDOF 4
ENDMDL
MODEL 5
REMARK VINA RESULT:      -9.9      7.237     11.562
REMARK  Name = 86764100
REMARK  4 active torsions:
REMARK  status: ('A' for Active; 'I' for Inactive)
REMARK    1  A    between atoms: C_1  and  C_12
REMARK    2  A    between atoms: C_5  and  O_19
REMARK    3  A    between atoms: O_19  and  C_21
REMARK    4  A    between atoms: C_22  and  C_29
REMARK                            x       y       z     vdW  Elec       q    Type
REMARK                         _______ _______ _______ _____ _____    ______ ____
ROOT
ATOM      1  C   UNL     1      32.833 -12.752 -22.696  0.00  0.00    +0.012 C 
ATOM      2  C   UNL     1      33.401 -11.565 -23.160  0.00  0.00    -0.017 C 
ATOM      3  C   UNL     1      31.638 -12.719 -21.978  0.00  0.00    +0.004 C 
ATOM      4  C   UNL     1      32.774 -10.346 -22.906  0.00  0.00    +0.033 C 
ATOM      5  C   UNL     1      31.578 -10.313 -22.188  0.00  0.00    +0.147 C 
ATOM      6  C   UNL     1      31.010 -11.499 -21.724  0.00  0.00    +0.038 C 
ATOM      7  C   UNL     1      34.682 -11.563 -23.933  0.00  0.00    +0.031 C 
ENDROOT
BRANCH   1  12
ATOM      8  O   UNL     1      33.931 -16.369 -25.651  0.00  0.00    -0.246 OA
ATOM      9  O   UNL     1      35.340 -16.602 -21.304  0.00  0.00    -0.267 OA
ATOM     10  N   UNL     1      33.387 -14.597 -24.228  0.00  0.00    -0.280 N 
ATOM     11  N   UNL     1      34.623 -16.460 -23.479  0.00  0.00    -0.275 N 
ATOM     12  C   UNL     1      33.466 -14.046 -22.944  0.00  0.00    +0.064 A 
ATOM     13  C   UNL     1      34.103 -14.667 -21.927  0.00  0.00    +0.050 A 
ATOM     14  C   UNL     1      33.970 -15.838 -24.538  0.00  0.00    +0.331 A 
ATOM     15  C   UNL     1      34.747 -15.989 -22.188  0.00  0.00    +0.258 A 
ATOM     16  C   UNL     1      32.680 -13.872 -25.286  0.00  0.00    +0.135 C 
ATOM     17  C   UNL     1      34.242 -14.159 -20.517  0.00  0.00    +0.038 C 
ATOM     18  H   UNL     1      35.041 -17.330 -23.671  0.00  0.00    +0.173 HD
ENDBRANCH   1  12
BRANCH   5  19
ATOM     19  O   UNL     1      30.966  -9.123 -21.939  0.00  0.00    -0.436 OA
BRANCH  19  21
ATOM     20  N   UNL     1      31.387  -7.670 -23.705  0.00  0.00    -0.210 NA
ATOM     21  C   UNL     1      31.583  -7.973 -22.402  0.00  0.00    +0.234 C 
ATOM     22  C   UNL     1      32.348  -7.209 -21.535  0.00  0.00    +0.125 C 
ATOM     23  C   UNL     1      32.953  -6.062 -22.038  0.00  0.00    +0.010 C 
ATOM     24  C   UNL     1      32.774  -5.718 -23.374  0.00  0.00    +0.021 C 
ATOM     25  C   UNL     1      31.989  -6.547 -24.158  0.00  0.00    +0.102 C 
BRANCH  22  29
ATOM     26  F   UNL     1      31.360  -7.708 -19.414  0.00  0.00    -0.166 F 
ATOM     27  F   UNL     1      33.171  -8.783 -19.933  0.00  0.00    -0.166 F 
ATOM     28  F   UNL     1      33.273  -6.675 -19.410  0.00  0.00    -0.166 F 
ATOM     29  C   UNL     1      32.532  -7.587 -20.106  0.00  0.00    +0.423 C 
ENDBRANCH  22  29
ENDBRANCH  19  21
ENDBRANCH   5  19
TORSDOF 4
ENDMDL
MODEL 6
REMARK VINA RESULT:      -9.7      7.239     11.742
REMARK  Name = 86764100
REMARK  4 active torsions:
REMARK  status: ('A' for Active; 'I' for Inactive)
REMARK    1  A    between atoms: C_1  and  C_12
REMARK    2  A    between atoms: C_5  and  O_19
REMARK    3  A    between atoms: O_19  and  C_21
REMARK    4  A    between atoms: C_22  and  C_29
REMARK                            x       y       z     vdW  Elec       q    Type
REMARK                         _______ _______ _______ _____ _____    ______ ____
ROOT
ATOM      1  C   UNL     1      32.798 -12.701 -22.718  0.00  0.00    +0.012 C 
ATOM      2  C   UNL     1      33.377 -11.519 -23.180  0.00  0.00    -0.017 C 
ATOM      3  C   UNL     1      31.596 -12.660 -22.013  0.00  0.00    +0.004 C 
ATOM      4  C   UNL     1      32.754 -10.296 -22.936  0.00  0.00    +0.033 C 
ATOM      5  C   UNL     1      31.551 -10.255 -22.230  0.00  0.00    +0.147 C 
ATOM      6  C   UNL     1      30.972 -11.436 -21.769  0.00  0.00    +0.038 C 
ATOM      7  C   UNL     1      34.665 -11.527 -23.940  0.00  0.00    +0.031 C 
ENDROOT
BRANCH   1  12
ATOM      8  O   UNL     1      35.249 -16.511 -21.136  0.00  0.00    -0.246 OA
ATOM      9  O   UNL     1      34.016 -16.388 -25.541  0.00  0.00    -0.267 OA
ATOM     10  N   UNL     1      34.055 -14.648 -21.887  0.00  0.00    -0.280 N 
ATOM     11  N   UNL     1      34.621 -16.426 -23.328  0.00  0.00    -0.275 N 
ATOM     12  C   UNL     1      33.427 -14.000 -22.956  0.00  0.00    +0.064 A 
ATOM     13  C   UNL     1      33.381 -14.530 -24.198  0.00  0.00    +0.050 A 
ATOM     14  C   UNL     1      34.681 -15.897 -22.042  0.00  0.00    +0.331 A 
ATOM     15  C   UNL     1      34.025 -15.856 -24.433  0.00  0.00    +0.258 A 
ATOM     16  C   UNL     1      34.070 -14.018 -20.565  0.00  0.00    +0.135 C 
ATOM     17  C   UNL     1      32.732 -13.914 -25.409  0.00  0.00    +0.038 C 
ATOM     18  H   UNL     1      35.051 -17.301 -23.463  0.00  0.00    +0.173 HD
ENDBRANCH   1  12
BRANCH   5  19
ATOM     19  O   UNL     1      30.943  -9.060 -21.992  0.00  0.00    -0.436 OA
BRANCH  19  21
ATOM     20  N   UNL     1      31.396  -7.591 -23.736  0.00  0.00    -0.210 NA
ATOM     21  C   UNL     1      31.579  -7.913 -22.436  0.00  0.00    +0.234 C 
ATOM     22  C   UNL     1      32.351  -7.173 -21.555  0.00  0.00    +0.125 C 
ATOM     23  C   UNL     1      32.975  -6.028 -22.039  0.00  0.00    +0.010 C 
ATOM     24  C   UNL     1      32.810  -5.664 -23.371  0.00  0.00    +0.021 C 
ATOM     25  C   UNL     1      32.017  -6.472 -24.171  0.00  0.00    +0.102 C 
BRANCH  22  29
ATOM     26  F   UNL     1      31.341  -7.723 -19.457  0.00  0.00    -0.166 F 
ATOM     27  F   UNL     1      33.176  -8.761 -19.968  0.00  0.00    -0.166 F 
ATOM     28  F   UNL     1      33.237  -6.660 -19.408  0.00  0.00    -0.166 F 
ATOM     29  C   UNL     1      32.521  -7.572 -20.130  0.00  0.00    +0.423 C 
ENDBRANCH  22  29
ENDBRANCH  19  21
ENDBRANCH   5  19
TORSDOF 4
ENDMDL
MODEL 7
REMARK VINA RESULT:      -9.7      7.598     11.566
REMARK  Name = 86764100
REMARK  4 active torsions:
REMARK  status: ('A' for Active; 'I' for Inactive)
REMARK    1  A    between atoms: C_1  and  C_12
REMARK    2  A    between atoms: C_5  and  O_19
REMARK    3  A    between atoms: O_19  and  C_21
REMARK    4  A    between atoms: C_22  and  C_29
REMARK                            x       y       z     vdW  Elec       q    Type
REMARK                         _______ _______ _______ _____ _____    ______ ____
ROOT
ATOM      1  C   UNL     1      32.955 -13.041 -22.704  0.00  0.00    +0.012 C 
ATOM      2  C   UNL     1      33.478 -11.886 -23.286  0.00  0.00    -0.017 C 
ATOM      3  C   UNL     1      31.748 -12.986 -22.007  0.00  0.00    +0.004 C 
ATOM      4  C   UNL     1      32.794 -10.676 -23.172  0.00  0.00    +0.033 C 
ATOM      5  C   UNL     1      31.586 -10.621 -22.476  0.00  0.00    +0.147 C 
ATOM      6  C   UNL     1      31.063 -11.775 -21.893  0.00  0.00    +0.038 C 
ATOM      7  C   UNL     1      34.770 -11.909 -24.039  0.00  0.00    +0.031 C 
ENDROOT
BRANCH   1  12
ATOM      8  O   UNL     1      34.480 -16.777 -25.301  0.00  0.00    -0.246 OA
ATOM      9  O   UNL     1      35.398 -16.718 -20.818  0.00  0.00    -0.267 OA
ATOM     10  N   UNL     1      33.730 -14.948 -24.054  0.00  0.00    -0.280 N 
ATOM     11  N   UNL     1      34.925 -16.722 -23.064  0.00  0.00    -0.275 N 
ATOM     12  C   UNL     1      33.648 -14.324 -22.803  0.00  0.00    +0.064 A 
ATOM     13  C   UNL     1      34.184 -14.866 -21.687  0.00  0.00    +0.050 A 
ATOM     14  C   UNL     1      34.379 -16.183 -24.224  0.00  0.00    +0.331 A 
ATOM     15  C   UNL     1      34.890 -16.176 -21.797  0.00  0.00    +0.258 A 
ATOM     16  C   UNL     1      33.126 -14.308 -25.224  0.00  0.00    +0.135 C 
ATOM     17  C   UNL     1      34.150 -14.275 -20.303  0.00  0.00    +0.038 C 
ATOM     18  H   UNL     1      35.387 -17.587 -23.156  0.00  0.00    +0.173 HD
ENDBRANCH   1  12
BRANCH   5  19
ATOM     19  O   UNL     1      30.918  -9.440 -22.364  0.00  0.00    -0.436 OA
BRANCH  19  21
ATOM     20  N   UNL     1      31.848  -8.459 -20.472  0.00  0.00    -0.210 NA
ATOM     21  C   UNL     1      31.591  -8.371 -21.797  0.00  0.00    +0.234 C 
ATOM     22  C   UNL     1      31.957  -7.294 -22.588  0.00  0.00    +0.125 C 
ATOM     23  C   UNL     1      32.630  -6.239 -21.980  0.00  0.00    +0.010 C 
ATOM     24  C   UNL     1      32.912  -6.294 -20.620  0.00  0.00    +0.021 C 
ATOM     25  C   UNL     1      32.504  -7.416 -19.917  0.00  0.00    +0.102 C 
BRANCH  22  29
ATOM     26  F   UNL     1      32.628  -7.784 -24.831  0.00  0.00    -0.166 F 
ATOM     27  F   UNL     1      30.509  -7.919 -24.387  0.00  0.00    -0.166 F 
ATOM     28  F   UNL     1      31.470  -5.972 -24.504  0.00  0.00    -0.166 F 
ATOM     29  C   UNL     1      31.648  -7.246 -24.044  0.00  0.00    +0.423 C 
ENDBRANCH  22  29
ENDBRANCH  19  21
ENDBRANCH   5  19
TORSDOF 4
ENDMDL
MODEL 8
REMARK VINA RESULT:      -9.7      7.065     11.093
REMARK  Name = 86764100
REMARK  4 active torsions:
REMARK  status: ('A' for Active; 'I' for Inactive)
REMARK    1  A    between atoms: C_1  and  C_12
REMARK    2  A    between atoms: C_5  and  O_19
REMARK    3  A    between atoms: O_19  and  C_21
REMARK    4  A    between atoms: C_22  and  C_29
REMARK                            x       y       z     vdW  Elec       q    Type
REMARK                         _______ _______ _______ _____ _____    ______ ____
ROOT
ATOM      1  C   UNL     1      33.583 -13.518 -22.880  0.00  0.00    +0.012 C 
ATOM      2  C   UNL     1      32.567 -13.067 -22.038  0.00  0.00    -0.017 C 
ATOM      3  C   UNL     1      34.164 -12.646 -23.801  0.00  0.00    +0.004 C 
ATOM      4  C   UNL     1      32.132 -11.744 -22.116  0.00  0.00    +0.033 C 
ATOM      5  C   UNL     1      32.713 -10.873 -23.037  0.00  0.00    +0.147 C 
ATOM      6  C   UNL     1      33.728 -11.323 -23.880  0.00  0.00    +0.038 C 
ATOM      7  C   UNL     1      31.922 -13.974 -21.038  0.00  0.00    +0.031 C 
ENDROOT
BRANCH   1  12
ATOM      8  O   UNL     1      34.329 -17.771 -24.973  0.00  0.00    -0.246 OA
ATOM      9  O   UNL     1      35.557 -17.250 -20.596  0.00  0.00    -0.267 OA
ATOM     10  N   UNL     1      33.959 -15.692 -23.972  0.00  0.00    -0.280 N 
ATOM     11  N   UNL     1      34.933 -17.485 -22.791  0.00  0.00    -0.275 N 
ATOM     12  C   UNL     1      34.061 -14.898 -22.824  0.00  0.00    +0.064 A 
ATOM     13  C   UNL     1      34.585 -15.362 -21.668  0.00  0.00    +0.050 A 
ATOM     14  C   UNL     1      34.396 -17.027 -23.991  0.00  0.00    +0.331 A 
ATOM     15  C   UNL     1      35.071 -16.772 -21.618  0.00  0.00    +0.258 A 
ATOM     16  C   UNL     1      33.380 -15.128 -25.194  0.00  0.00    +0.135 C 
ATOM     17  C   UNL     1      34.738 -14.590 -20.385  0.00  0.00    +0.038 C 
ATOM     18  H   UNL     1      35.248 -18.417 -22.778  0.00  0.00    +0.173 HD
ENDBRANCH   1  12
BRANCH   5  19
ATOM     19  O   UNL     1      32.287  -9.582 -23.114  0.00  0.00    -0.436 OA
BRANCH  19  21
ATOM     20  N   UNL     1      31.688  -8.937 -20.962  0.00  0.00    -0.210 NA
ATOM     21  C   UNL     1      32.512  -8.763 -22.020  0.00  0.00    +0.234 C 
ATOM     22  C   UNL     1      33.538  -7.833 -22.059  0.00  0.00    +0.125 C 
ATOM     23  C   UNL     1      33.731  -7.029 -20.940  0.00  0.00    +0.010 C 
ATOM     24  C   UNL     1      32.903  -7.179 -19.833  0.00  0.00    +0.021 C 
ATOM     25  C   UNL     1      31.906  -8.138 -19.893  0.00  0.00    +0.102 C 
BRANCH  22  29
ATOM     26  F   UNL     1      35.341  -8.682 -23.383  0.00  0.00    -0.166 F 
ATOM     27  F   UNL     1      33.740  -7.666 -24.436  0.00  0.00    -0.166 F 
ATOM     28  F   UNL     1      35.140  -6.522 -23.230  0.00  0.00    -0.166 F 
ATOM     29  C   UNL     1      34.419  -7.682 -23.251  0.00  0.00    +0.423 C 
ENDBRANCH  22  29
ENDBRANCH  19  21
ENDBRANCH   5  19
TORSDOF 4
ENDMDL
MODEL 9
REMARK VINA RESULT:      -9.6      7.621     11.770
REMARK  Name = 86764100
REMARK  4 active torsions:
REMARK  status: ('A' for Active; 'I' for Inactive)
REMARK    1  A    between atoms: C_1  and  C_12
REMARK    2  A    between atoms: C_5  and  O_19
REMARK    3  A    between atoms: O_19  and  C_21
REMARK    4  A    between atoms: C_22  and  C_29
REMARK                            x       y       z     vdW  Elec       q    Type
REMARK                         _______ _______ _______ _____ _____    ______ ____
ROOT
ATOM      1  C   UNL     1      32.907 -12.981 -22.726  0.00  0.00    +0.012 C 
ATOM      2  C   UNL     1      33.453 -11.824 -23.282  0.00  0.00    -0.017 C 
ATOM      3  C   UNL     1      31.688 -12.922 -22.050  0.00  0.00    +0.004 C 
ATOM      4  C   UNL     1      32.780 -10.608 -23.163  0.00  0.00    +0.033 C 
ATOM      5  C   UNL     1      31.561 -10.549 -22.486  0.00  0.00    +0.147 C 
ATOM      6  C   UNL     1      31.015 -11.705 -21.930  0.00  0.00    +0.038 C 
ATOM      7  C   UNL     1      34.757 -11.851 -24.014  0.00  0.00    +0.031 C 
ENDROOT
BRANCH   1  12
ATOM      8  O   UNL     1      35.267 -16.641 -20.711  0.00  0.00    -0.246 OA
ATOM      9  O   UNL     1      34.500 -16.760 -25.221  0.00  0.00    -0.267 OA
ATOM     10  N   UNL     1      34.115 -14.850 -21.673  0.00  0.00    -0.280 N 
ATOM     11  N   UNL     1      34.871 -16.676 -22.958  0.00  0.00    -0.275 N 
ATOM     12  C   UNL     1      33.587 -14.270 -22.833  0.00  0.00    +0.064 A 
ATOM     13  C   UNL     1      33.684 -14.859 -24.045  0.00  0.00    +0.050 A 
ATOM     14  C   UNL     1      34.783 -16.086 -21.701  0.00  0.00    +0.331 A 
ATOM     15  C   UNL     1      34.380 -16.176 -24.146  0.00  0.00    +0.258 A 
ATOM     16  C   UNL     1      33.977 -14.158 -20.390  0.00  0.00    +0.135 C 
ATOM     17  C   UNL     1      33.151 -14.320 -25.345  0.00  0.00    +0.038 C 
ATOM     18  H   UNL     1      35.333 -17.544 -23.004  0.00  0.00    +0.173 HD
ENDBRANCH   1  12
BRANCH   5  19
ATOM     19  O   UNL     1      30.905  -9.362 -22.369  0.00  0.00    -0.436 OA
BRANCH  19  21
ATOM     20  N   UNL     1      31.851  -8.377 -20.488  0.00  0.00    -0.210 NA
ATOM     21  C   UNL     1      31.594  -8.298 -21.813  0.00  0.00    +0.234 C 
ATOM     22  C   UNL     1      31.975  -7.234 -22.614  0.00  0.00    +0.125 C 
ATOM     23  C   UNL     1      32.663  -6.183 -22.017  0.00  0.00    +0.010 C 
ATOM     24  C   UNL     1      32.946  -6.229 -20.657  0.00  0.00    +0.021 C 
ATOM     25  C   UNL     1      32.523  -7.338 -19.943  0.00  0.00    +0.102 C 
BRANCH  22  29
ATOM     26  F   UNL     1      32.656  -7.715 -24.856  0.00  0.00    -0.166 F 
ATOM     27  F   UNL     1      30.540  -7.891 -24.412  0.00  0.00    -0.166 F 
ATOM     28  F   UNL     1      31.463  -5.926 -24.534  0.00  0.00    -0.166 F 
ATOM     29  C   UNL     1      31.665  -7.195 -24.071  0.00  0.00    +0.423 C 
ENDBRANCH  22  29
ENDBRANCH  19  21
ENDBRANCH   5  19
TORSDOF 4
ENDMDL
