MODEL 1
REMARK VINA RESULT:     -12.9      0.000      0.000
REMARK  Name = 445756
REMARK  6 active torsions:
REMARK  status: ('A' for Active; 'I' for Inactive)
REMARK    1  A    between atoms: C_3  and  C_11
REMARK    2  A    between atoms: C_6  and  C_22
REMARK    3  A    between atoms: C_11  and  N_12
REMARK    4  A    between atoms: C_22  and  N_23
REMARK    5  A    between atoms: N_23  and  C_25
REMARK    6  A    between atoms: C_30  and  C_33
REMARK                            x       y       z     vdW  Elec       q    Type
REMARK                         _______ _______ _______ _____ _____    ______ ____
ROOT
ATOM      1  N   UNL     1      34.422 -15.457 -22.503  0.00  0.00    -0.261 N 
ATOM      2  N   UNL     1      33.984 -15.344 -20.327  0.00  0.00    -0.392 NA
ATOM      3  C   UNL     1      31.890 -12.437 -21.392  0.00  0.00    -0.017 C 
ATOM      4  C   UNL     1      33.570 -14.394 -22.356  0.00  0.00    +0.079 C 
ATOM      5  C   UNL     1      33.311 -14.344 -20.988  0.00  0.00    +0.128 C 
ATOM      6  C   UNL     1      34.640 -15.992 -21.263  0.00  0.00    +0.183 C 
ATOM      7  C   UNL     1      32.454 -13.348 -20.489  0.00  0.00    +0.084 C 
ATOM      8  C   UNL     1      32.169 -12.513 -22.759  0.00  0.00    -0.005 C 
ATOM      9  C   UNL     1      33.018 -13.498 -23.273  0.00  0.00    +0.017 C 
ATOM     10  C   UNL     1      34.987 -15.927 -23.748  0.00  0.00    +0.120 C 
ENDROOT
BRANCH   3  11
ATOM     11  C   UNL     1      30.976 -11.371 -20.884  0.00  0.00    +0.120 C 
BRANCH  11  12
ATOM     12  N   UNL     1      31.701 -10.135 -20.575  0.00  0.00    -0.260 N 
ATOM     13  N   UNL     1      32.702  -8.573 -19.385  0.00  0.00    -0.394 NA
ATOM     14  C   UNL     1      32.117  -9.220 -21.491  0.00  0.00    +0.079 C 
ATOM     15  C   UNL     1      32.063  -9.721 -19.336  0.00  0.00    +0.164 C 
ATOM     16  C   UNL     1      32.744  -8.245 -20.720  0.00  0.00    +0.128 C 
ATOM     17  C   UNL     1      32.011  -9.148 -22.880  0.00  0.00    +0.017 C 
ATOM     18  C   UNL     1      31.760 -10.493 -18.114  0.00  0.00    +0.084 C 
ATOM     19  C   UNL     1      33.305  -7.125 -21.357  0.00  0.00    +0.086 C 
ATOM     20  C   UNL     1      32.574  -8.026 -23.497  0.00  0.00    -0.003 C 
ATOM     21  C   UNL     1      33.210  -7.031 -22.751  0.00  0.00    -0.019 C 
ENDBRANCH  11  12
ENDBRANCH   3  11
BRANCH   6  22
ATOM     22  C   UNL     1      35.519 -17.161 -21.055  0.00  0.00    +0.164 C 
BRANCH  22  23
ATOM     23  N   UNL     1      35.022 -18.416 -21.608  0.00  0.00    -0.326 N 
ATOM     24  H   UNL     1      34.830 -18.459 -22.573  0.00  0.00    +0.147 HD
BRANCH  23  25
ATOM     25  C   UNL     1      34.807 -19.544 -20.846  0.00  0.00    +0.045 C 
ATOM     26  C   UNL     1      33.501 -20.014 -20.590  0.00  0.00    +0.014 C 
ATOM     27  C   UNL     1      35.885 -20.267 -20.293  0.00  0.00    +0.014 C 
ATOM     28  C   UNL     1      33.284 -21.154 -19.817  0.00  0.00    +0.004 C 
ATOM     29  C   UNL     1      35.668 -21.407 -19.520  0.00  0.00    +0.004 C 
ATOM     30  C   UNL     1      34.367 -21.850 -19.282  0.00  0.00    +0.031 C 
BRANCH  30  33
ATOM     31  N   UNL     1      34.255 -23.005 -17.086  0.00  0.00    -0.343 N 
ATOM     32  N   UNL     1      33.822 -24.181 -19.059  0.00  0.00    -0.285 NA
ATOM     33  C   UNL     1      34.140 -23.039 -18.475  0.00  0.00    +0.117 C 
ATOM     34  H   UNL     1      34.097 -23.822 -16.559  0.00  0.00    +0.144 HD
ATOM     35  H   UNL     1      34.494 -22.165 -16.632  0.00  0.00    +0.144 HD
ATOM     36  H   UNL     1      33.668 -24.987 -18.514  0.00  0.00    +0.188 HD
ENDBRANCH  30  33
ENDBRANCH  23  25
ENDBRANCH  22  23
ENDBRANCH   6  22
TORSDOF 6
ENDMDL
MODEL 2
REMARK VINA RESULT:     -12.0      1.215      1.907
REMARK  Name = 445756
REMARK  6 active torsions:
REMARK  status: ('A' for Active; 'I' for Inactive)
REMARK    1  A    between atoms: C_3  and  C_11
REMARK    2  A    between atoms: C_6  and  C_22
REMARK    3  A    between atoms: C_11  and  N_12
REMARK    4  A    between atoms: C_22  and  N_23
REMARK    5  A    between atoms: N_23  and  C_25
REMARK    6  A    between atoms: C_30  and  C_33
REMARK                            x       y       z     vdW  Elec       q    Type
REMARK                         _______ _______ _______ _____ _____    ______ ____
ROOT
ATOM      1  N   UNL     1      34.282 -15.217 -21.370  0.00  0.00    -0.261 N 
ATOM      2  N   UNL     1      34.004 -14.326 -23.386  0.00  0.00    -0.392 NA
ATOM      3  C   UNL     1      31.842 -11.933 -21.498  0.00  0.00    -0.017 C 
ATOM      4  C   UNL     1      33.444 -14.148 -21.185  0.00  0.00    +0.079 C 
ATOM      5  C   UNL     1      33.286 -13.608 -22.458  0.00  0.00    +0.128 C 
ATOM      6  C   UNL     1      34.588 -15.283 -22.701  0.00  0.00    +0.183 C 
ATOM      7  C   UNL     1      32.470 -12.477 -22.626  0.00  0.00    +0.084 C 
ATOM      8  C   UNL     1      32.020 -12.497 -20.233  0.00  0.00    -0.005 C 
ATOM      9  C   UNL     1      32.829 -13.623 -20.047  0.00  0.00    +0.017 C 
ATOM     10  C   UNL     1      34.755 -16.114 -20.339  0.00  0.00    +0.120 C 
ENDROOT
BRANCH   3  11
ATOM     11  C   UNL     1      30.971 -10.729 -21.653  0.00  0.00    +0.120 C 
BRANCH  11  12
ATOM     12  N   UNL     1      31.703  -9.489 -21.379  0.00  0.00    -0.260 N 
ATOM     13  N   UNL     1      32.592  -7.829 -20.235  0.00  0.00    -0.394 NA
ATOM     14  C   UNL     1      32.297  -8.705 -22.318  0.00  0.00    +0.079 C 
ATOM     15  C   UNL     1      31.896  -8.941 -20.155  0.00  0.00    +0.164 C 
ATOM     16  C   UNL     1      32.851  -7.666 -21.576  0.00  0.00    +0.128 C 
ATOM     17  C   UNL     1      32.404  -8.799 -23.706  0.00  0.00    +0.017 C 
ATOM     18  C   UNL     1      31.374  -9.549 -18.914  0.00  0.00    +0.084 C 
ATOM     19  C   UNL     1      33.557  -6.650 -22.243  0.00  0.00    +0.086 C 
ATOM     20  C   UNL     1      33.110  -7.778 -24.353  0.00  0.00    -0.003 C 
ATOM     21  C   UNL     1      33.677  -6.722 -23.636  0.00  0.00    -0.019 C 
ENDBRANCH  11  12
ENDBRANCH   3  11
BRANCH   6  22
ATOM     22  C   UNL     1      35.477 -16.326 -23.252  0.00  0.00    +0.164 C 
BRANCH  22  23
ATOM     23  N   UNL     1      34.911 -17.670 -23.283  0.00  0.00    -0.326 N 
ATOM     24  H   UNL     1      34.346 -17.922 -24.049  0.00  0.00    +0.147 HD
BRANCH  23  25
ATOM     25  C   UNL     1      35.127 -18.603 -22.292  0.00  0.00    +0.045 C 
ATOM     26  C   UNL     1      34.100 -19.477 -21.876  0.00  0.00    +0.014 C 
ATOM     27  C   UNL     1      36.382 -18.715 -21.657  0.00  0.00    +0.014 C 
ATOM     28  C   UNL     1      34.318 -20.420 -20.872  0.00  0.00    +0.004 C 
ATOM     29  C   UNL     1      36.600 -19.658 -20.653  0.00  0.00    +0.004 C 
ATOM     30  C   UNL     1      35.568 -20.510 -20.260  0.00  0.00    +0.031 C 
BRANCH  30  33
ATOM     31  N   UNL     1      36.727 -21.271 -18.200  0.00  0.00    -0.343 N 
ATOM     32  N   UNL     1      35.112 -22.623 -19.211  0.00  0.00    -0.285 NA
ATOM     33  C   UNL     1      35.795 -21.492 -19.212  0.00  0.00    +0.117 C 
ATOM     34  H   UNL     1      36.865 -21.950 -17.500  0.00  0.00    +0.144 HD
ATOM     35  H   UNL     1      37.248 -20.435 -18.185  0.00  0.00    +0.144 HD
ATOM     36  H   UNL     1      35.264 -23.290 -18.502  0.00  0.00    +0.188 HD
ENDBRANCH  30  33
ENDBRANCH  23  25
ENDBRANCH  22  23
ENDBRANCH   6  22
TORSDOF 6
ENDMDL
MODEL 3
REMARK VINA RESULT:     -11.6      4.813      8.547
REMARK  Name = 445756
REMARK  6 active torsions:
REMARK  status: ('A' for Active; 'I' for Inactive)
REMARK    1  A    between atoms: C_3  and  C_11
REMARK    2  A    between atoms: C_6  and  C_22
REMARK    3  A    between atoms: C_11  and  N_12
REMARK    4  A    between atoms: C_22  and  N_23
REMARK    5  A    between atoms: N_23  and  C_25
REMARK    6  A    between atoms: C_30  and  C_33
REMARK                            x       y       z     vdW  Elec       q    Type
REMARK                         _______ _______ _______ _____ _____    ______ ____
ROOT
ATOM      1  N   UNL     1      33.004 -22.271 -18.154  0.00  0.00    -0.261 N 
ATOM      2  N   UNL     1      35.199 -22.621 -18.122  0.00  0.00    -0.392 NA
ATOM      3  C   UNL     1      35.143 -20.163 -20.937  0.00  0.00    -0.017 C 
ATOM      4  C   UNL     1      33.516 -21.479 -19.150  0.00  0.00    +0.079 C 
ATOM      5  C   UNL     1      34.887 -21.716 -19.109  0.00  0.00    +0.128 C 
ATOM      6  C   UNL     1      34.047 -22.934 -17.570  0.00  0.00    +0.183 C 
ATOM      7  C   UNL     1      35.724 -21.047 -20.018  0.00  0.00    +0.084 C 
ATOM      8  C   UNL     1      33.764 -19.947 -20.952  0.00  0.00    -0.005 C 
ATOM      9  C   UNL     1      32.915 -20.603 -20.055  0.00  0.00    +0.017 C 
ATOM     10  C   UNL     1      31.610 -22.382 -17.790  0.00  0.00    +0.120 C 
ENDROOT
BRANCH   3  11
ATOM     11  C   UNL     1      36.014 -19.441 -21.912  0.00  0.00    +0.120 C 
BRANCH  11  12
ATOM     12  N   UNL     1      35.227 -18.755 -22.941  0.00  0.00    -0.260 N 
ATOM     13  N   UNL     1      34.054 -18.457 -24.782  0.00  0.00    -0.394 NA
ATOM     14  C   UNL     1      34.899 -17.436 -22.928  0.00  0.00    +0.079 C 
ATOM     15  C   UNL     1      34.711 -19.331 -24.054  0.00  0.00    +0.164 C 
ATOM     16  C   UNL     1      34.160 -17.269 -24.096  0.00  0.00    +0.128 C 
ATOM     17  C   UNL     1      35.166 -16.397 -22.035  0.00  0.00    +0.017 C 
ATOM     18  C   UNL     1      34.887 -20.763 -24.369  0.00  0.00    +0.084 C 
ATOM     19  C   UNL     1      33.650 -15.997 -24.407  0.00  0.00    +0.086 C 
ATOM     20  C   UNL     1      34.651 -15.139 -22.361  0.00  0.00    -0.003 C 
ATOM     21  C   UNL     1      33.905 -14.940 -23.526  0.00  0.00    -0.019 C 
ENDBRANCH  11  12
ENDBRANCH   3  11
BRANCH   6  22
ATOM     22  C   UNL     1      33.851 -23.879 -16.452  0.00  0.00    +0.164 C 
BRANCH  22  23
ATOM     23  N   UNL     1      34.676 -23.629 -15.275  0.00  0.00    -0.326 N 
ATOM     24  H   UNL     1      34.340 -23.003 -14.593  0.00  0.00    +0.147 HD
BRANCH  23  25
ATOM     25  C   UNL     1      35.903 -24.223 -15.073  0.00  0.00    +0.045 C 
ATOM     26  C   UNL     1      37.102 -23.499 -15.245  0.00  0.00    +0.014 C 
ATOM     27  C   UNL     1      36.003 -25.577 -14.689  0.00  0.00    +0.014 C 
ATOM     28  C   UNL     1      38.343 -24.101 -15.042  0.00  0.00    +0.004 C 
ATOM     29  C   UNL     1      37.244 -26.179 -14.486  0.00  0.00    +0.004 C 
ATOM     30  C   UNL     1      38.414 -25.441 -14.663  0.00  0.00    +0.031 C 
BRANCH  30  33
ATOM     31  N   UNL     1      40.097 -26.525 -13.194  0.00  0.00    -0.343 N 
ATOM     32  N   UNL     1      40.543 -26.214 -15.466  0.00  0.00    -0.285 NA
ATOM     33  C   UNL     1      39.709 -26.070 -14.452  0.00  0.00    +0.117 C 
ATOM     34  H   UNL     1      40.979 -26.948 -13.074  0.00  0.00    +0.144 HD
ATOM     35  H   UNL     1      39.491 -26.425 -12.425  0.00  0.00    +0.144 HD
ATOM     36  H   UNL     1      41.421 -26.639 -15.326  0.00  0.00    +0.188 HD
ENDBRANCH  30  33
ENDBRANCH  23  25
ENDBRANCH  22  23
ENDBRANCH   6  22
TORSDOF 6
ENDMDL
MODEL 4
REMARK VINA RESULT:     -11.1      1.493      2.414
REMARK  Name = 445756
REMARK  6 active torsions:
REMARK  status: ('A' for Active; 'I' for Inactive)
REMARK    1  A    between atoms: C_3  and  C_11
REMARK    2  A    between atoms: C_6  and  C_22
REMARK    3  A    between atoms: C_11  and  N_12
REMARK    4  A    between atoms: C_22  and  N_23
REMARK    5  A    between atoms: N_23  and  C_25
REMARK    6  A    between atoms: C_30  and  C_33
REMARK                            x       y       z     vdW  Elec       q    Type
REMARK                         _______ _______ _______ _____ _____    ______ ____
ROOT
ATOM      1  N   UNL     1      34.801 -16.225 -21.598  0.00  0.00    -0.261 N 
ATOM      2  N   UNL     1      34.546 -16.297 -23.805  0.00  0.00    -0.392 NA
ATOM      3  C   UNL     1      33.261 -12.826 -23.284  0.00  0.00    -0.017 C 
ATOM      4  C   UNL     1      34.282 -15.005 -21.947  0.00  0.00    +0.079 C 
ATOM      5  C   UNL     1      34.131 -15.075 -23.329  0.00  0.00    +0.128 C 
ATOM      6  C   UNL     1      34.941 -16.961 -22.742  0.00  0.00    +0.183 C 
ATOM      7  C   UNL     1      33.612 -13.967 -24.019  0.00  0.00    +0.084 C 
ATOM      8  C   UNL     1      33.424 -12.786 -21.897  0.00  0.00    -0.005 C 
ATOM      9  C   UNL     1      33.941 -13.880 -21.195  0.00  0.00    +0.017 C 
ATOM     10  C   UNL     1      35.141 -16.652 -20.260  0.00  0.00    +0.120 C 
ENDROOT
BRANCH   3  11
ATOM     11  C   UNL     1      32.708 -11.636 -23.997  0.00  0.00    +0.120 C 
BRANCH  11  12
ATOM     12  N   UNL     1      32.664 -10.455 -23.129  0.00  0.00    -0.260 N 
ATOM     13  N   UNL     1      31.949  -9.058 -21.582  0.00  0.00    -0.394 NA
ATOM     14  C   UNL     1      33.574  -9.445 -23.133  0.00  0.00    +0.079 C 
ATOM     15  C   UNL     1      31.714 -10.194 -22.199  0.00  0.00    +0.164 C 
ATOM     16  C   UNL     1      33.106  -8.576 -22.151  0.00  0.00    +0.128 C 
ATOM     17  C   UNL     1      34.732  -9.209 -23.876  0.00  0.00    +0.017 C 
ATOM     18  C   UNL     1      30.575 -11.100 -21.942  0.00  0.00    +0.084 C 
ATOM     19  C   UNL     1      33.822  -7.397 -21.882  0.00  0.00    +0.086 C 
ATOM     20  C   UNL     1      35.431  -8.031 -23.595  0.00  0.00    -0.003 C 
ATOM     21  C   UNL     1      34.986  -7.140 -22.616  0.00  0.00    -0.019 C 
ENDBRANCH  11  12
ENDBRANCH   3  11
BRANCH   6  22
ATOM     22  C   UNL     1      35.477 -18.338 -22.729  0.00  0.00    +0.164 C 
BRANCH  22  23
ATOM     23  N   UNL     1      34.497 -19.383 -22.454  0.00  0.00    -0.326 N 
ATOM     24  H   UNL     1      33.779 -19.536 -23.110  0.00  0.00    +0.147 HD
BRANCH  23  25
ATOM     25  C   UNL     1      34.526 -20.164 -21.319  0.00  0.00    +0.045 C 
ATOM     26  C   UNL     1      35.747 -20.623 -20.779  0.00  0.00    +0.014 C 
ATOM     27  C   UNL     1      33.335 -20.537 -20.660  0.00  0.00    +0.014 C 
ATOM     28  C   UNL     1      35.775 -21.415 -19.632  0.00  0.00    +0.004 C 
ATOM     29  C   UNL     1      33.364 -21.329 -19.513  0.00  0.00    +0.004 C 
ATOM     30  C   UNL     1      34.583 -21.769 -19.000  0.00  0.00    +0.031 C 
BRANCH  30  33
ATOM     31  N   UNL     1      33.480 -23.280 -17.367  0.00  0.00    -0.343 N 
ATOM     32  N   UNL     1      35.731 -22.710 -17.109  0.00  0.00    -0.285 NA
ATOM     33  C   UNL     1      34.613 -22.598 -17.804  0.00  0.00    +0.117 C 
ATOM     34  H   UNL     1      33.522 -23.835 -16.554  0.00  0.00    +0.144 HD
ATOM     35  H   UNL     1      32.636 -23.206 -17.869  0.00  0.00    +0.144 HD
ATOM     36  H   UNL     1      35.753 -23.270 -16.299  0.00  0.00    +0.188 HD
ENDBRANCH  30  33
ENDBRANCH  23  25
ENDBRANCH  22  23
ENDBRANCH   6  22
TORSDOF 6
ENDMDL
MODEL 5
REMARK VINA RESULT:     -11.0      1.836      2.384
REMARK  Name = 445756
REMARK  6 active torsions:
REMARK  status: ('A' for Active; 'I' for Inactive)
REMARK    1  A    between atoms: C_3  and  C_11
REMARK    2  A    between atoms: C_6  and  C_22
REMARK    3  A    between atoms: C_11  and  N_12
REMARK    4  A    between atoms: C_22  and  N_23
REMARK    5  A    between atoms: N_23  and  C_25
REMARK    6  A    between atoms: C_30  and  C_33
REMARK                            x       y       z     vdW  Elec       q    Type
REMARK                         _______ _______ _______ _____ _____    ______ ____
ROOT
ATOM      1  N   UNL     1      34.129 -17.204 -24.011  0.00  0.00    -0.261 N 
ATOM      2  N   UNL     1      35.183 -16.704 -22.120  0.00  0.00    -0.392 NA
ATOM      3  C   UNL     1      34.154 -13.228 -23.032  0.00  0.00    -0.017 C 
ATOM      4  C   UNL     1      34.017 -15.844 -23.878  0.00  0.00    +0.079 C 
ATOM      5  C   UNL     1      34.683 -15.556 -22.690  0.00  0.00    +0.128 C 
ATOM      6  C   UNL     1      34.833 -17.672 -22.937  0.00  0.00    +0.183 C 
ATOM      7  C   UNL     1      34.757 -14.224 -22.251  0.00  0.00    +0.084 C 
ATOM      8  C   UNL     1      33.492 -13.549 -24.219  0.00  0.00    -0.005 C 
ATOM      9  C   UNL     1      33.408 -14.869 -24.671  0.00  0.00    +0.017 C 
ATOM     10  C   UNL     1      33.595 -17.998 -25.095  0.00  0.00    +0.120 C 
ENDROOT
BRANCH   3  11
ATOM     11  C   UNL     1      34.219 -11.805 -22.584  0.00  0.00    +0.120 C 
BRANCH  11  12
ATOM     12  N   UNL     1      32.886 -11.203 -22.491  0.00  0.00    -0.260 N 
ATOM     13  N   UNL     1      30.772 -10.950 -21.923  0.00  0.00    -0.394 NA
ATOM     14  C   UNL     1      32.514 -10.029 -23.068  0.00  0.00    +0.079 C 
ATOM     15  C   UNL     1      31.830 -11.723 -21.820  0.00  0.00    +0.164 C 
ATOM     16  C   UNL     1      31.179  -9.889 -22.698  0.00  0.00    +0.128 C 
ATOM     17  C   UNL     1      33.192  -9.099 -23.857  0.00  0.00    +0.017 C 
ATOM     18  C   UNL     1      31.902 -12.999 -21.079  0.00  0.00    +0.084 C 
ATOM     19  C   UNL     1      30.464  -8.759 -23.131  0.00  0.00    +0.086 C 
ATOM     20  C   UNL     1      32.464  -7.982 -24.279  0.00  0.00    -0.003 C 
ATOM     21  C   UNL     1      31.124  -7.813 -23.923  0.00  0.00    -0.019 C 
ENDBRANCH  11  12
ENDBRANCH   3  11
BRANCH   6  22
ATOM     22  C   UNL     1      35.139 -19.106 -22.763  0.00  0.00    +0.164 C 
BRANCH  22  23
ATOM     23  N   UNL     1      35.715 -19.465 -21.471  0.00  0.00    -0.326 N 
ATOM     24  H   UNL     1      36.584 -19.074 -21.222  0.00  0.00    +0.147 HD
BRANCH  23  25
ATOM     25  C   UNL     1      35.105 -20.326 -20.585  0.00  0.00    +0.045 C 
ATOM     26  C   UNL     1      33.700 -20.365 -20.455  0.00  0.00    +0.014 C 
ATOM     27  C   UNL     1      35.864 -21.196 -19.774  0.00  0.00    +0.014 C 
ATOM     28  C   UNL     1      33.083 -21.235 -19.557  0.00  0.00    +0.004 C 
ATOM     29  C   UNL     1      35.247 -22.066 -18.876  0.00  0.00    +0.004 C 
ATOM     30  C   UNL     1      33.857 -22.085 -18.766  0.00  0.00    +0.031 C 
BRANCH  30  33
ATOM     31  N   UNL     1      31.894 -22.798 -17.423  0.00  0.00    -0.343 N 
ATOM     32  N   UNL     1      33.885 -24.019 -17.340  0.00  0.00    -0.285 NA
ATOM     33  C   UNL     1      33.213 -22.991 -17.828  0.00  0.00    +0.117 C 
ATOM     34  H   UNL     1      31.478 -23.424 -16.786  0.00  0.00    +0.144 HD
ATOM     35  H   UNL     1      31.378 -22.036 -17.773  0.00  0.00    +0.144 HD
ATOM     36  H   UNL     1      33.451 -24.634 -16.705  0.00  0.00    +0.188 HD
ENDBRANCH  30  33
ENDBRANCH  23  25
ENDBRANCH  22  23
ENDBRANCH   6  22
TORSDOF 6
ENDMDL
MODEL 6
REMARK VINA RESULT:     -11.0      2.358      4.800
REMARK  Name = 445756
REMARK  6 active torsions:
REMARK  status: ('A' for Active; 'I' for Inactive)
REMARK    1  A    between atoms: C_3  and  C_11
REMARK    2  A    between atoms: C_6  and  C_22
REMARK    3  A    between atoms: C_11  and  N_12
REMARK    4  A    between atoms: C_22  and  N_23
REMARK    5  A    between atoms: N_23  and  C_25
REMARK    6  A    between atoms: C_30  and  C_33
REMARK                            x       y       z     vdW  Elec       q    Type
REMARK                         _______ _______ _______ _____ _____    ______ ____
ROOT
ATOM      1  N   UNL     1      32.219 -12.265 -21.550  0.00  0.00    -0.261 N 
ATOM      2  N   UNL     1      33.065 -11.218 -23.318  0.00  0.00    -0.392 NA
ATOM      3  C   UNL     1      32.739  -8.229 -21.098  0.00  0.00    -0.017 C 
ATOM      4  C   UNL     1      32.308 -10.946 -21.186  0.00  0.00    +0.079 C 
ATOM      5  C   UNL     1      32.839 -10.313 -22.307  0.00  0.00    +0.128 C 
ATOM      6  C   UNL     1      32.683 -12.377 -22.831  0.00  0.00    +0.183 C 
ATOM      7  C   UNL     1      33.062  -8.926 -22.269  0.00  0.00    +0.084 C 
ATOM      8  C   UNL     1      32.209  -8.892 -19.990  0.00  0.00    -0.005 C 
ATOM      9  C   UNL     1      31.980 -10.272 -20.009  0.00  0.00    +0.017 C 
ATOM     10  C   UNL     1      31.724 -13.342 -20.723  0.00  0.00    +0.120 C 
ENDROOT
BRANCH   3  11
ATOM     11  C   UNL     1      32.969  -6.754 -21.035  0.00  0.00    +0.120 C 
BRANCH  11  12
ATOM     12  N   UNL     1      32.496  -6.078 -22.247  0.00  0.00    -0.260 N 
ATOM     13  N   UNL     1      31.146  -4.993 -23.610  0.00  0.00    -0.394 NA
ATOM     14  C   UNL     1      33.222  -5.907 -23.384  0.00  0.00    +0.079 C 
ATOM     15  C   UNL     1      31.270  -5.526 -22.414  0.00  0.00    +0.164 C 
ATOM     16  C   UNL     1      32.353  -5.222 -24.229  0.00  0.00    +0.128 C 
ATOM     17  C   UNL     1      34.518  -6.272 -23.750  0.00  0.00    +0.017 C 
ATOM     18  C   UNL     1      30.235  -5.540 -21.361  0.00  0.00    +0.084 C 
ATOM     19  C   UNL     1      32.787  -4.872 -25.519  0.00  0.00    +0.086 C 
ATOM     20  C   UNL     1      34.932  -5.916 -25.038  0.00  0.00    -0.003 C 
ATOM     21  C   UNL     1      34.084  -5.228 -25.908  0.00  0.00    -0.019 C 
ENDBRANCH  11  12
ENDBRANCH   3  11
BRANCH   6  22
ATOM     22  C   UNL     1      32.727 -13.672 -23.540  0.00  0.00    +0.164 C 
BRANCH  22  23
ATOM     23  N   UNL     1      34.058 -14.248 -23.696  0.00  0.00    -0.326 N 
ATOM     24  H   UNL     1      34.686 -13.814 -24.318  0.00  0.00    +0.147 HD
BRANCH  23  25
ATOM     25  C   UNL     1      34.479 -15.372 -23.017  0.00  0.00    +0.045 C 
ATOM     26  C   UNL     1      34.797 -16.563 -23.704  0.00  0.00    +0.014 C 
ATOM     27  C   UNL     1      34.604 -15.370 -21.612  0.00  0.00    +0.014 C 
ATOM     28  C   UNL     1      35.220 -17.700 -23.017  0.00  0.00    +0.004 C 
ATOM     29  C   UNL     1      35.027 -16.507 -20.925  0.00  0.00    +0.004 C 
ATOM     30  C   UNL     1      35.335 -17.672 -21.627  0.00  0.00    +0.031 C 
BRANCH  30  33
ATOM     31  N   UNL     1      34.882 -19.870 -20.563  0.00  0.00    -0.343 N 
ATOM     32  N   UNL     1      37.046 -18.990 -20.572  0.00  0.00    -0.285 NA
ATOM     33  C   UNL     1      35.776 -18.859 -20.910  0.00  0.00    +0.117 C 
ATOM     34  H   UNL     1      35.202 -20.665 -20.078  0.00  0.00    +0.144 HD
ATOM     35  H   UNL     1      33.930 -19.790 -20.803  0.00  0.00    +0.144 HD
ATOM     36  H   UNL     1      37.347 -19.792 -20.087  0.00  0.00    +0.188 HD
ENDBRANCH  30  33
ENDBRANCH  23  25
ENDBRANCH  22  23
ENDBRANCH   6  22
TORSDOF 6
ENDMDL
MODEL 7
REMARK VINA RESULT:     -11.0      5.964     13.000
REMARK  Name = 445756
REMARK  6 active torsions:
REMARK  status: ('A' for Active; 'I' for Inactive)
REMARK    1  A    between atoms: C_3  and  C_11
REMARK    2  A    between atoms: C_6  and  C_22
REMARK    3  A    between atoms: C_11  and  N_12
REMARK    4  A    between atoms: C_22  and  N_23
REMARK    5  A    between atoms: N_23  and  C_25
REMARK    6  A    between atoms: C_30  and  C_33
REMARK                            x       y       z     vdW  Elec       q    Type
REMARK                         _______ _______ _______ _____ _____    ______ ____
ROOT
ATOM      1  N   UNL     1      34.495 -22.479 -18.213  0.00  0.00    -0.261 N 
ATOM      2  N   UNL     1      36.553 -22.287 -17.396  0.00  0.00    -0.392 NA
ATOM      3  C   UNL     1      34.962 -23.769 -14.355  0.00  0.00    -0.017 C 
ATOM      4  C   UNL     1      34.426 -22.961 -16.931  0.00  0.00    +0.079 C 
ATOM      5  C   UNL     1      35.723 -22.830 -16.442  0.00  0.00    +0.128 C 
ATOM      6  C   UNL     1      35.785 -22.088 -18.443  0.00  0.00    +0.183 C 
ATOM      7  C   UNL     1      36.005 -23.241 -15.129  0.00  0.00    +0.084 C 
ATOM      8  C   UNL     1      33.671 -23.888 -14.875  0.00  0.00    -0.005 C 
ATOM      9  C   UNL     1      33.373 -23.485 -16.180  0.00  0.00    +0.017 C 
ATOM     10  C   UNL     1      33.398 -22.400 -19.151  0.00  0.00    +0.120 C 
ENDROOT
BRANCH   3  11
ATOM     11  C   UNL     1      35.239 -24.213 -12.957  0.00  0.00    +0.120 C 
BRANCH  11  12
ATOM     12  N   UNL     1      36.671 -24.427 -12.727  0.00  0.00    -0.260 N 
ATOM     13  N   UNL     1      38.669 -24.214 -11.823  0.00  0.00    -0.394 NA
ATOM     14  C   UNL     1      37.460 -25.278 -13.436  0.00  0.00    +0.079 C 
ATOM     15  C   UNL     1      37.418 -23.812 -11.779  0.00  0.00    +0.164 C 
ATOM     16  C   UNL     1      38.714 -25.128 -12.851  0.00  0.00    +0.128 C 
ATOM     17  C   UNL     1      37.210 -26.141 -14.504  0.00  0.00    +0.017 C 
ATOM     18  C   UNL     1      36.859 -22.824 -10.835  0.00  0.00    +0.084 C 
ATOM     19  C   UNL     1      39.794 -25.877 -13.346  0.00  0.00    +0.086 C 
ATOM     20  C   UNL     1      38.298 -26.878 -14.984  0.00  0.00    -0.003 C 
ATOM     21  C   UNL     1      39.568 -26.750 -14.417  0.00  0.00    -0.019 C 
ENDBRANCH  11  12
ENDBRANCH   3  11
BRANCH   6  22
ATOM     22  C   UNL     1      36.213 -21.516 -19.736  0.00  0.00    +0.164 C 
BRANCH  22  23
ATOM     23  N   UNL     1      36.113 -20.064 -19.835  0.00  0.00    -0.326 N 
ATOM     24  H   UNL     1      36.397 -19.521 -19.064  0.00  0.00    +0.147 HD
BRANCH  23  25
ATOM     25  C   UNL     1      35.637 -19.415 -20.954  0.00  0.00    +0.045 C 
ATOM     26  C   UNL     1      35.916 -18.050 -21.180  0.00  0.00    +0.014 C 
ATOM     27  C   UNL     1      34.852 -20.091 -21.911  0.00  0.00    +0.014 C 
ATOM     28  C   UNL     1      35.433 -17.392 -22.310  0.00  0.00    +0.004 C 
ATOM     29  C   UNL     1      34.369 -19.434 -23.042  0.00  0.00    +0.004 C 
ATOM     30  C   UNL     1      34.659 -18.085 -23.242  0.00  0.00    +0.031 C 
BRANCH  30  33
ATOM     31  N   UNL     1      34.769 -16.247 -24.908  0.00  0.00    -0.343 N 
ATOM     32  N   UNL     1      33.089 -17.866 -25.048  0.00  0.00    -0.285 NA
ATOM     33  C   UNL     1      34.154 -17.399 -24.421  0.00  0.00    +0.117 C 
ATOM     34  H   UNL     1      34.410 -15.799 -25.709  0.00  0.00    +0.144 HD
ATOM     35  H   UNL     1      35.562 -15.882 -24.453  0.00  0.00    +0.144 HD
ATOM     36  H   UNL     1      32.746 -17.403 -25.847  0.00  0.00    +0.188 HD
ENDBRANCH  30  33
ENDBRANCH  23  25
ENDBRANCH  22  23
ENDBRANCH   6  22
TORSDOF 6
ENDMDL
MODEL 8
REMARK VINA RESULT:     -11.0      7.020     13.528
REMARK  Name = 445756
REMARK  6 active torsions:
REMARK  status: ('A' for Active; 'I' for Inactive)
REMARK    1  A    between atoms: C_3  and  C_11
REMARK    2  A    between atoms: C_6  and  C_22
REMARK    3  A    between atoms: C_11  and  N_12
REMARK    4  A    between atoms: C_22  and  N_23
REMARK    5  A    between atoms: N_23  and  C_25
REMARK    6  A    between atoms: C_30  and  C_33
REMARK                            x       y       z     vdW  Elec       q    Type
REMARK                         _______ _______ _______ _____ _____    ______ ____
ROOT
ATOM      1  N   UNL     1      31.923 -23.452 -15.784  0.00  0.00    -0.261 N 
ATOM      2  N   UNL     1      34.106 -23.242 -16.146  0.00  0.00    -0.392 NA
ATOM      3  C   UNL     1      34.326 -24.766 -12.741  0.00  0.00    -0.017 C 
ATOM      4  C   UNL     1      32.530 -23.945 -14.658  0.00  0.00    +0.079 C 
ATOM      5  C   UNL     1      33.892 -23.803 -14.909  0.00  0.00    +0.128 C 
ATOM      6  C   UNL     1      32.905 -23.044 -16.643  0.00  0.00    +0.183 C 
ATOM      7  C   UNL     1      34.815 -24.220 -13.935  0.00  0.00    +0.084 C 
ATOM      8  C   UNL     1      32.953 -24.897 -12.519  0.00  0.00    -0.005 C 
ATOM      9  C   UNL     1      32.020 -24.487 -13.477  0.00  0.00    +0.017 C 
ATOM     10  C   UNL     1      30.498 -23.379 -16.018  0.00  0.00    +0.120 C 
ENDROOT
BRANCH   3  11
ATOM     11  C   UNL     1      35.289 -25.218 -11.693  0.00  0.00    +0.120 C 
BRANCH  11  12
ATOM     12  N   UNL     1      36.675 -24.914 -12.061  0.00  0.00    -0.260 N 
ATOM     13  N   UNL     1      38.614 -23.868 -12.107  0.00  0.00    -0.394 NA
ATOM     14  C   UNL     1      37.432 -25.635 -12.930  0.00  0.00    +0.079 C 
ATOM     15  C   UNL     1      37.405 -23.873 -11.591  0.00  0.00    +0.164 C 
ATOM     16  C   UNL     1      38.649 -24.959 -12.945  0.00  0.00    +0.128 C 
ATOM     17  C   UNL     1      37.182 -26.781 -13.685  0.00  0.00    +0.017 C 
ATOM     18  C   UNL     1      36.873 -22.893 -10.623  0.00  0.00    +0.084 C 
ATOM     19  C   UNL     1      39.690 -25.442 -13.756  0.00  0.00    +0.086 C 
ATOM     20  C   UNL     1      38.229 -27.246 -14.488  0.00  0.00    -0.003 C 
ATOM     21  C   UNL     1      39.462 -26.591 -14.523  0.00  0.00    -0.019 C 
ENDBRANCH  11  12
ENDBRANCH   3  11
BRANCH   6  22
ATOM     22  C   UNL     1      32.600 -22.457 -17.964  0.00  0.00    +0.164 C 
BRANCH  22  23
ATOM     23  N   UNL     1      33.582 -22.732 -19.007  0.00  0.00    -0.326 N 
ATOM     24  H   UNL     1      33.720 -23.667 -19.284  0.00  0.00    +0.147 HD
BRANCH  23  25
ATOM     25  C   UNL     1      34.326 -21.748 -19.622  0.00  0.00    +0.045 C 
ATOM     26  C   UNL     1      35.732 -21.714 -19.503  0.00  0.00    +0.014 C 
ATOM     27  C   UNL     1      33.707 -20.739 -20.390  0.00  0.00    +0.014 C 
ATOM     28  C   UNL     1      36.484 -20.718 -20.124  0.00  0.00    +0.004 C 
ATOM     29  C   UNL     1      34.460 -19.743 -21.011  0.00  0.00    +0.004 C 
ATOM     30  C   UNL     1      35.848 -19.732 -20.878  0.00  0.00    +0.031 C 
BRANCH  30  33
ATOM     31  N   UNL     1      36.026 -17.689 -22.278  0.00  0.00    -0.343 N 
ATOM     32  N   UNL     1      37.948 -18.689 -21.405  0.00  0.00    -0.285 NA
ATOM     33  C   UNL     1      36.632 -18.691 -21.524  0.00  0.00    +0.117 C 
ATOM     34  H   UNL     1      36.576 -16.994 -22.707  0.00  0.00    +0.144 HD
ATOM     35  H   UNL     1      35.047 -17.674 -22.381  0.00  0.00    +0.144 HD
ATOM     36  H   UNL     1      38.481 -17.986 -21.842  0.00  0.00    +0.188 HD
ENDBRANCH  30  33
ENDBRANCH  23  25
ENDBRANCH  22  23
ENDBRANCH   6  22
TORSDOF 6
ENDMDL
MODEL 9
REMARK VINA RESULT:     -11.0      1.650      2.574
REMARK  Name = 445756
REMARK  6 active torsions:
REMARK  status: ('A' for Active; 'I' for Inactive)
REMARK    1  A    between atoms: C_3  and  C_11
REMARK    2  A    between atoms: C_6  and  C_22
REMARK    3  A    between atoms: C_11  and  N_12
REMARK    4  A    between atoms: C_22  and  N_23
REMARK    5  A    between atoms: N_23  and  C_25
REMARK    6  A    between atoms: C_30  and  C_33
REMARK                            x       y       z     vdW  Elec       q    Type
REMARK                         _______ _______ _______ _____ _____    ______ ____
ROOT
ATOM      1  N   UNL     1      34.452 -15.431 -21.299  0.00  0.00    -0.261 N 
ATOM      2  N   UNL     1      34.979 -15.260 -23.452  0.00  0.00    -0.392 NA
ATOM      3  C   UNL     1      33.224 -11.977 -23.122  0.00  0.00    -0.017 C 
ATOM      4  C   UNL     1      33.954 -14.219 -21.703  0.00  0.00    +0.079 C 
ATOM      5  C   UNL     1      34.296 -14.136 -23.050  0.00  0.00    +0.128 C 
ATOM      6  C   UNL     1      35.054 -16.016 -22.378  0.00  0.00    +0.183 C 
ATOM      7  C   UNL     1      33.927 -12.994 -23.781  0.00  0.00    +0.084 C 
ATOM      8  C   UNL     1      32.897 -12.089 -21.769  0.00  0.00    -0.005 C 
ATOM      9  C   UNL     1      33.256 -13.218 -21.026  0.00  0.00    +0.017 C 
ATOM     10  C   UNL     1      34.355 -15.989 -19.969  0.00  0.00    +0.120 C 
ENDROOT
BRANCH   3  11
ATOM     11  C   UNL     1      32.824 -10.753 -23.879  0.00  0.00    +0.120 C 
BRANCH  11  12
ATOM     12  N   UNL     1      33.429  -9.543 -23.316  0.00  0.00    -0.260 N 
ATOM     13  N   UNL     1      34.955  -8.017 -22.868  0.00  0.00    -0.394 NA
ATOM     14  C   UNL     1      32.790  -8.640 -22.525  0.00  0.00    +0.079 C 
ATOM     15  C   UNL     1      34.711  -9.144 -23.499  0.00  0.00    +0.164 C 
ATOM     16  C   UNL     1      33.769  -7.688 -22.254  0.00  0.00    +0.128 C 
ATOM     17  C   UNL     1      31.487  -8.562 -22.032  0.00  0.00    +0.017 C 
ATOM     18  C   UNL     1      35.679  -9.907 -24.314  0.00  0.00    +0.084 C 
ATOM     19  C   UNL     1      33.445  -6.586 -21.445  0.00  0.00    +0.086 C 
ATOM     20  C   UNL     1      31.184  -7.459 -21.228  0.00  0.00    -0.003 C 
ATOM     21  C   UNL     1      32.144  -6.486 -20.939  0.00  0.00    -0.019 C 
ENDBRANCH  11  12
ENDBRANCH   3  11
BRANCH   6  22
ATOM     22  C   UNL     1      35.700 -17.342 -22.296  0.00  0.00    +0.164 C 
BRANCH  22  23
ATOM     23  N   UNL     1      34.791 -18.480 -22.380  0.00  0.00    -0.326 N 
ATOM     24  H   UNL     1      34.203 -18.551 -23.166  0.00  0.00    +0.147 HD
BRANCH  23  25
ATOM     25  C   UNL     1      34.716 -19.459 -21.413  0.00  0.00    +0.045 C 
ATOM     26  C   UNL     1      33.470 -19.968 -20.986  0.00  0.00    +0.014 C 
ATOM     27  C   UNL     1      35.880 -19.985 -20.815  0.00  0.00    +0.014 C 
ATOM     28  C   UNL     1      33.394 -20.957 -20.006  0.00  0.00    +0.004 C 
ATOM     29  C   UNL     1      35.804 -20.974 -19.835  0.00  0.00    +0.004 C 
ATOM     30  C   UNL     1      34.561 -21.460 -19.430  0.00  0.00    +0.031 C 
BRANCH  30  33
ATOM     31  N   UNL     1      33.341 -23.277 -18.257  0.00  0.00    -0.343 N 
ATOM     32  N   UNL     1      35.503 -22.691 -17.594  0.00  0.00    -0.285 NA
ATOM     33  C   UNL     1      34.481 -22.490 -18.407  0.00  0.00    +0.117 C 
ATOM     34  H   UNL     1      33.308 -23.969 -17.558  0.00  0.00    +0.144 HD
ATOM     35  H   UNL     1      32.567 -23.141 -18.851  0.00  0.00    +0.144 HD
ATOM     36  H   UNL     1      35.451 -23.389 -16.900  0.00  0.00    +0.188 HD
ENDBRANCH  30  33
ENDBRANCH  23  25
ENDBRANCH  22  23
ENDBRANCH   6  22
TORSDOF 6
ENDMDL
