MODEL 1
REMARK VINA RESULT:     -12.3      0.000      0.000
REMARK  Name = 11634458
REMARK  5 active torsions:
REMARK  status: ('A' for Active; 'I' for Inactive)
REMARK    1  A    between atoms: N_3  and  C_11
REMARK    2  A    between atoms: C_4  and  C_19
REMARK    3  A    between atoms: C_5  and  O_35
REMARK    4  A    between atoms: N_18  and  C_22
REMARK    5  A    between atoms: C_25  and  N_29
REMARK                            x       y       z     vdW  Elec       q    Type
REMARK                         _______ _______ _______ _____ _____    ______ ____
ROOT
ATOM      1  O   UNL     1      31.965 -23.894 -12.584  0.00  0.00    -0.252 OA
ATOM      2  N   UNL     1      33.835 -24.385 -13.823  0.00  0.00    -0.255 N 
ATOM      3  N   UNL     1      31.809 -23.914 -14.910  0.00  0.00    -0.268 N 
ATOM      4  C   UNL     1      34.554 -24.759 -15.040  0.00  0.00    +0.156 C 
ATOM      5  C   UNL     1      36.077 -24.811 -13.175  0.00  0.00    +0.137 C 
ATOM      6  C   UNL     1      35.835 -25.433 -14.549  0.00  0.00    +0.061 C 
ATOM      7  C   UNL     1      34.676 -24.558 -12.641  0.00  0.00    +0.125 C 
ATOM      8  C   UNL     1      32.479 -24.051 -13.693  0.00  0.00    +0.308 C 
ATOM      9  H   UNL     1      32.348 -24.069 -15.719  0.00  0.00    +0.156 HD
ENDROOT
BRANCH   3  11
ATOM     10 CL   UNL     1      26.123 -22.515 -15.797  0.00  0.00    -0.082 Cl
ATOM     11  C   UNL     1      30.449 -23.580 -15.122  0.00  0.00    +0.052 C 
ATOM     12  C   UNL     1      29.659 -24.379 -15.944  0.00  0.00    +0.016 C 
ATOM     13  C   UNL     1      29.910 -22.452 -14.508  0.00  0.00    +0.016 C 
ATOM     14  C   UNL     1      28.319 -24.049 -16.153  0.00  0.00    +0.013 C 
ATOM     15  C   UNL     1      28.571 -22.123 -14.717  0.00  0.00    +0.013 C 
ATOM     16  C   UNL     1      27.776 -22.921 -15.539  0.00  0.00    +0.058 C 
ENDBRANCH   3  11
BRANCH   4  19
ATOM     17  O   UNL     1      35.397 -22.551 -15.268  0.00  0.00    -0.273 OA
ATOM     18  N   UNL     1      34.467 -23.634 -17.139  0.00  0.00    -0.281 N 
ATOM     19  C   UNL     1      34.863 -23.512 -15.814  0.00  0.00    +0.244 C 
ATOM     20  H   UNL     1      34.050 -24.489 -17.392  0.00  0.00    +0.155 HD
BRANCH  18  22
ATOM     21  F   UNL     1      32.239 -22.359 -18.197  0.00  0.00    -0.203 F 
ATOM     22  C   UNL     1      34.592 -22.670 -18.168  0.00  0.00    +0.078 C 
ATOM     23  C   UNL     1      33.457 -22.057 -18.668  0.00  0.00    +0.155 C 
ATOM     24  C   UNL     1      35.853 -22.363 -18.653  0.00  0.00    +0.018 C 
ATOM     25  C   UNL     1      34.846 -20.788 -20.183  0.00  0.00    +0.061 C 
ATOM     26  C   UNL     1      33.584 -21.109 -19.683  0.00  0.00    +0.046 C 
ATOM     27  C   UNL     1      35.980 -21.415 -19.668  0.00  0.00    +0.017 C 
BRANCH  25  29
ATOM     28  O   UNL     1      36.772 -18.630 -20.225  0.00  0.00    -0.269 OA
ATOM     29  N   UNL     1      34.978 -19.802 -21.239  0.00  0.00    -0.233 N 
ATOM     30  C   UNL     1      35.993 -18.814 -21.161  0.00  0.00    +0.257 C 
ATOM     31  C   UNL     1      34.099 -19.804 -22.324  0.00  0.00    +0.072 C 
ATOM     32  C   UNL     1      36.090 -17.866 -22.313  0.00  0.00    +0.059 C 
ATOM     33  C   UNL     1      34.186 -18.924 -23.327  0.00  0.00    +0.017 C 
ATOM     34  C   UNL     1      35.218 -17.931 -23.322  0.00  0.00    +0.006 C 
ENDBRANCH  25  29
ENDBRANCH  18  22
ENDBRANCH   4  19
BRANCH   5  35
ATOM     35  O   UNL     1      36.779 -23.582 -13.323  0.00  0.00    -0.352 OA
ATOM     36  C   UNL     1      37.222 -23.082 -12.069  0.00  0.00    +0.174 C 
ENDBRANCH   5  35
TORSDOF 5
ENDMDL
MODEL 2
REMARK VINA RESULT:     -11.5      2.003      2.834
REMARK  Name = 11634458
REMARK  5 active torsions:
REMARK  status: ('A' for Active; 'I' for Inactive)
REMARK    1  A    between atoms: N_3  and  C_11
REMARK    2  A    between atoms: C_4  and  C_19
REMARK    3  A    between atoms: C_5  and  O_35
REMARK    4  A    between atoms: N_18  and  C_22
REMARK    5  A    between atoms: C_25  and  N_29
REMARK                            x       y       z     vdW  Elec       q    Type
REMARK                         _______ _______ _______ _____ _____    ______ ____
ROOT
ATOM      1  O   UNL     1      33.475 -23.692 -11.780  0.00  0.00    -0.252 OA
ATOM      2  N   UNL     1      35.299 -24.882 -12.509  0.00  0.00    -0.255 N 
ATOM      3  N   UNL     1      33.328 -24.877 -13.782  0.00  0.00    -0.268 N 
ATOM      4  C   UNL     1      35.987 -25.873 -13.334  0.00  0.00    +0.156 C 
ATOM      5  C   UNL     1      37.491 -25.087 -11.627  0.00  0.00    +0.137 C 
ATOM      6  C   UNL     1      37.201 -26.299 -12.508  0.00  0.00    +0.061 C 
ATOM      7  C   UNL     1      36.116 -24.493 -11.362  0.00  0.00    +0.125 C 
ATOM      8  C   UNL     1      33.977 -24.427 -12.632  0.00  0.00    +0.308 C 
ATOM      9  H   UNL     1      33.854 -25.460 -14.375  0.00  0.00    +0.156 HD
ENDROOT
BRANCH   3  11
ATOM     10 CL   UNL     1      27.793 -23.697 -15.529  0.00  0.00    -0.082 Cl
ATOM     11  C   UNL     1      32.004 -24.595 -14.200  0.00  0.00    +0.052 C 
ATOM     12  C   UNL     1      31.745 -23.458 -14.960  0.00  0.00    +0.016 C 
ATOM     13  C   UNL     1      30.968 -25.456 -13.847  0.00  0.00    +0.016 C 
ATOM     14  C   UNL     1      30.441 -23.179 -15.372  0.00  0.00    +0.013 C 
ATOM     15  C   UNL     1      29.665 -25.178 -14.259  0.00  0.00    +0.013 C 
ATOM     16  C   UNL     1      29.402 -24.040 -15.021  0.00  0.00    +0.058 C 
ENDBRANCH   3  11
BRANCH   4  19
ATOM     17  O   UNL     1      37.401 -25.609 -15.224  0.00  0.00    -0.273 OA
ATOM     18  N   UNL     1      35.552 -24.179 -14.953  0.00  0.00    -0.281 N 
ATOM     19  C   UNL     1      36.409 -25.218 -14.615  0.00  0.00    +0.244 C 
ATOM     20  H   UNL     1      34.806 -24.011 -14.333  0.00  0.00    +0.155 HD
BRANCH  18  22
ATOM     21  F   UNL     1      37.718 -22.485 -15.342  0.00  0.00    -0.203 F 
ATOM     22  C   UNL     1      35.627 -23.332 -16.084  0.00  0.00    +0.078 C 
ATOM     23  C   UNL     1      36.724 -22.503 -16.242  0.00  0.00    +0.155 C 
ATOM     24  C   UNL     1      34.598 -23.353 -17.011  0.00  0.00    +0.018 C 
ATOM     25  C   UNL     1      35.766 -21.677 -18.300  0.00  0.00    +0.061 C 
ATOM     26  C   UNL     1      36.794 -21.669 -17.357  0.00  0.00    +0.046 C 
ATOM     27  C   UNL     1      34.668 -22.518 -18.126  0.00  0.00    +0.017 C 
BRANCH  25  29
ATOM     28  O   UNL     1      33.584 -21.128 -20.118  0.00  0.00    -0.269 OA
ATOM     29  N   UNL     1      35.839 -20.809 -19.460  0.00  0.00    -0.233 N 
ATOM     30  C   UNL     1      34.683 -20.589 -20.253  0.00  0.00    +0.257 C 
ATOM     31  C   UNL     1      37.046 -20.204 -19.818  0.00  0.00    +0.072 C 
ATOM     32  C   UNL     1      34.833 -19.644 -21.401  0.00  0.00    +0.059 C 
ATOM     33  C   UNL     1      37.162 -19.389 -20.870  0.00  0.00    +0.017 C 
ATOM     34  C   UNL     1      36.018 -19.096 -21.680  0.00  0.00    +0.006 C 
ENDBRANCH  25  29
ENDBRANCH  18  22
ENDBRANCH   4  19
BRANCH   5  35
ATOM     35  O   UNL     1      38.301 -24.159 -12.340  0.00  0.00    -0.352 OA
ATOM     36  C   UNL     1      38.006 -22.819 -11.971  0.00  0.00    +0.174 C 
ENDBRANCH   5  35
TORSDOF 5
ENDMDL
MODEL 3
REMARK VINA RESULT:     -11.0     10.242     16.000
REMARK  Name = 11634458
REMARK  5 active torsions:
REMARK  status: ('A' for Active; 'I' for Inactive)
REMARK    1  A    between atoms: N_3  and  C_11
REMARK    2  A    between atoms: C_4  and  C_19
REMARK    3  A    between atoms: C_5  and  O_35
REMARK    4  A    between atoms: N_18  and  C_22
REMARK    5  A    between atoms: C_25  and  N_29
REMARK                            x       y       z     vdW  Elec       q    Type
REMARK                         _______ _______ _______ _____ _____    ______ ____
ROOT
ATOM      1  O   UNL     1      34.104  -5.225 -23.693  0.00  0.00    -0.252 OA
ATOM      2  N   UNL     1      32.832  -6.997 -22.976  0.00  0.00    -0.255 N 
ATOM      3  N   UNL     1      33.719  -7.005 -25.148  0.00  0.00    -0.268 N 
ATOM      4  C   UNL     1      32.038  -8.212 -23.152  0.00  0.00    +0.156 C 
ATOM      5  C   UNL     1      31.840  -7.464 -20.872  0.00  0.00    +0.137 C 
ATOM      6  C   UNL     1      31.091  -8.242 -21.952  0.00  0.00    +0.061 C 
ATOM      7  C   UNL     1      32.616  -6.415 -21.653  0.00  0.00    +0.125 C 
ATOM      8  C   UNL     1      33.597  -6.321 -23.938  0.00  0.00    +0.308 C 
ATOM      9  H   UNL     1      33.260  -7.874 -25.201  0.00  0.00    +0.156 HD
ENDROOT
BRANCH   3  11
ATOM     10 CL   UNL     1      36.668  -5.317 -29.999  0.00  0.00    -0.082 Cl
ATOM     11  C   UNL     1      34.424  -6.601 -26.308  0.00  0.00    +0.052 C 
ATOM     12  C   UNL     1      33.869  -6.816 -27.566  0.00  0.00    +0.016 C 
ATOM     13  C   UNL     1      35.671  -5.992 -26.184  0.00  0.00    +0.016 C 
ATOM     14  C   UNL     1      34.563  -6.419 -28.710  0.00  0.00    +0.013 C 
ATOM     15  C   UNL     1      36.365  -5.595 -27.326  0.00  0.00    +0.013 C 
ATOM     16  C   UNL     1      35.811  -5.808 -28.589  0.00  0.00    +0.058 C 
ENDBRANCH   3  11
BRANCH   4  19
ATOM     17  O   UNL     1      34.179  -9.238 -23.204  0.00  0.00    -0.273 OA
ATOM     18  N   UNL     1      32.254 -10.583 -23.052  0.00  0.00    -0.281 N 
ATOM     19  C   UNL     1      32.963  -9.393 -23.139  0.00  0.00    +0.244 C 
ATOM     20  H   UNL     1      31.274 -10.505 -23.012  0.00  0.00    +0.155 HD
BRANCH  18  22
ATOM     21  F   UNL     1      31.660 -12.312 -20.962  0.00  0.00    -0.203 F 
ATOM     22  C   UNL     1      32.778 -11.898 -23.016  0.00  0.00    +0.078 C 
ATOM     23  C   UNL     1      32.457 -12.728 -21.956  0.00  0.00    +0.155 C 
ATOM     24  C   UNL     1      33.603 -12.323 -24.044  0.00  0.00    +0.018 C 
ATOM     25  C   UNL     1      33.808 -14.467 -22.950  0.00  0.00    +0.061 C 
ATOM     26  C   UNL     1      32.976 -14.023 -21.923  0.00  0.00    +0.046 C 
ATOM     27  C   UNL     1      34.122 -13.618 -24.010  0.00  0.00    +0.017 C 
BRANCH  25  29
ATOM     28  O   UNL     1      33.607 -16.406 -25.087  0.00  0.00    -0.269 OA
ATOM     29  N   UNL     1      34.348 -15.814 -22.915  0.00  0.00    -0.233 N 
ATOM     30  C   UNL     1      34.217 -16.657 -24.048  0.00  0.00    +0.257 C 
ATOM     31  C   UNL     1      34.977 -16.295 -21.765  0.00  0.00    +0.072 C 
ATOM     32  C   UNL     1      34.843 -18.011 -23.945  0.00  0.00    +0.059 C 
ATOM     33  C   UNL     1      35.499 -17.523 -21.686  0.00  0.00    +0.017 C 
ATOM     34  C   UNL     1      35.435 -18.402 -22.814  0.00  0.00    +0.006 C 
ENDBRANCH  25  29
ENDBRANCH  18  22
ENDBRANCH   4  19
BRANCH   5  35
ATOM     35  O   UNL     1      32.735  -8.334 -20.189  0.00  0.00    -0.352 OA
ATOM     36  C   UNL     1      32.035  -9.308 -19.426  0.00  0.00    +0.174 C 
ENDBRANCH   5  35
TORSDOF 5
ENDMDL
MODEL 4
REMARK VINA RESULT:      -9.9     10.067     15.570
REMARK  Name = 11634458
REMARK  5 active torsions:
REMARK  status: ('A' for Active; 'I' for Inactive)
REMARK    1  A    between atoms: N_3  and  C_11
REMARK    2  A    between atoms: C_4  and  C_19
REMARK    3  A    between atoms: C_5  and  O_35
REMARK    4  A    between atoms: N_18  and  C_22
REMARK    5  A    between atoms: C_25  and  N_29
REMARK                            x       y       z     vdW  Elec       q    Type
REMARK                         _______ _______ _______ _____ _____    ______ ____
ROOT
ATOM      1  O   UNL     1      33.653  -5.497 -22.917  0.00  0.00    -0.252 OA
ATOM      2  N   UNL     1      32.495  -7.386 -22.310  0.00  0.00    -0.255 N 
ATOM      3  N   UNL     1      33.227  -7.131 -24.525  0.00  0.00    -0.268 N 
ATOM      4  C   UNL     1      31.734  -8.608 -22.563  0.00  0.00    +0.156 C 
ATOM      5  C   UNL     1      31.671  -8.111 -20.208  0.00  0.00    +0.137 C 
ATOM      6  C   UNL     1      30.875  -8.803 -21.312  0.00  0.00    +0.061 C 
ATOM      7  C   UNL     1      32.353  -6.955 -20.921  0.00  0.00    +0.125 C 
ATOM      8  C   UNL     1      33.167  -6.582 -23.243  0.00  0.00    +0.308 C 
ATOM      9  H   UNL     1      32.796  -8.008 -24.640  0.00  0.00    +0.156 HD
ENDROOT
BRANCH   3  11
ATOM     10 CL   UNL     1      35.768  -4.824 -29.353  0.00  0.00    -0.082 Cl
ATOM     11  C   UNL     1      33.835  -6.579 -25.679  0.00  0.00    +0.052 C 
ATOM     12  C   UNL     1      33.249  -5.489 -26.317  0.00  0.00    +0.016 C 
ATOM     13  C   UNL     1      35.016  -7.130 -26.171  0.00  0.00    +0.016 C 
ATOM     14  C   UNL     1      33.847  -4.945 -27.454  0.00  0.00    +0.013 C 
ATOM     15  C   UNL     1      35.614  -6.587 -27.308  0.00  0.00    +0.013 C 
ATOM     16  C   UNL     1      35.029  -5.495 -27.950  0.00  0.00    +0.058 C 
ENDBRANCH   3  11
BRANCH   4  19
ATOM     17  O   UNL     1      33.830  -9.546 -23.166  0.00  0.00    -0.273 OA
ATOM     18  N   UNL     1      32.123 -10.951 -22.361  0.00  0.00    -0.281 N 
ATOM     19  C   UNL     1      32.698  -9.744 -22.737  0.00  0.00    +0.244 C 
ATOM     20  H   UNL     1      31.193 -10.909 -22.041  0.00  0.00    +0.155 HD
BRANCH  18  22
ATOM     21  F   UNL     1      33.154 -12.015 -24.710  0.00  0.00    -0.203 F 
ATOM     22  C   UNL     1      32.719 -12.234 -22.386  0.00  0.00    +0.078 C 
ATOM     23  C   UNL     1      33.222 -12.728 -23.577  0.00  0.00    +0.155 C 
ATOM     24  C   UNL     1      32.785 -12.969 -21.213  0.00  0.00    +0.018 C 
ATOM     25  C   UNL     1      33.882 -14.748 -22.426  0.00  0.00    +0.061 C 
ATOM     26  C   UNL     1      33.807 -13.994 -23.598  0.00  0.00    +0.046 C 
ATOM     27  C   UNL     1      33.371 -14.235 -21.234  0.00  0.00    +0.017 C 
BRANCH  25  29
ATOM     28  O   UNL     1      34.986 -16.117 -20.130  0.00  0.00    -0.269 OA
ATOM     29  N   UNL     1      34.491 -16.064 -22.448  0.00  0.00    -0.233 N 
ATOM     30  C   UNL     1      34.961 -16.646 -21.242  0.00  0.00    +0.257 C 
ATOM     31  C   UNL     1      34.639 -16.756 -23.652  0.00  0.00    +0.072 C 
ATOM     32  C   UNL     1      35.531 -18.024 -21.346  0.00  0.00    +0.059 C 
ATOM     33  C   UNL     1      35.183 -17.975 -23.723  0.00  0.00    +0.017 C 
ATOM     34  C   UNL     1      35.635 -18.629 -22.532  0.00  0.00    +0.006 C 
ENDBRANCH  25  29
ENDBRANCH  18  22
ENDBRANCH   4  19
BRANCH   5  35
ATOM     35  O   UNL     1      32.641  -9.010 -19.681  0.00  0.00    -0.352 OA
ATOM     36  C   UNL     1      32.037 -10.024 -18.891  0.00  0.00    +0.174 C 
ENDBRANCH   5  35
TORSDOF 5
ENDMDL
