MODEL 1
REMARK VINA RESULT:     -12.6      0.000      0.000
REMARK  Name = 25243853
REMARK  6 active torsions:
REMARK  status: ('A' for Active; 'I' for Inactive)
REMARK    1  A    between atoms: N_1  and  C_6
REMARK    2  A    between atoms: N_1  and  C_21
REMARK    3  A    between atoms: C_3  and  C_16
REMARK    4  A    between atoms: C_11  and  C_18
REMARK    5  A    between atoms: C_18  and  O_19
REMARK    6  A    between atoms: C_21  and  C_28
REMARK                            x       y       z     vdW  Elec       q    Type
REMARK                         _______ _______ _______ _____ _____    ______ ____
ROOT
ATOM      1  N   UNL     1      35.302 -19.781 -21.551  0.00  0.00    -0.327 N 
ATOM      2  H   UNL     1      35.389 -20.172 -22.450  0.00  0.00    +0.147 HD
ENDROOT
BRANCH   1   6
ATOM      3  C   UNL     1      34.190 -22.290 -18.370  0.00  0.00    +0.054 C 
ATOM      4  C   UNL     1      33.211 -21.625 -19.108  0.00  0.00    +0.006 C 
ATOM      5  C   UNL     1      35.538 -22.122 -18.689  0.00  0.00    +0.006 C 
ATOM      6  C   UNL     1      34.928 -20.624 -20.482  0.00  0.00    +0.045 C 
ATOM      7  C   UNL     1      33.581 -20.792 -20.165  0.00  0.00    +0.014 C 
ATOM      8  C   UNL     1      35.907 -21.290 -19.744  0.00  0.00    +0.014 C 
BRANCH   3  16
ATOM      9  O   UNL     1      32.621 -23.508 -17.223  0.00  0.00    -0.270 OA
ATOM     10  N   UNL     1      34.788 -23.543 -16.342  0.00  0.00    -0.276 N 
ATOM     11  C   UNL     1      36.209 -23.205 -13.832  0.00  0.00    +0.102 C 
ATOM     12  C   UNL     1      34.762 -23.707 -13.887  0.00  0.00    +0.033 C 
ATOM     13  C   UNL     1      36.595 -22.424 -15.091  0.00  0.00    +0.033 C 
ATOM     14  C   UNL     1      34.434 -24.396 -15.210  0.00  0.00    +0.094 C 
ATOM     15  C   UNL     1      36.197 -23.135 -16.386  0.00  0.00    +0.094 C 
ATOM     16  C   UNL     1      33.803 -23.167 -17.258  0.00  0.00    +0.249 C 
BRANCH  11  18
ATOM     17  O   UNL     1      38.296 -24.395 -14.021  0.00  0.00    -0.250 OA
ATOM     18  C   UNL     1      37.149 -24.351 -13.595  0.00  0.00    +0.317 C 
BRANCH  18  19
ATOM     19  O   UNL     1      36.525 -25.305 -12.847  0.00  0.00    -0.444 OA
ATOM     20  C   UNL     1      37.201 -26.565 -12.771  0.00  0.00    +0.256 C 
ENDBRANCH  18  19
ENDBRANCH  11  18
ENDBRANCH   3  16
ENDBRANCH   1   6
BRANCH   1  21
ATOM     21  C   UNL     1      35.561 -18.385 -21.383  0.00  0.00    +0.145 C 
BRANCH  21  28
ATOM     22  N   UNL     1      34.855 -16.281 -22.394  0.00  0.00    -0.392 NA
ATOM     23  N   UNL     1      34.202 -17.539 -24.772  0.00  0.00    -0.200 NA
ATOM     24  N   UNL     1      33.546 -15.513 -25.680  0.00  0.00    -0.271 NA
ATOM     25  N   UNL     1      33.678 -13.487 -24.403  0.00  0.00    -0.310 NA
ATOM     26  N   UNL     1      34.486 -13.557 -22.184  0.00  0.00    -0.329 N 
ATOM     27  N   UNL     1      32.880 -13.460 -26.604  0.00  0.00    -0.283 N 
ATOM     28  C   UNL     1      35.015 -17.604 -22.547  0.00  0.00    +0.133 C 
ATOM     29  C   UNL     1      34.693 -18.226 -23.723  0.00  0.00    +0.193 C 
ATOM     30  C   UNL     1      34.365 -15.595 -23.445  0.00  0.00    +0.248 C 
ATOM     31  C   UNL     1      34.031 -16.217 -24.651  0.00  0.00    +0.131 C 
ATOM     32  C   UNL     1      34.163 -14.230 -23.391  0.00  0.00    +0.231 C 
ATOM     33  C   UNL     1      33.393 -14.186 -25.508  0.00  0.00    +0.207 C 
ATOM     34  H   UNL     1      34.353 -12.585 -22.111  0.00  0.00    +0.145 HD
ATOM     35  H   UNL     1      34.841 -14.063 -21.418  0.00  0.00    +0.145 HD
ATOM     36  H   UNL     1      32.654 -13.927 -27.440  0.00  0.00    +0.156 HD
ATOM     37  H   UNL     1      32.747 -12.487 -26.532  0.00  0.00    +0.156 HD
ENDBRANCH  21  28
ENDBRANCH   1  21
TORSDOF 6
ENDMDL
MODEL 2
REMARK VINA RESULT:     -12.2      4.423     11.268
REMARK  Name = 25243853
REMARK  6 active torsions:
REMARK  status: ('A' for Active; 'I' for Inactive)
REMARK    1  A    between atoms: N_1  and  C_6
REMARK    2  A    between atoms: N_1  and  C_21
REMARK    3  A    between atoms: C_3  and  C_16
REMARK    4  A    between atoms: C_11  and  C_18
REMARK    5  A    between atoms: C_18  and  O_19
REMARK    6  A    between atoms: C_21  and  C_28
REMARK                            x       y       z     vdW  Elec       q    Type
REMARK                         _______ _______ _______ _____ _____    ______ ____
ROOT
ATOM      1  N   UNL     1      36.070 -20.452 -19.901  0.00  0.00    -0.327 N 
ATOM      2  H   UNL     1      36.530 -20.077 -19.115  0.00  0.00    +0.147 HD
ENDROOT
BRANCH   1   6
ATOM      3  C   UNL     1      34.869 -17.835 -22.959  0.00  0.00    +0.054 C 
ATOM      4  C   UNL     1      35.948 -17.502 -22.141  0.00  0.00    +0.006 C 
ATOM      5  C   UNL     1      34.189 -19.036 -22.762  0.00  0.00    +0.006 C 
ATOM      6  C   UNL     1      35.667 -19.572 -20.928  0.00  0.00    +0.045 C 
ATOM      7  C   UNL     1      36.347 -18.371 -21.125  0.00  0.00    +0.014 C 
ATOM      8  C   UNL     1      34.587 -19.905 -21.747  0.00  0.00    +0.014 C 
BRANCH   3  16
ATOM      9  O   UNL     1      34.616 -17.318 -25.179  0.00  0.00    -0.270 OA
ATOM     10  N   UNL     1      33.895 -15.690 -23.662  0.00  0.00    -0.276 N 
ATOM     11  C   UNL     1      34.118 -12.843 -23.132  0.00  0.00    +0.102 C 
ATOM     12  C   UNL     1      34.229 -13.419 -24.548  0.00  0.00    +0.033 C 
ATOM     13  C   UNL     1      34.424 -13.892 -22.059  0.00  0.00    +0.033 C 
ATOM     14  C   UNL     1      33.487 -14.745 -24.698  0.00  0.00    +0.094 C 
ATOM     15  C   UNL     1      33.696 -15.217 -22.287  0.00  0.00    +0.094 C 
ATOM     16  C   UNL     1      34.448 -16.920 -24.028  0.00  0.00    +0.249 C 
BRANCH  11  18
ATOM     17  O   UNL     1      31.876 -12.749 -22.252  0.00  0.00    -0.250 OA
ATOM     18  C   UNL     1      32.761 -12.234 -22.923  0.00  0.00    +0.317 C 
BRANCH  18  19
ATOM     19  O   UNL     1      32.688 -11.047 -23.588  0.00  0.00    -0.444 OA
ATOM     20  C   UNL     1      32.164  -9.950 -22.832  0.00  0.00    +0.256 C 
ENDBRANCH  18  19
ENDBRANCH  11  18
ENDBRANCH   3  16
ENDBRANCH   1   6
BRANCH   1  21
ATOM     21  C   UNL     1      35.840 -21.862 -19.951  0.00  0.00    +0.145 C 
BRANCH  21  28
ATOM     22  N   UNL     1      35.238 -22.747 -17.760  0.00  0.00    -0.392 NA
ATOM     23  N   UNL     1      32.535 -22.502 -18.305  0.00  0.00    -0.200 NA
ATOM     24  N   UNL     1      32.021 -23.349 -16.212  0.00  0.00    -0.271 NA
ATOM     25  N   UNL     1      33.753 -23.987 -14.681  0.00  0.00    -0.310 NA
ATOM     26  N   UNL     1      36.017 -23.752 -15.315  0.00  0.00    -0.329 N 
ATOM     27  N   UNL     1      31.498 -24.207 -14.092  0.00  0.00    -0.283 N 
ATOM     28  C   UNL     1      34.807 -22.265 -18.936  0.00  0.00    +0.133 C 
ATOM     29  C   UNL     1      33.471 -22.143 -19.205  0.00  0.00    +0.193 C 
ATOM     30  C   UNL     1      34.300 -23.105 -16.862  0.00  0.00    +0.248 C 
ATOM     31  C   UNL     1      32.933 -22.986 -17.123  0.00  0.00    +0.131 C 
ATOM     32  C   UNL     1      34.639 -23.612 -15.622  0.00  0.00    +0.231 C 
ATOM     33  C   UNL     1      32.474 -23.830 -15.039  0.00  0.00    +0.207 C 
ATOM     34  H   UNL     1      36.293 -24.111 -14.441  0.00  0.00    +0.145 HD
ATOM     35  H   UNL     1      36.698 -23.492 -15.976  0.00  0.00    +0.145 HD
ATOM     36  H   UNL     1      30.542 -24.112 -14.305  0.00  0.00    +0.156 HD
ATOM     37  H   UNL     1      31.773 -24.566 -13.217  0.00  0.00    +0.156 HD
ENDBRANCH  21  28
ENDBRANCH   1  21
TORSDOF 6
ENDMDL
MODEL 3
REMARK VINA RESULT:     -12.1      1.170      2.170
REMARK  Name = 25243853
REMARK  6 active torsions:
REMARK  status: ('A' for Active; 'I' for Inactive)
REMARK    1  A    between atoms: N_1  and  C_6
REMARK    2  A    between atoms: N_1  and  C_21
REMARK    3  A    between atoms: C_3  and  C_16
REMARK    4  A    between atoms: C_11  and  C_18
REMARK    5  A    between atoms: C_18  and  O_19
REMARK    6  A    between atoms: C_21  and  C_28
REMARK                            x       y       z     vdW  Elec       q    Type
REMARK                         _______ _______ _______ _____ _____    ______ ____
ROOT
ATOM      1  N   UNL     1      34.804 -19.297 -22.119  0.00  0.00    -0.327 N 
ATOM      2  H   UNL     1      34.304 -19.415 -22.958  0.00  0.00    +0.147 HD
ENDROOT
BRANCH   1   6
ATOM      3  C   UNL     1      33.945 -21.857 -18.901  0.00  0.00    +0.054 C 
ATOM      4  C   UNL     1      35.264 -21.681 -19.319  0.00  0.00    +0.006 C 
ATOM      5  C   UNL     1      32.912 -21.182 -19.551  0.00  0.00    +0.006 C 
ATOM      6  C   UNL     1      34.516 -20.157 -21.037  0.00  0.00    +0.045 C 
ATOM      7  C   UNL     1      35.549 -20.830 -20.387  0.00  0.00    +0.014 C 
ATOM      8  C   UNL     1      33.196 -20.332 -20.619  0.00  0.00    +0.014 C 
BRANCH   3  16
ATOM      9  O   UNL     1      32.471 -23.101 -17.660  0.00  0.00    -0.270 OA
ATOM     10  N   UNL     1      34.696 -23.135 -16.940  0.00  0.00    -0.276 N 
ATOM     11  C   UNL     1      36.295 -22.822 -14.535  0.00  0.00    +0.102 C 
ATOM     12  C   UNL     1      34.851 -23.333 -14.492  0.00  0.00    +0.033 C 
ATOM     13  C   UNL     1      36.584 -22.020 -15.808  0.00  0.00    +0.033 C 
ATOM     14  C   UNL     1      34.431 -24.005 -15.798  0.00  0.00    +0.094 C 
ATOM     15  C   UNL     1      36.096 -22.716 -17.080  0.00  0.00    +0.094 C 
ATOM     16  C   UNL     1      33.645 -22.752 -17.776  0.00  0.00    +0.249 C 
BRANCH  11  18
ATOM     17  O   UNL     1      38.360 -24.006 -14.912  0.00  0.00    -0.250 OA
ATOM     18  C   UNL     1      37.257 -23.965 -14.384  0.00  0.00    +0.317 C 
BRANCH  18  19
ATOM     19  O   UNL     1      36.706 -24.920 -13.583  0.00  0.00    -0.444 OA
ATOM     20  C   UNL     1      36.937 -26.272 -13.992  0.00  0.00    +0.256 C 
ENDBRANCH  18  19
ENDBRANCH  11  18
ENDBRANCH   3  16
ENDBRANCH   1   6
BRANCH   1  21
ATOM     21  C   UNL     1      35.790 -18.265 -22.048  0.00  0.00    +0.145 C 
BRANCH  21  28
ATOM     22  N   UNL     1      34.693 -16.345 -23.076  0.00  0.00    -0.392 NA
ATOM     23  N   UNL     1      34.413 -15.081 -20.630  0.00  0.00    -0.200 NA
ATOM     24  N   UNL     1      33.377 -13.285 -21.660  0.00  0.00    -0.271 NA
ATOM     25  N   UNL     1      33.027 -13.257 -24.032  0.00  0.00    -0.310 NA
ATOM     26  N   UNL     1      33.752 -15.086 -25.341  0.00  0.00    -0.329 N 
ATOM     27  N   UNL     1      32.326 -11.463 -22.701  0.00  0.00    -0.283 N 
ATOM     28  C   UNL     1      35.135 -16.916 -21.945  0.00  0.00    +0.133 C 
ATOM     29  C   UNL     1      34.996 -16.290 -20.736  0.00  0.00    +0.193 C 
ATOM     30  C   UNL     1      34.109 -15.136 -22.968  0.00  0.00    +0.248 C 
ATOM     31  C   UNL     1      33.961 -14.487 -21.740  0.00  0.00    +0.131 C 
ATOM     32  C   UNL     1      33.620 -14.465 -24.072  0.00  0.00    +0.231 C 
ATOM     33  C   UNL     1      32.939 -12.730 -22.806  0.00  0.00    +0.207 C 
ATOM     34  H   UNL     1      33.414 -14.635 -26.148  0.00  0.00    +0.145 HD
ATOM     35  H   UNL     1      34.181 -15.969 -25.415  0.00  0.00    +0.145 HD
ATOM     36  H   UNL     1      32.237 -11.030 -21.821  0.00  0.00    +0.156 HD
ATOM     37  H   UNL     1      31.988 -11.011 -23.508  0.00  0.00    +0.156 HD
ENDBRANCH  21  28
ENDBRANCH   1  21
TORSDOF 6
ENDMDL
MODEL 4
REMARK VINA RESULT:     -12.1      1.001      1.446
REMARK  Name = 25243853
REMARK  6 active torsions:
REMARK  status: ('A' for Active; 'I' for Inactive)
REMARK    1  A    between atoms: N_1  and  C_6
REMARK    2  A    between atoms: N_1  and  C_21
REMARK    3  A    between atoms: C_3  and  C_16
REMARK    4  A    between atoms: C_11  and  C_18
REMARK    5  A    between atoms: C_18  and  O_19
REMARK    6  A    between atoms: C_21  and  C_28
REMARK                            x       y       z     vdW  Elec       q    Type
REMARK                         _______ _______ _______ _____ _____    ______ ____
ROOT
ATOM      1  N   UNL     1      34.890 -20.500 -21.082  0.00  0.00    -0.327 N 
ATOM      2  H   UNL     1      34.555 -20.863 -21.933  0.00  0.00    +0.147 HD
ENDROOT
BRANCH   1   6
ATOM      3  C   UNL     1      34.201 -22.684 -17.560  0.00  0.00    +0.054 C 
ATOM      4  C   UNL     1      35.501 -22.323 -17.914  0.00  0.00    +0.006 C 
ATOM      5  C   UNL     1      33.130 -22.318 -18.376  0.00  0.00    +0.006 C 
ATOM      6  C   UNL     1      34.658 -21.233 -19.898  0.00  0.00    +0.045 C 
ATOM      7  C   UNL     1      35.730 -21.597 -19.083  0.00  0.00    +0.014 C 
ATOM      8  C   UNL     1      33.358 -21.594 -19.545  0.00  0.00    +0.014 C 
BRANCH   3  16
ATOM      9  O   UNL     1      32.782 -23.677 -16.057  0.00  0.00    -0.270 OA
ATOM     10  N   UNL     1      35.066 -23.851 -15.578  0.00  0.00    -0.276 N 
ATOM     11  C   UNL     1      36.948 -23.479 -13.398  0.00  0.00    +0.102 C 
ATOM     12  C   UNL     1      35.483 -23.851 -13.153  0.00  0.00    +0.033 C 
ATOM     13  C   UNL     1      37.154 -22.820 -14.765  0.00  0.00    +0.033 C 
ATOM     14  C   UNL     1      34.863 -24.592 -14.336  0.00  0.00    +0.094 C 
ATOM     15  C   UNL     1      36.469 -23.575 -15.906  0.00  0.00    +0.094 C 
ATOM     16  C   UNL     1      33.959 -23.447 -16.330  0.00  0.00    +0.249 C 
BRANCH  11  18
ATOM     17  O   UNL     1      37.546 -25.650 -12.540  0.00  0.00    -0.250 OA
ATOM     18  C   UNL     1      37.826 -24.688 -13.242  0.00  0.00    +0.317 C 
BRANCH  18  19
ATOM     19  O   UNL     1      38.953 -24.533 -13.993  0.00  0.00    -0.444 OA
ATOM     20  C   UNL     1      39.798 -25.684 -14.076  0.00  0.00    +0.256 C 
ENDBRANCH  18  19
ENDBRANCH  11  18
ENDBRANCH   3  16
ENDBRANCH   1   6
BRANCH   1  21
ATOM     21  C   UNL     1      35.590 -19.253 -21.098  0.00  0.00    +0.145 C 
BRANCH  21  28
ATOM     22  N   UNL     1      35.004 -17.069 -22.012  0.00  0.00    -0.392 NA
ATOM     23  N   UNL     1      34.333 -18.174 -24.460  0.00  0.00    -0.200 NA
ATOM     24  N   UNL     1      33.792 -16.076 -25.275  0.00  0.00    -0.271 NA
ATOM     25  N   UNL     1      33.999 -14.125 -23.895  0.00  0.00    -0.310 NA
ATOM     26  N   UNL     1      34.764 -14.345 -21.671  0.00  0.00    -0.329 N 
ATOM     27  N   UNL     1      33.242 -13.950 -26.104  0.00  0.00    -0.283 N 
ATOM     28  C   UNL     1      35.103 -18.390 -22.229  0.00  0.00    +0.133 C 
ATOM     29  C   UNL     1      34.772 -18.935 -23.439  0.00  0.00    +0.193 C 
ATOM     30  C   UNL     1      34.566 -16.309 -23.035  0.00  0.00    +0.248 C 
ATOM     31  C   UNL     1      34.224 -16.853 -24.275  0.00  0.00    +0.131 C 
ATOM     32  C   UNL     1      34.430 -14.940 -22.915  0.00  0.00    +0.231 C 
ATOM     33  C   UNL     1      33.700 -14.753 -25.038  0.00  0.00    +0.207 C 
ATOM     34  H   UNL     1      34.677 -13.371 -21.551  0.00  0.00    +0.145 HD
ATOM     35  H   UNL     1      35.081 -14.905 -20.926  0.00  0.00    +0.145 HD
ATOM     36  H   UNL     1      33.008 -14.363 -26.966  0.00  0.00    +0.156 HD
ATOM     37  H   UNL     1      33.155 -12.976 -25.985  0.00  0.00    +0.156 HD
ENDBRANCH  21  28
ENDBRANCH   1  21
TORSDOF 6
ENDMDL
MODEL 5
REMARK VINA RESULT:     -11.7      4.460     11.594
REMARK  Name = 25243853
REMARK  6 active torsions:
REMARK  status: ('A' for Active; 'I' for Inactive)
REMARK    1  A    between atoms: N_1  and  C_6
REMARK    2  A    between atoms: N_1  and  C_21
REMARK    3  A    between atoms: C_3  and  C_16
REMARK    4  A    between atoms: C_11  and  C_18
REMARK    5  A    between atoms: C_18  and  O_19
REMARK    6  A    between atoms: C_21  and  C_28
REMARK                            x       y       z     vdW  Elec       q    Type
REMARK                         _______ _______ _______ _____ _____    ______ ____
ROOT
ATOM      1  N   UNL     1      35.789 -20.283 -20.398  0.00  0.00    -0.327 N 
ATOM      2  H   UNL     1      36.696 -20.271 -20.017  0.00  0.00    +0.147 HD
ENDROOT
BRANCH   1   6
ATOM      3  C   UNL     1      34.757 -17.331 -23.203  0.00  0.00    +0.054 C 
ATOM      4  C   UNL     1      34.467 -18.671 -23.462  0.00  0.00    +0.006 C 
ATOM      5  C   UNL     1      35.388 -16.972 -22.012  0.00  0.00    +0.006 C 
ATOM      6  C   UNL     1      35.442 -19.291 -21.340  0.00  0.00    +0.045 C 
ATOM      7  C   UNL     1      34.809 -19.651 -22.530  0.00  0.00    +0.014 C 
ATOM      8  C   UNL     1      35.731 -17.952 -21.081  0.00  0.00    +0.014 C 
BRANCH   3  16
ATOM      9  O   UNL     1      34.661 -16.551 -25.357  0.00  0.00    -0.270 OA
ATOM     10  N   UNL     1      33.787 -15.132 -23.716  0.00  0.00    -0.276 N 
ATOM     11  C   UNL     1      33.899 -12.368 -22.830  0.00  0.00    +0.102 C 
ATOM     12  C   UNL     1      34.131 -12.764 -24.292  0.00  0.00    +0.033 C 
ATOM     13  C   UNL     1      34.149 -13.536 -21.870  0.00  0.00    +0.033 C 
ATOM     14  C   UNL     1      33.436 -14.073 -24.659  0.00  0.00    +0.094 C 
ATOM     15  C   UNL     1      33.472 -14.834 -22.314  0.00  0.00    +0.094 C 
ATOM     16  C   UNL     1      34.396 -16.299 -24.183  0.00  0.00    +0.249 C 
BRANCH  11  18
ATOM     17  O   UNL     1      31.642 -12.342 -21.984  0.00  0.00    -0.250 OA
ATOM     18  C   UNL     1      32.515 -11.810 -22.655  0.00  0.00    +0.317 C 
BRANCH  18  19
ATOM     19  O   UNL     1      32.404 -10.644 -23.354  0.00  0.00    -0.444 OA
ATOM     20  C   UNL     1      31.593  -9.637 -22.740  0.00  0.00    +0.256 C 
ENDBRANCH  18  19
ENDBRANCH  11  18
ENDBRANCH   3  16
ENDBRANCH   1   6
BRANCH   1  21
ATOM     21  C   UNL     1      34.882 -21.304 -19.976  0.00  0.00    +0.145 C 
BRANCH  21  28
ATOM     22  N   UNL     1      34.363 -22.480 -17.903  0.00  0.00    -0.392 NA
ATOM     23  N   UNL     1      36.966 -22.217 -16.997  0.00  0.00    -0.200 NA
ATOM     24  N   UNL     1      36.416 -23.340 -15.049  0.00  0.00    -0.271 NA
ATOM     25  N   UNL     1      34.187 -24.139 -14.672  0.00  0.00    -0.310 NA
ATOM     26  N   UNL     1      32.524 -23.775 -16.310  0.00  0.00    -0.329 N 
ATOM     27  N   UNL     1      35.862 -24.477 -13.072  0.00  0.00    -0.283 N 
ATOM     28  C   UNL     1      35.296 -21.857 -18.640  0.00  0.00    +0.133 C 
ATOM     29  C   UNL     1      36.582 -21.728 -18.192  0.00  0.00    +0.193 C 
ATOM     30  C   UNL     1      34.749 -22.969 -16.708  0.00  0.00    +0.248 C 
ATOM     31  C   UNL     1      36.059 -22.844 -16.239  0.00  0.00    +0.131 C 
ATOM     32  C   UNL     1      33.866 -23.627 -15.874  0.00  0.00    +0.231 C 
ATOM     33  C   UNL     1      35.466 -23.961 -14.324  0.00  0.00    +0.207 C 
ATOM     34  H   UNL     1      31.869 -24.238 -15.740  0.00  0.00    +0.145 HD
ATOM     35  H   UNL     1      32.247 -23.414 -17.183  0.00  0.00    +0.145 HD
ATOM     36  H   UNL     1      36.793 -24.372 -12.768  0.00  0.00    +0.156 HD
ATOM     37  H   UNL     1      35.208 -24.941 -12.500  0.00  0.00    +0.156 HD
ENDBRANCH  21  28
ENDBRANCH   1  21
TORSDOF 6
ENDMDL
MODEL 6
REMARK VINA RESULT:     -11.4      5.387     11.043
REMARK  Name = 25243853
REMARK  6 active torsions:
REMARK  status: ('A' for Active; 'I' for Inactive)
REMARK    1  A    between atoms: N_1  and  C_6
REMARK    2  A    between atoms: N_1  and  C_21
REMARK    3  A    between atoms: C_3  and  C_16
REMARK    4  A    between atoms: C_11  and  C_18
REMARK    5  A    between atoms: C_18  and  O_19
REMARK    6  A    between atoms: C_21  and  C_28
REMARK                            x       y       z     vdW  Elec       q    Type
REMARK                         _______ _______ _______ _____ _____    ______ ____
ROOT
ATOM      1  N   UNL     1      35.330 -18.790 -22.766  0.00  0.00    -0.327 N 
ATOM      2  H   UNL     1      35.118 -19.466 -23.448  0.00  0.00    +0.147 HD
ENDROOT
BRANCH   1   6
ATOM      3  C   UNL     1      34.151 -14.816 -23.450  0.00  0.00    +0.054 C 
ATOM      4  C   UNL     1      34.675 -15.185 -22.210  0.00  0.00    +0.006 C 
ATOM      5  C   UNL     1      34.020 -15.767 -24.462  0.00  0.00    +0.006 C 
ATOM      6  C   UNL     1      34.935 -17.454 -22.996  0.00  0.00    +0.045 C 
ATOM      7  C   UNL     1      35.067 -16.504 -21.984  0.00  0.00    +0.014 C 
ATOM      8  C   UNL     1      34.411 -17.086 -24.235  0.00  0.00    +0.014 C 
BRANCH   3  16
ATOM      9  O   UNL     1      34.226 -12.880 -24.677  0.00  0.00    -0.270 OA
ATOM     10  N   UNL     1      32.837 -12.845 -22.795  0.00  0.00    -0.276 N 
ATOM     11  C   UNL     1      32.239 -11.221 -20.462  0.00  0.00    +0.102 C 
ATOM     12  C   UNL     1      32.768 -10.612 -21.764  0.00  0.00    +0.033 C 
ATOM     13  C   UNL     1      32.576 -12.711 -20.345  0.00  0.00    +0.033 C 
ATOM     14  C   UNL     1      32.423 -11.458 -22.988  0.00  0.00    +0.094 C 
ATOM     15  C   UNL     1      32.258 -13.501 -21.616  0.00  0.00    +0.094 C 
ATOM     16  C   UNL     1      33.739 -13.428 -23.689  0.00  0.00    +0.249 C 
BRANCH  11  18
ATOM     17  O   UNL     1      29.947 -11.294 -21.204  0.00  0.00    -0.250 OA
ATOM     18  C   UNL     1      30.760 -10.989 -20.342  0.00  0.00    +0.317 C 
BRANCH  18  19
ATOM     19  O   UNL     1      30.487 -10.398 -19.145  0.00  0.00    -0.444 OA
ATOM     20  C   UNL     1      31.608  -9.796 -18.489  0.00  0.00    +0.256 C 
ENDBRANCH  18  19
ENDBRANCH  11  18
ENDBRANCH   3  16
ENDBRANCH   1   6
BRANCH   1  21
ATOM     21  C   UNL     1      36.023 -19.202 -21.585  0.00  0.00    +0.145 C 
BRANCH  21  28
ATOM     22  N   UNL     1      35.714 -20.748 -19.725  0.00  0.00    -0.392 NA
ATOM     23  N   UNL     1      33.000 -20.953 -20.229  0.00  0.00    -0.200 NA
ATOM     24  N   UNL     1      32.765 -22.417 -18.451  0.00  0.00    -0.271 NA
ATOM     25  N   UNL     1      34.656 -23.054 -17.120  0.00  0.00    -0.310 NA
ATOM     26  N   UNL     1      36.790 -22.178 -17.628  0.00  0.00    -0.329 N 
ATOM     27  N   UNL     1      32.524 -23.902 -16.649  0.00  0.00    -0.283 N 
ATOM     28  C   UNL     1      35.142 -20.073 -20.734  0.00  0.00    +0.133 C 
ATOM     29  C   UNL     1      33.800 -20.174 -20.982  0.00  0.00    +0.193 C 
ATOM     30  C   UNL     1      34.911 -21.525 -18.972  0.00  0.00    +0.248 C 
ATOM     31  C   UNL     1      33.540 -21.638 -19.214  0.00  0.00    +0.131 C 
ATOM     32  C   UNL     1      35.401 -22.260 -17.909  0.00  0.00    +0.231 C 
ATOM     33  C   UNL     1      33.358 -23.085 -17.443  0.00  0.00    +0.207 C 
ATOM     34  H   UNL     1      37.171 -22.689 -16.879  0.00  0.00    +0.145 HD
ATOM     35  H   UNL     1      37.372 -21.610 -18.183  0.00  0.00    +0.145 HD
ATOM     36  H   UNL     1      31.561 -23.961 -16.846  0.00  0.00    +0.156 HD
ATOM     37  H   UNL     1      32.905 -24.414 -15.899  0.00  0.00    +0.156 HD
ENDBRANCH  21  28
ENDBRANCH   1  21
TORSDOF 6
ENDMDL
MODEL 7
REMARK VINA RESULT:     -11.4      2.114      3.343
REMARK  Name = 25243853
REMARK  6 active torsions:
REMARK  status: ('A' for Active; 'I' for Inactive)
REMARK    1  A    between atoms: N_1  and  C_6
REMARK    2  A    between atoms: N_1  and  C_21
REMARK    3  A    between atoms: C_3  and  C_16
REMARK    4  A    between atoms: C_11  and  C_18
REMARK    5  A    between atoms: C_18  and  O_19
REMARK    6  A    between atoms: C_21  and  C_28
REMARK                            x       y       z     vdW  Elec       q    Type
REMARK                         _______ _______ _______ _____ _____    ______ ____
ROOT
ATOM      1  N   UNL     1      35.365 -20.407 -21.059  0.00  0.00    -0.327 N 
ATOM      2  H   UNL     1      34.974 -20.808 -21.868  0.00  0.00    +0.147 HD
ENDROOT
BRANCH   1   6
ATOM      3  C   UNL     1      35.145 -22.548 -17.451  0.00  0.00    +0.054 C 
ATOM      4  C   UNL     1      34.015 -22.425 -18.259  0.00  0.00    +0.006 C 
ATOM      5  C   UNL     1      36.348 -21.960 -17.842  0.00  0.00    +0.006 C 
ATOM      6  C   UNL     1      35.291 -21.126 -19.847  0.00  0.00    +0.045 C 
ATOM      7  C   UNL     1      34.088 -21.714 -19.458  0.00  0.00    +0.014 C 
ATOM      8  C   UNL     1      36.422 -21.249 -19.039  0.00  0.00    +0.014 C 
BRANCH   3  16
ATOM      9  O   UNL     1      36.111 -23.829 -15.813  0.00  0.00    -0.270 OA
ATOM     10  N   UNL     1      33.841 -23.340 -15.525  0.00  0.00    -0.276 N 
ATOM     11  C   UNL     1      31.316 -24.633 -14.903  0.00  0.00    +0.102 C 
ATOM     12  C   UNL     1      32.656 -25.181 -14.402  0.00  0.00    +0.033 C 
ATOM     13  C   UNL     1      31.485 -23.738 -16.135  0.00  0.00    +0.033 C 
ATOM     14  C   UNL     1      33.722 -24.094 -14.280  0.00  0.00    +0.094 C 
ATOM     15  C   UNL     1      32.600 -22.703 -15.978  0.00  0.00    +0.094 C 
ATOM     16  C   UNL     1      35.069 -23.295 -16.190  0.00  0.00    +0.249 C 
BRANCH  11  18
ATOM     17  O   UNL     1      30.763 -24.145 -12.609  0.00  0.00    -0.250 OA
ATOM     18  C   UNL     1      30.605 -23.906 -13.798  0.00  0.00    +0.317 C 
BRANCH  18  19
ATOM     19  O   UNL     1      29.778 -22.963 -14.332  0.00  0.00    -0.444 OA
ATOM     20  C   UNL     1      28.627 -23.471 -15.014  0.00  0.00    +0.256 C 
ENDBRANCH  18  19
ENDBRANCH  11  18
ENDBRANCH   3  16
ENDBRANCH   1   6
BRANCH   1  21
ATOM     21  C   UNL     1      35.983 -19.122 -21.162  0.00  0.00    +0.145 C 
BRANCH  21  28
ATOM     22  N   UNL     1      35.176 -17.008 -22.070  0.00  0.00    -0.392 NA
ATOM     23  N   UNL     1      34.419 -18.214 -24.444  0.00  0.00    -0.200 NA
ATOM     24  N   UNL     1      33.668 -16.179 -25.255  0.00  0.00    -0.271 NA
ATOM     25  N   UNL     1      33.826 -14.188 -23.928  0.00  0.00    -0.310 NA
ATOM     26  N   UNL     1      34.758 -14.301 -21.760  0.00  0.00    -0.329 N 
ATOM     27  N   UNL     1      32.906 -14.118 -26.080  0.00  0.00    -0.283 N 
ATOM     28  C   UNL     1      35.357 -18.322 -22.270  0.00  0.00    +0.133 C 
ATOM     29  C   UNL     1      34.983 -18.918 -23.444  0.00  0.00    +0.193 C 
ATOM     30  C   UNL     1      34.612 -16.305 -23.072  0.00  0.00    +0.248 C 
ATOM     31  C   UNL     1      34.226 -16.900 -24.275  0.00  0.00    +0.131 C 
ATOM     32  C   UNL     1      34.384 -14.947 -22.967  0.00  0.00    +0.231 C 
ATOM     33  C   UNL     1      33.496 -14.862 -25.035  0.00  0.00    +0.207 C 
ATOM     34  H   UNL     1      34.609 -13.334 -21.652  0.00  0.00    +0.145 HD
ATOM     35  H   UNL     1      35.167 -14.819 -21.030  0.00  0.00    +0.145 HD
ATOM     36  H   UNL     1      32.644 -14.567 -26.916  0.00  0.00    +0.156 HD
ATOM     37  H   UNL     1      32.756 -13.151 -25.973  0.00  0.00    +0.156 HD
ENDBRANCH  21  28
ENDBRANCH   1  21
TORSDOF 6
ENDMDL
MODEL 8
REMARK VINA RESULT:     -11.2      1.343      2.471
REMARK  Name = 25243853
REMARK  6 active torsions:
REMARK  status: ('A' for Active; 'I' for Inactive)
REMARK    1  A    between atoms: N_1  and  C_6
REMARK    2  A    between atoms: N_1  and  C_21
REMARK    3  A    between atoms: C_3  and  C_16
REMARK    4  A    between atoms: C_11  and  C_18
REMARK    5  A    between atoms: C_18  and  O_19
REMARK    6  A    between atoms: C_21  and  C_28
REMARK                            x       y       z     vdW  Elec       q    Type
REMARK                         _______ _______ _______ _____ _____    ______ ____
ROOT
ATOM      1  N   UNL     1      35.364 -20.950 -20.461  0.00  0.00    -0.327 N 
ATOM      2  H   UNL     1      34.951 -21.229 -21.310  0.00  0.00    +0.147 HD
ENDROOT
BRANCH   1   6
ATOM      3  C   UNL     1      34.368 -23.045 -16.959  0.00  0.00    +0.054 C 
ATOM      4  C   UNL     1      33.397 -22.818 -17.936  0.00  0.00    +0.006 C 
ATOM      5  C   UNL     1      35.668 -22.577 -17.147  0.00  0.00    +0.006 C 
ATOM      6  C   UNL     1      35.029 -21.654 -19.285  0.00  0.00    +0.045 C 
ATOM      7  C   UNL     1      33.729 -22.122 -19.099  0.00  0.00    +0.014 C 
ATOM      8  C   UNL     1      35.999 -21.882 -18.309  0.00  0.00    +0.014 C 
BRANCH   3  16
ATOM      9  O   UNL     1      32.823 -24.001 -15.559  0.00  0.00    -0.270 OA
ATOM     10  N   UNL     1      35.056 -24.160 -14.880  0.00  0.00    -0.276 N 
ATOM     11  C   UNL     1      36.744 -23.730 -12.556  0.00  0.00    +0.102 C 
ATOM     12  C   UNL     1      35.262 -24.097 -12.429  0.00  0.00    +0.033 C 
ATOM     13  C   UNL     1      37.068 -23.106 -13.917  0.00  0.00    +0.033 C 
ATOM     14  C   UNL     1      34.746 -24.869 -13.642  0.00  0.00    +0.094 C 
ATOM     15  C   UNL     1      36.483 -23.891 -15.092  0.00  0.00    +0.094 C 
ATOM     16  C   UNL     1      34.020 -23.777 -15.735  0.00  0.00    +0.249 C 
BRANCH  11  18
ATOM     17  O   UNL     1      37.241 -25.904 -11.641  0.00  0.00    -0.250 OA
ATOM     18  C   UNL     1      37.603 -24.934 -12.294  0.00  0.00    +0.317 C 
BRANCH  18  19
ATOM     19  O   UNL     1      38.818 -24.765 -12.888  0.00  0.00    -0.444 OA
ATOM     20  C   UNL     1      39.344 -25.920 -13.550  0.00  0.00    +0.256 C 
ENDBRANCH  18  19
ENDBRANCH  11  18
ENDBRANCH   3  16
ENDBRANCH   1   6
BRANCH   1  21
ATOM     21  C   UNL     1      36.278 -19.850 -20.474  0.00  0.00    +0.145 C 
BRANCH  21  28
ATOM     22  N   UNL     1      35.141 -19.005 -22.459  0.00  0.00    -0.392 NA
ATOM     23  N   UNL     1      35.320 -16.394 -21.560  0.00  0.00    -0.200 NA
ATOM     24  N   UNL     1      34.236 -15.648 -23.465  0.00  0.00    -0.271 NA
ATOM     25  N   UNL     1      33.520 -17.187 -25.159  0.00  0.00    -0.310 NA
ATOM     26  N   UNL     1      33.927 -19.498 -24.884  0.00  0.00    -0.329 N 
ATOM     27  N   UNL     1      33.138 -14.889 -25.396  0.00  0.00    -0.283 N 
ATOM     28  C   UNL     1      35.723 -18.713 -21.286  0.00  0.00    +0.133 C 
ATOM     29  C   UNL     1      35.811 -17.421 -20.842  0.00  0.00    +0.193 C 
ATOM     30  C   UNL     1      34.649 -17.976 -23.176  0.00  0.00    +0.248 C 
ATOM     31  C   UNL     1      34.732 -16.653 -22.734  0.00  0.00    +0.131 C 
ATOM     32  C   UNL     1      34.031 -18.170 -24.395  0.00  0.00    +0.231 C 
ATOM     33  C   UNL     1      33.655 -15.962 -24.639  0.00  0.00    +0.207 C 
ATOM     34  H   UNL     1      33.492 -19.671 -25.750  0.00  0.00    +0.145 HD
ATOM     35  H   UNL     1      34.289 -20.246 -24.358  0.00  0.00    +0.145 HD
ATOM     36  H   UNL     1      33.212 -13.968 -25.058  0.00  0.00    +0.156 HD
ATOM     37  H   UNL     1      32.703 -15.062 -26.262  0.00  0.00    +0.156 HD
ENDBRANCH  21  28
ENDBRANCH   1  21
TORSDOF 6
ENDMDL
MODEL 9
REMARK VINA RESULT:     -11.0      4.032     11.682
REMARK  Name = 25243853
REMARK  6 active torsions:
REMARK  status: ('A' for Active; 'I' for Inactive)
REMARK    1  A    between atoms: N_1  and  C_6
REMARK    2  A    between atoms: N_1  and  C_21
REMARK    3  A    between atoms: C_3  and  C_16
REMARK    4  A    between atoms: C_11  and  C_18
REMARK    5  A    between atoms: C_18  and  O_19
REMARK    6  A    between atoms: C_21  and  C_28
REMARK                            x       y       z     vdW  Elec       q    Type
REMARK                         _______ _______ _______ _____ _____    ______ ____
ROOT
ATOM      1  N   UNL     1      36.495 -21.841 -18.287  0.00  0.00    -0.327 N 
ATOM      2  H   UNL     1      36.299 -22.799 -18.405  0.00  0.00    +0.147 HD
ENDROOT
BRANCH   1   6
ATOM      3  C   UNL     1      35.608 -19.211 -21.441  0.00  0.00    +0.054 C 
ATOM      4  C   UNL     1      36.868 -19.183 -20.842  0.00  0.00    +0.006 C 
ATOM      5  C   UNL     1      34.644 -20.114 -20.992  0.00  0.00    +0.006 C 
ATOM      6  C   UNL     1      36.197 -20.958 -19.347  0.00  0.00    +0.045 C 
ATOM      7  C   UNL     1      37.162 -20.057 -19.795  0.00  0.00    +0.014 C 
ATOM      8  C   UNL     1      34.938 -20.987 -19.946  0.00  0.00    +0.014 C 
BRANCH   3  16
ATOM      9  O   UNL     1      35.695 -18.628 -23.657  0.00  0.00    -0.270 OA
ATOM     10  N   UNL     1      34.584 -17.128 -22.247  0.00  0.00    -0.276 N 
ATOM     11  C   UNL     1      34.460 -14.296 -21.614  0.00  0.00    +0.102 C 
ATOM     12  C   UNL     1      34.862 -14.803 -23.003  0.00  0.00    +0.033 C 
ATOM     13  C   UNL     1      34.670 -15.359 -20.531  0.00  0.00    +0.033 C 
ATOM     14  C   UNL     1      34.277 -16.179 -23.314  0.00  0.00    +0.094 C 
ATOM     15  C   UNL     1      34.111 -16.729 -20.917  0.00  0.00    +0.094 C 
ATOM     16  C   UNL     1      35.298 -18.292 -22.543  0.00  0.00    +0.249 C 
BRANCH  11  18
ATOM     17  O   UNL     1      32.278 -13.893 -20.674  0.00  0.00    -0.250 OA
ATOM     18  C   UNL     1      33.039 -13.810 -21.629  0.00  0.00    +0.317 C 
BRANCH  18  19
ATOM     19  O   UNL     1      32.753 -13.278 -22.850  0.00  0.00    -0.444 OA
ATOM     20  C   UNL     1      32.993 -11.873 -22.979  0.00  0.00    +0.256 C 
ENDBRANCH  18  19
ENDBRANCH  11  18
ENDBRANCH   3  16
ENDBRANCH   1   6
BRANCH   1  21
ATOM     21  C   UNL     1      37.066 -21.406 -17.051  0.00  0.00    +0.145 C 
BRANCH  21  28
ATOM     22  N   UNL     1      37.837 -23.259 -15.666  0.00  0.00    -0.392 NA
ATOM     23  N   UNL     1      35.401 -23.413 -14.360  0.00  0.00    -0.200 NA
ATOM     24  N   UNL     1      36.187 -25.170 -13.072  0.00  0.00    -0.271 NA
ATOM     25  N   UNL     1      38.419 -26.002 -13.350  0.00  0.00    -0.310 NA
ATOM     26  N   UNL     1      39.839 -25.018 -14.962  0.00  0.00    -0.329 N 
ATOM     27  N   UNL     1      36.980 -26.952 -11.766  0.00  0.00    -0.283 N 
ATOM     28  C   UNL     1      36.830 -22.427 -15.973  0.00  0.00    +0.133 C 
ATOM     29  C   UNL     1      35.626 -22.503 -15.326  0.00  0.00    +0.193 C 
ATOM     30  C   UNL     1      37.610 -24.169 -14.698  0.00  0.00    +0.248 C 
ATOM     31  C   UNL     1      36.387 -24.257 -14.031  0.00  0.00    +0.131 C 
ATOM     32  C   UNL     1      38.581 -25.070 -14.308  0.00  0.00    +0.231 C 
ATOM     33  C   UNL     1      37.209 -25.996 -12.779  0.00  0.00    +0.207 C 
ATOM     34  H   UNL     1      40.553 -25.647 -14.708  0.00  0.00    +0.145 HD
ATOM     35  H   UNL     1      39.999 -24.353 -15.670  0.00  0.00    +0.145 HD
ATOM     36  H   UNL     1      36.106 -26.990 -11.314  0.00  0.00    +0.156 HD
ATOM     37  H   UNL     1      37.693 -27.581 -11.512  0.00  0.00    +0.156 HD
ENDBRANCH  21  28
ENDBRANCH   1  21
TORSDOF 6
ENDMDL
