MODEL 1
REMARK VINA RESULT:     -12.0      0.000      0.000
REMARK  Name = 53338808
REMARK  2 active torsions:
REMARK  status: ('A' for Active; 'I' for Inactive)
REMARK    1  A    between atoms: C_3  and  C_15
REMARK    2  A    between atoms: C_5  and  C_23
REMARK                            x       y       z     vdW  Elec       q    Type
REMARK                         _______ _______ _______ _____ _____    ______ ____
ROOT
ATOM      1  N   UNL     1      31.710 -23.769 -15.257  0.00  0.00    -0.228 N 
ATOM      2  N   UNL     1      32.327 -23.061 -16.242  0.00  0.00    -0.165 NA
ATOM      3  C   UNL     1      33.854 -24.365 -15.153  0.00  0.00    +0.056 A 
ATOM      4  C   UNL     1      32.626 -24.576 -14.577  0.00  0.00    +0.086 A 
ATOM      5  C   UNL     1      33.607 -23.428 -16.168  0.00  0.00    +0.104 A 
ATOM      6  C   UNL     1      32.145 -25.387 -13.510  0.00  0.00    +0.019 C 
ATOM      7  C   UNL     1      30.353 -23.746 -14.917  0.00  0.00    +0.100 C 
ATOM      8  C   UNL     1      30.838 -25.357 -13.190  0.00  0.00    +0.003 C 
ATOM      9  C   UNL     1      29.902 -24.512 -13.911  0.00  0.00    +0.021 C 
ENDROOT
BRANCH   3  15
ATOM     10  N   UNL     1      35.445 -26.073 -15.499  0.00  0.00    -0.146 NA
ATOM     11  N   UNL     1      38.405 -26.829 -13.651  0.00  0.00    -0.257 N 
ATOM     12  N   UNL     1      36.551 -26.743 -15.209  0.00  0.00    -0.129 NA
ATOM     13  N   UNL     1      38.863 -26.174 -12.567  0.00  0.00    -0.157 NA
ATOM     14  N   UNL     1      37.988 -24.278 -11.391  0.00  0.00    -0.341 N 
ATOM     15  C   UNL     1      35.066 -25.011 -14.740  0.00  0.00    +0.106 C 
ATOM     16  C   UNL     1      35.758 -24.536 -13.634  0.00  0.00    +0.027 C 
ATOM     17  C   UNL     1      36.919 -25.244 -13.333  0.00  0.00    +0.071 A 
ATOM     18  C   UNL     1      37.247 -26.312 -14.146  0.00  0.00    +0.180 A 
ATOM     19  C   UNL     1      37.955 -25.211 -12.378  0.00  0.00    +0.148 A 
ATOM     20  H   UNL     1      38.863 -27.605 -14.047  0.00  0.00    +0.191 HD
ATOM     21  H   UNL     1      38.724 -24.279 -10.737  0.00  0.00    +0.144 HD
ATOM     22  H   UNL     1      37.276 -23.601 -11.329  0.00  0.00    +0.144 HD
ENDBRANCH   3  15
BRANCH   5  23
ATOM     23  C   UNL     1      34.568 -22.863 -17.081  0.00  0.00    +0.019 C 
ATOM     24  C   UNL     1      34.224 -22.659 -18.417  0.00  0.00    +0.002 C 
ATOM     25  C   UNL     1      35.842 -22.518 -16.629  0.00  0.00    +0.002 C 
ATOM     26  C   UNL     1      35.153 -22.111 -19.301  0.00  0.00    +0.000 C 
ATOM     27  C   UNL     1      36.771 -21.970 -17.513  0.00  0.00    +0.000 C 
ATOM     28  C   UNL     1      36.426 -21.767 -18.849  0.00  0.00    +0.000 C 
ENDBRANCH   5  23
TORSDOF 2
ENDMDL
MODEL 2
REMARK VINA RESULT:     -11.7      0.982      1.632
REMARK  Name = 53338808
REMARK  2 active torsions:
REMARK  status: ('A' for Active; 'I' for Inactive)
REMARK    1  A    between atoms: C_3  and  C_15
REMARK    2  A    between atoms: C_5  and  C_23
REMARK                            x       y       z     vdW  Elec       q    Type
REMARK                         _______ _______ _______ _____ _____    ______ ____
ROOT
ATOM      1  N   UNL     1      31.572 -23.994 -15.566  0.00  0.00    -0.228 N 
ATOM      2  N   UNL     1      32.208 -23.370 -16.595  0.00  0.00    -0.165 NA
ATOM      3  C   UNL     1      33.736 -24.058 -15.042  0.00  0.00    +0.056 A 
ATOM      4  C   UNL     1      32.489 -24.424 -14.602  0.00  0.00    +0.086 A 
ATOM      5  C   UNL     1      33.501 -23.417 -16.268  0.00  0.00    +0.104 A 
ATOM      6  C   UNL     1      31.988 -25.099 -13.454  0.00  0.00    +0.019 C 
ATOM      7  C   UNL     1      30.197 -24.212 -15.426  0.00  0.00    +0.100 C 
ATOM      8  C   UNL     1      30.664 -25.304 -13.327  0.00  0.00    +0.003 C 
ATOM      9  C   UNL     1      29.728 -24.850 -14.341  0.00  0.00    +0.021 C 
ENDROOT
BRANCH   3  15
ATOM     10  N   UNL     1      35.329 -23.358 -13.448  0.00  0.00    -0.146 NA
ATOM     11  N   UNL     1      38.305 -24.989 -12.341  0.00  0.00    -0.257 N 
ATOM     12  N   UNL     1      36.437 -23.496 -12.736  0.00  0.00    -0.129 NA
ATOM     13  N   UNL     1      38.773 -26.179 -12.765  0.00  0.00    -0.157 NA
ATOM     14  N   UNL     1      37.903 -27.724 -14.378  0.00  0.00    -0.341 N 
ATOM     15  C   UNL     1      34.955 -24.320 -14.333  0.00  0.00    +0.106 C 
ATOM     16  C   UNL     1      35.657 -25.492 -14.576  0.00  0.00    +0.027 C 
ATOM     17  C   UNL     1      36.822 -25.634 -13.826  0.00  0.00    +0.071 A 
ATOM     18  C   UNL     1      37.142 -24.619 -12.944  0.00  0.00    +0.180 A 
ATOM     19  C   UNL     1      37.866 -26.566 -13.669  0.00  0.00    +0.148 A 
ATOM     20  H   UNL     1      38.760 -24.441 -11.662  0.00  0.00    +0.191 HD
ATOM     21  H   UNL     1      38.647 -28.357 -14.247  0.00  0.00    +0.144 HD
ATOM     22  H   UNL     1      37.189 -27.930 -15.022  0.00  0.00    +0.144 HD
ENDBRANCH   3  15
BRANCH   5  23
ATOM     23  C   UNL     1      34.484 -22.837 -17.148  0.00  0.00    +0.019 C 
ATOM     24  C   UNL     1      34.160 -22.579 -18.480  0.00  0.00    +0.002 C 
ATOM     25  C   UNL     1      35.758 -22.533 -16.669  0.00  0.00    +0.002 C 
ATOM     26  C   UNL     1      35.110 -22.018 -19.333  0.00  0.00    +0.000 C 
ATOM     27  C   UNL     1      36.708 -21.972 -17.522  0.00  0.00    +0.000 C 
ATOM     28  C   UNL     1      36.384 -21.714 -18.853  0.00  0.00    +0.000 C 
ENDBRANCH   5  23
TORSDOF 2
ENDMDL
MODEL 3
REMARK VINA RESULT:     -10.8      2.333      6.317
REMARK  Name = 53338808
REMARK  2 active torsions:
REMARK  status: ('A' for Active; 'I' for Inactive)
REMARK    1  A    between atoms: C_3  and  C_15
REMARK    2  A    between atoms: C_5  and  C_23
REMARK                            x       y       z     vdW  Elec       q    Type
REMARK                         _______ _______ _______ _____ _____    ______ ____
ROOT
ATOM      1  N   UNL     1      35.532 -22.671 -17.172  0.00  0.00    -0.228 N 
ATOM      2  N   UNL     1      36.301 -23.076 -16.125  0.00  0.00    -0.165 NA
ATOM      3  C   UNL     1      34.130 -23.695 -15.776  0.00  0.00    +0.056 A 
ATOM      4  C   UNL     1      34.197 -23.040 -16.980  0.00  0.00    +0.086 A 
ATOM      5  C   UNL     1      35.450 -23.686 -15.300  0.00  0.00    +0.104 A 
ATOM      6  C   UNL     1      33.252 -22.692 -17.987  0.00  0.00    +0.019 C 
ATOM      7  C   UNL     1      35.948 -21.980 -18.316  0.00  0.00    +0.100 C 
ATOM      8  C   UNL     1      33.663 -22.027 -19.082  0.00  0.00    +0.003 C 
ATOM      9  C   UNL     1      35.055 -21.654 -19.263  0.00  0.00    +0.021 C 
ENDROOT
BRANCH   3  15
ATOM     10  N   UNL     1      33.101 -25.010 -14.109  0.00  0.00    -0.146 NA
ATOM     11  N   UNL     1      29.644 -25.752 -13.611  0.00  0.00    -0.257 N 
ATOM     12  N   UNL     1      32.058 -25.560 -13.505  0.00  0.00    -0.129 NA
ATOM     13  N   UNL     1      28.615 -25.325 -14.368  0.00  0.00    -0.157 NA
ATOM     14  N   UNL     1      28.571 -23.929 -16.316  0.00  0.00    -0.341 N 
ATOM     15  C   UNL     1      32.927 -24.237 -15.213  0.00  0.00    +0.106 C 
ATOM     16  C   UNL     1      31.701 -23.953 -15.800  0.00  0.00    +0.027 C 
ATOM     17  C   UNL     1      30.608 -24.533 -15.163  0.00  0.00    +0.071 A 
ATOM     18  C   UNL     1      30.855 -25.306 -14.044  0.00  0.00    +0.180 A 
ATOM     19  C   UNL     1      29.208 -24.584 -15.310  0.00  0.00    +0.148 A 
ATOM     20  H   UNL     1      29.531 -26.330 -12.823  0.00  0.00    +0.191 HD
ATOM     21  H   UNL     1      27.590 -23.983 -16.395  0.00  0.00    +0.144 HD
ATOM     22  H   UNL     1      29.088 -23.402 -16.966  0.00  0.00    +0.144 HD
ENDBRANCH   3  15
BRANCH   5  23
ATOM     23  C   UNL     1      35.931 -24.249 -14.063  0.00  0.00    +0.019 C 
ATOM     24  C   UNL     1      36.504 -25.520 -14.053  0.00  0.00    +0.002 C 
ATOM     25  C   UNL     1      35.824 -23.522 -12.877  0.00  0.00    +0.002 C 
ATOM     26  C   UNL     1      36.971 -26.065 -12.856  0.00  0.00    +0.000 C 
ATOM     27  C   UNL     1      36.291 -24.067 -11.681  0.00  0.00    +0.000 C 
ATOM     28  C   UNL     1      36.864 -25.338 -11.671  0.00  0.00    +0.000 C 
ENDBRANCH   5  23
TORSDOF 2
ENDMDL
MODEL 4
REMARK VINA RESULT:     -10.6      2.392      5.473
REMARK  Name = 53338808
REMARK  2 active torsions:
REMARK  status: ('A' for Active; 'I' for Inactive)
REMARK    1  A    between atoms: C_3  and  C_15
REMARK    2  A    between atoms: C_5  and  C_23
REMARK                            x       y       z     vdW  Elec       q    Type
REMARK                         _______ _______ _______ _____ _____    ______ ____
ROOT
ATOM      1  N   UNL     1      32.050 -24.751 -14.054  0.00  0.00    -0.228 N 
ATOM      2  N   UNL     1      33.238 -25.135 -13.512  0.00  0.00    -0.165 NA
ATOM      3  C   UNL     1      33.610 -23.913 -15.407  0.00  0.00    +0.056 A 
ATOM      4  C   UNL     1      32.253 -24.001 -15.216  0.00  0.00    +0.086 A 
ATOM      5  C   UNL     1      34.160 -24.627 -14.331  0.00  0.00    +0.104 A 
ATOM      6  C   UNL     1      31.109 -23.518 -15.912  0.00  0.00    +0.019 C 
ATOM      7  C   UNL     1      30.766 -25.029 -13.571  0.00  0.00    +0.100 C 
ATOM      8  C   UNL     1      29.879 -23.791 -15.440  0.00  0.00    +0.003 C 
ATOM      9  C   UNL     1      29.690 -24.571 -14.229  0.00  0.00    +0.021 C 
ENDROOT
BRANCH   3  15
ATOM     10  N   UNL     1      35.589 -23.164 -16.448  0.00  0.00    -0.146 NA
ATOM     11  N   UNL     1      36.007 -21.327 -19.482  0.00  0.00    -0.257 N 
ATOM     12  N   UNL     1      36.269 -22.550 -17.405  0.00  0.00    -0.129 NA
ATOM     13  N   UNL     1      35.028 -20.899 -20.302  0.00  0.00    -0.157 NA
ATOM     14  N   UNL     1      32.646 -21.136 -20.162  0.00  0.00    -0.341 N 
ATOM     15  C   UNL     1      34.232 -23.220 -16.497  0.00  0.00    +0.106 C 
ATOM     16  C   UNL     1      33.449 -22.670 -17.503  0.00  0.00    +0.027 C 
ATOM     17  C   UNL     1      34.167 -22.025 -18.506  0.00  0.00    +0.071 A 
ATOM     18  C   UNL     1      35.545 -22.006 -18.395  0.00  0.00    +0.180 A 
ATOM     19  C   UNL     1      33.911 -21.327 -19.702  0.00  0.00    +0.148 A 
ATOM     20  H   UNL     1      36.962 -21.166 -19.652  0.00  0.00    +0.191 HD
ATOM     21  H   UNL     1      32.497 -20.644 -21.002  0.00  0.00    +0.144 HD
ATOM     22  H   UNL     1      31.880 -21.490 -19.656  0.00  0.00    +0.144 HD
ENDBRANCH   3  15
BRANCH   5  23
ATOM     23  C   UNL     1      35.559 -24.843 -14.057  0.00  0.00    +0.019 C 
ATOM     24  C   UNL     1      36.234 -23.999 -13.177  0.00  0.00    +0.002 C 
ATOM     25  C   UNL     1      36.235 -25.896 -14.671  0.00  0.00    +0.002 C 
ATOM     26  C   UNL     1      37.587 -24.208 -12.910  0.00  0.00    +0.000 C 
ATOM     27  C   UNL     1      37.589 -26.106 -14.405  0.00  0.00    +0.000 C 
ATOM     28  C   UNL     1      38.264 -25.261 -13.524  0.00  0.00    +0.000 C 
ENDBRANCH   5  23
TORSDOF 2
ENDMDL
MODEL 5
REMARK VINA RESULT:     -10.6      2.255      5.934
REMARK  Name = 53338808
REMARK  2 active torsions:
REMARK  status: ('A' for Active; 'I' for Inactive)
REMARK    1  A    between atoms: C_3  and  C_15
REMARK    2  A    between atoms: C_5  and  C_23
REMARK                            x       y       z     vdW  Elec       q    Type
REMARK                         _______ _______ _______ _____ _____    ______ ____
ROOT
ATOM      1  N   UNL     1      35.143 -24.691 -12.400  0.00  0.00    -0.228 N 
ATOM      2  N   UNL     1      33.783 -24.734 -12.397  0.00  0.00    -0.165 NA
ATOM      3  C   UNL     1      34.532 -24.058 -14.447  0.00  0.00    +0.056 A 
ATOM      4  C   UNL     1      35.625 -24.280 -13.647  0.00  0.00    +0.086 A 
ATOM      5  C   UNL     1      33.433 -24.353 -13.627  0.00  0.00    +0.104 A 
ATOM      6  C   UNL     1      37.034 -24.181 -13.824  0.00  0.00    +0.019 C 
ATOM      7  C   UNL     1      36.006 -25.003 -11.344  0.00  0.00    +0.100 C 
ATOM      8  C   UNL     1      37.855 -24.482 -12.801  0.00  0.00    +0.003 C 
ATOM      9  C   UNL     1      37.334 -24.908 -11.514  0.00  0.00    +0.021 C 
ENDROOT
BRANCH   3  15
ATOM     10  N   UNL     1      33.705 -24.205 -16.652  0.00  0.00    -0.146 NA
ATOM     11  N   UNL     1      34.738 -22.455 -19.588  0.00  0.00    -0.257 N 
ATOM     12  N   UNL     1      33.678 -23.876 -17.935  0.00  0.00    -0.129 NA
ATOM     13  N   UNL     1      35.722 -21.539 -19.671  0.00  0.00    -0.157 NA
ATOM     14  N   UNL     1      37.194 -20.659 -17.997  0.00  0.00    -0.341 N 
ATOM     15  C   UNL     1      34.601 -23.622 -15.812  0.00  0.00    +0.106 C 
ATOM     16  C   UNL     1      35.538 -22.668 -16.185  0.00  0.00    +0.027 C 
ATOM     17  C   UNL     1      35.506 -22.325 -17.534  0.00  0.00    +0.071 A 
ATOM     18  C   UNL     1      34.569 -22.954 -18.333  0.00  0.00    +0.180 A 
ATOM     19  C   UNL     1      36.185 -21.464 -18.419  0.00  0.00    +0.148 A 
ATOM     20  H   UNL     1      34.195 -22.735 -20.359  0.00  0.00    +0.191 HD
ATOM     21  H   UNL     1      37.652 -20.067 -18.638  0.00  0.00    +0.144 HD
ATOM     22  H   UNL     1      37.469 -20.666 -17.052  0.00  0.00    +0.144 HD
ENDBRANCH   3  15
BRANCH   5  23
ATOM     23  C   UNL     1      32.038 -24.282 -13.984  0.00  0.00    +0.019 C 
ATOM     24  C   UNL     1      31.260 -25.439 -13.986  0.00  0.00    +0.002 C 
ATOM     25  C   UNL     1      31.467 -23.056 -14.325  0.00  0.00    +0.002 C 
ATOM     26  C   UNL     1      29.910 -25.370 -14.331  0.00  0.00    +0.000 C 
ATOM     27  C   UNL     1      30.117 -22.988 -14.669  0.00  0.00    +0.000 C 
ATOM     28  C   UNL     1      29.339 -24.145 -14.672  0.00  0.00    +0.000 C 
ENDBRANCH   5  23
TORSDOF 2
ENDMDL
MODEL 6
REMARK VINA RESULT:     -10.5      2.426      4.840
REMARK  Name = 53338808
REMARK  2 active torsions:
REMARK  status: ('A' for Active; 'I' for Inactive)
REMARK    1  A    between atoms: C_3  and  C_15
REMARK    2  A    between atoms: C_5  and  C_23
REMARK                            x       y       z     vdW  Elec       q    Type
REMARK                         _______ _______ _______ _____ _____    ______ ____
ROOT
ATOM      1  N   UNL     1      31.881 -24.895 -13.712  0.00  0.00    -0.228 N 
ATOM      2  N   UNL     1      33.073 -25.093 -13.086  0.00  0.00    -0.165 NA
ATOM      3  C   UNL     1      33.421 -24.131 -15.129  0.00  0.00    +0.056 A 
ATOM      4  C   UNL     1      32.070 -24.306 -14.966  0.00  0.00    +0.086 A 
ATOM      5  C   UNL     1      33.984 -24.631 -13.945  0.00  0.00    +0.104 A 
ATOM      6  C   UNL     1      30.920 -24.028 -15.757  0.00  0.00    +0.019 C 
ATOM      7  C   UNL     1      30.606 -25.209 -13.229  0.00  0.00    +0.100 C 
ATOM      8  C   UNL     1      29.697 -24.335 -15.285  0.00  0.00    +0.003 C 
ATOM      9  C   UNL     1      29.523 -24.946 -13.978  0.00  0.00    +0.021 C 
ENDROOT
BRANCH   3  15
ATOM     10  N   UNL     1      33.474 -23.914 -17.477  0.00  0.00    -0.146 NA
ATOM     11  N   UNL     1      35.660 -21.980 -19.534  0.00  0.00    -0.257 N 
ATOM     12  N   UNL     1      33.954 -23.437 -18.616  0.00  0.00    -0.129 NA
ATOM     13  N   UNL     1      36.668 -21.192 -19.114  0.00  0.00    -0.157 NA
ATOM     14  N   UNL     1      37.466 -20.706 -16.906  0.00  0.00    -0.341 N 
ATOM     15  C   UNL     1      34.030 -23.551 -16.291  0.00  0.00    +0.106 C 
ATOM     16  C   UNL     1      35.106 -22.686 -16.149  0.00  0.00    +0.027 C 
ATOM     17  C   UNL     1      35.608 -22.188 -17.348  0.00  0.00    +0.071 A 
ATOM     18  C   UNL     1      34.996 -22.597 -18.517  0.00  0.00    +0.180 A 
ATOM     19  C   UNL     1      36.632 -21.323 -17.783  0.00  0.00    +0.148 A 
ATOM     20  H   UNL     1      35.426 -22.098 -20.482  0.00  0.00    +0.191 HD
ATOM     21  H   UNL     1      38.173 -20.106 -17.239  0.00  0.00    +0.144 HD
ATOM     22  H   UNL     1      37.365 -20.858 -15.939  0.00  0.00    +0.144 HD
ENDBRANCH   3  15
BRANCH   5  23
ATOM     23  C   UNL     1      35.383 -24.685 -13.602  0.00  0.00    +0.019 C 
ATOM     24  C   UNL     1      36.213 -25.625 -14.212  0.00  0.00    +0.002 C 
ATOM     25  C   UNL     1      35.906 -23.797 -12.663  0.00  0.00    +0.002 C 
ATOM     26  C   UNL     1      37.568 -25.677 -13.882  0.00  0.00    +0.000 C 
ATOM     27  C   UNL     1      37.260 -23.849 -12.333  0.00  0.00    +0.000 C 
ATOM     28  C   UNL     1      38.091 -24.789 -12.942  0.00  0.00    +0.000 C 
ENDBRANCH   5  23
TORSDOF 2
ENDMDL
MODEL 7
REMARK VINA RESULT:     -10.2      2.703      6.325
REMARK  Name = 53338808
REMARK  2 active torsions:
REMARK  status: ('A' for Active; 'I' for Inactive)
REMARK    1  A    between atoms: C_3  and  C_15
REMARK    2  A    between atoms: C_5  and  C_23
REMARK                            x       y       z     vdW  Elec       q    Type
REMARK                         _______ _______ _______ _____ _____    ______ ____
ROOT
ATOM      1  N   UNL     1      35.508 -22.078 -18.233  0.00  0.00    -0.228 N 
ATOM      2  N   UNL     1      36.142 -22.661 -17.179  0.00  0.00    -0.165 NA
ATOM      3  C   UNL     1      33.882 -22.903 -16.952  0.00  0.00    +0.056 A 
ATOM      4  C   UNL     1      34.121 -22.215 -18.115  0.00  0.00    +0.086 A 
ATOM      5  C   UNL     1      35.158 -23.149 -16.423  0.00  0.00    +0.104 A 
ATOM      6  C   UNL     1      33.302 -21.659 -19.138  0.00  0.00    +0.019 C 
ATOM      7  C   UNL     1      36.094 -21.419 -19.319  0.00  0.00    +0.100 C 
ATOM      8  C   UNL     1      33.876 -21.027 -20.179  0.00  0.00    +0.003 C 
ATOM      9  C   UNL     1      35.319 -20.897 -20.283  0.00  0.00    +0.021 C 
ENDROOT
BRANCH   3  15
ATOM     10  N   UNL     1      31.540 -22.738 -17.182  0.00  0.00    -0.146 NA
ATOM     11  N   UNL     1      28.952 -24.177 -15.187  0.00  0.00    -0.257 N 
ATOM     12  N   UNL     1      30.290 -22.995 -16.827  0.00  0.00    -0.129 NA
ATOM     13  N   UNL     1      29.116 -24.956 -14.101  0.00  0.00    -0.157 NA
ATOM     14  N   UNL     1      31.105 -25.738 -13.015  0.00  0.00    -0.341 N 
ATOM     15  C   UNL     1      32.577 -23.250 -16.468  0.00  0.00    +0.106 C 
ATOM     16  C   UNL     1      32.448 -24.057 -15.346  0.00  0.00    +0.027 C 
ATOM     17  C   UNL     1      31.133 -24.324 -14.976  0.00  0.00    +0.071 A 
ATOM     18  C   UNL     1      30.126 -23.774 -15.746  0.00  0.00    +0.180 A 
ATOM     19  C   UNL     1      30.445 -25.042 -13.978  0.00  0.00    +0.148 A 
ATOM     20  H   UNL     1      28.070 -23.923 -15.541  0.00  0.00    +0.191 HD
ATOM     21  H   UNL     1      30.597 -26.231 -12.329  0.00  0.00    +0.144 HD
ATOM     22  H   UNL     1      32.089 -25.749 -13.002  0.00  0.00    +0.144 HD
ENDBRANCH   3  15
BRANCH   5  23
ATOM     23  C   UNL     1      35.472 -23.845 -15.200  0.00  0.00    +0.019 C 
ATOM     24  C   UNL     1      35.711 -25.219 -15.223  0.00  0.00    +0.002 C 
ATOM     25  C   UNL     1      35.538 -23.145 -13.996  0.00  0.00    +0.002 C 
ATOM     26  C   UNL     1      36.016 -25.893 -14.040  0.00  0.00    +0.000 C 
ATOM     27  C   UNL     1      35.844 -23.819 -12.814  0.00  0.00    +0.000 C 
ATOM     28  C   UNL     1      36.082 -25.193 -12.836  0.00  0.00    +0.000 C 
ENDBRANCH   5  23
TORSDOF 2
ENDMDL
MODEL 8
REMARK VINA RESULT:      -9.6      1.884      2.493
REMARK  Name = 53338808
REMARK  2 active torsions:
REMARK  status: ('A' for Active; 'I' for Inactive)
REMARK    1  A    between atoms: C_3  and  C_15
REMARK    2  A    between atoms: C_5  and  C_23
REMARK                            x       y       z     vdW  Elec       q    Type
REMARK                         _______ _______ _______ _____ _____    ______ ____
ROOT
ATOM      1  N   UNL     1      30.653 -23.391 -16.192  0.00  0.00    -0.228 N 
ATOM      2  N   UNL     1      31.050 -22.710 -17.302  0.00  0.00    -0.165 NA
ATOM      3  C   UNL     1      32.877 -23.536 -16.206  0.00  0.00    +0.056 A 
ATOM      4  C   UNL     1      31.756 -23.907 -15.505  0.00  0.00    +0.086 A 
ATOM      5  C   UNL     1      32.381 -22.806 -17.296  0.00  0.00    +0.104 A 
ATOM      6  C   UNL     1      31.518 -24.650 -14.315  0.00  0.00    +0.019 C 
ATOM      7  C   UNL     1      29.344 -23.590 -15.741  0.00  0.00    +0.100 C 
ATOM      8  C   UNL     1      30.255 -24.836 -13.888  0.00  0.00    +0.003 C 
ATOM      9  C   UNL     1      29.123 -24.293 -14.618  0.00  0.00    +0.021 C 
ENDROOT
BRANCH   3  15
ATOM     10  N   UNL     1      34.396 -25.148 -15.394  0.00  0.00    -0.146 NA
ATOM     11  N   UNL     1      37.900 -24.860 -14.773  0.00  0.00    -0.257 N 
ATOM     12  N   UNL     1      35.596 -25.568 -15.021  0.00  0.00    -0.129 NA
ATOM     13  N   UNL     1      38.660 -23.763 -14.958  0.00  0.00    -0.157 NA
ATOM     14  N   UNL     1      38.092 -21.575 -15.755  0.00  0.00    -0.341 N 
ATOM     15  C   UNL     1      34.219 -23.872 -15.826  0.00  0.00    +0.106 C 
ATOM     16  C   UNL     1      35.222 -22.916 -15.919  0.00  0.00    +0.027 C 
ATOM     17  C   UNL     1      36.480 -23.362 -15.525  0.00  0.00    +0.071 A 
ATOM     18  C   UNL     1      36.591 -24.672 -15.098  0.00  0.00    +0.180 A 
ATOM     19  C   UNL     1      37.791 -22.856 -15.416  0.00  0.00    +0.148 A 
ATOM     20  H   UNL     1      38.257 -25.713 -14.437  0.00  0.00    +0.191 HD
ATOM     21  H   UNL     1      39.017 -21.248 -15.669  0.00  0.00    +0.144 HD
ATOM     22  H   UNL     1      37.387 -20.974 -16.087  0.00  0.00    +0.144 HD
ENDBRANCH   3  15
BRANCH   5  23
ATOM     23  C   UNL     1      33.148 -22.186 -18.348  0.00  0.00    +0.019 C 
ATOM     24  C   UNL     1      34.484 -22.537 -18.534  0.00  0.00    +0.002 C 
ATOM     25  C   UNL     1      32.553 -21.237 -19.179  0.00  0.00    +0.002 C 
ATOM     26  C   UNL     1      35.227 -21.938 -19.552  0.00  0.00    +0.000 C 
ATOM     27  C   UNL     1      33.296 -20.639 -20.197  0.00  0.00    +0.000 C 
ATOM     28  C   UNL     1      34.633 -20.989 -20.383  0.00  0.00    +0.000 C 
ENDBRANCH   5  23
TORSDOF 2
ENDMDL
MODEL 9
REMARK VINA RESULT:      -9.6      2.287      6.216
REMARK  Name = 53338808
REMARK  2 active torsions:
REMARK  status: ('A' for Active; 'I' for Inactive)
REMARK    1  A    between atoms: C_3  and  C_15
REMARK    2  A    between atoms: C_5  and  C_23
REMARK                            x       y       z     vdW  Elec       q    Type
REMARK                         _______ _______ _______ _____ _____    ______ ____
ROOT
ATOM      1  N   UNL     1      36.051 -25.293 -12.886  0.00  0.00    -0.228 N 
ATOM      2  N   UNL     1      34.697 -25.171 -12.818  0.00  0.00    -0.165 NA
ATOM      3  C   UNL     1      35.483 -24.067 -14.657  0.00  0.00    +0.056 A 
ATOM      4  C   UNL     1      36.555 -24.624 -14.005  0.00  0.00    +0.086 A 
ATOM      5  C   UNL     1      34.373 -24.436 -13.883  0.00  0.00    +0.104 A 
ATOM      6  C   UNL     1      37.960 -24.652 -14.228  0.00  0.00    +0.019 C 
ATOM      7  C   UNL     1      36.888 -25.978 -11.997  0.00  0.00    +0.100 C 
ATOM      8  C   UNL     1      38.757 -25.313 -13.367  0.00  0.00    +0.003 C 
ATOM      9  C   UNL     1      38.213 -26.002 -12.211  0.00  0.00    +0.021 C 
ENDROOT
BRANCH   3  15
ATOM     10  N   UNL     1      36.763 -22.652 -16.045  0.00  0.00    -0.146 NA
ATOM     11  N   UNL     1      35.906 -21.150 -19.168  0.00  0.00    -0.257 N 
ATOM     12  N   UNL     1      36.963 -21.910 -17.124  0.00  0.00    -0.129 NA
ATOM     13  N   UNL     1      34.737 -21.276 -19.825  0.00  0.00    -0.157 NA
ATOM     14  N   UNL     1      32.751 -22.501 -19.276  0.00  0.00    -0.341 N 
ATOM     15  C   UNL     1      35.579 -23.293 -15.861  0.00  0.00    +0.106 C 
ATOM     16  C   UNL     1      34.504 -23.245 -16.738  0.00  0.00    +0.027 C 
ATOM     17  C   UNL     1      34.718 -22.464 -17.871  0.00  0.00    +0.071 A 
ATOM     18  C   UNL     1      35.945 -21.841 -17.996  0.00  0.00    +0.180 A 
ATOM     19  C   UNL     1      34.018 -22.077 -19.031  0.00  0.00    +0.148 A 
ATOM     20  H   UNL     1      36.658 -20.611 -19.504  0.00  0.00    +0.191 HD
ATOM     21  H   UNL     1      32.286 -22.213 -20.095  0.00  0.00    +0.144 HD
ATOM     22  H   UNL     1      32.297 -23.094 -18.635  0.00  0.00    +0.144 HD
ENDBRANCH   3  15
BRANCH   5  23
ATOM     23  C   UNL     1      32.992 -24.104 -14.130  0.00  0.00    +0.019 C 
ATOM     24  C   UNL     1      32.573 -22.776 -14.065  0.00  0.00    +0.002 C 
ATOM     25  C   UNL     1      32.076 -25.110 -14.435  0.00  0.00    +0.002 C 
ATOM     26  C   UNL     1      31.237 -22.453 -14.305  0.00  0.00    +0.000 C 
ATOM     27  C   UNL     1      30.740 -24.788 -14.675  0.00  0.00    +0.000 C 
ATOM     28  C   UNL     1      30.321 -23.459 -14.609  0.00  0.00    +0.000 C 
ENDBRANCH   5  23
TORSDOF 2
ENDMDL
