MODEL 1
REMARK VINA RESULT:     -11.8      0.000      0.000
REMARK  Name = 9896504
REMARK  6 active torsions:
REMARK  status: ('A' for Active; 'I' for Inactive)
REMARK    1  A    between atoms: N_4  and  C_22
REMARK    2  A    between atoms: C_11  and  C_13
REMARK    3  A    between atoms: C_13  and  O_14
REMARK    4  A    between atoms: O_14  and  C_15
REMARK    5  A    between atoms: C_15  and  C_16
REMARK    6  A    between atoms: C_22  and  C_23
REMARK                            x       y       z     vdW  Elec       q    Type
REMARK                         _______ _______ _______ _____ _____    ______ ____
ROOT
ATOM      1  S   UNL     1      33.681 -15.378 -24.445  0.00  0.00    -0.064 S 
ATOM      2  O   UNL     1      35.730 -17.177 -20.356  0.00  0.00    -0.251 OA
ATOM      3  O   UNL     1      35.113 -20.203 -23.879  0.00  0.00    -0.269 OA
ATOM      4  N   UNL     1      35.458 -18.738 -22.082  0.00  0.00    -0.206 N 
ATOM      5  N   UNL     1      34.782 -16.499 -22.350  0.00  0.00    -0.214 N 
ATOM      6  C   UNL     1      34.351 -16.766 -23.630  0.00  0.00    +0.094 C 
ATOM      7  C   UNL     1      35.355 -17.444 -21.501  0.00  0.00    +0.321 C 
ATOM      8  C   UNL     1      35.032 -19.081 -23.379  0.00  0.00    +0.258 C 
ATOM      9  C   UNL     1      34.443 -17.978 -24.177  0.00  0.00    +0.080 C 
ATOM     10  C   UNL     1      34.565 -15.175 -22.044  0.00  0.00    +0.087 C 
ATOM     11  C   UNL     1      34.003 -14.465 -23.023  0.00  0.00    +0.122 C 
ENDROOT
BRANCH  11  13
ATOM     12  O   UNL     1      34.104 -12.201 -23.716  0.00  0.00    -0.244 OA
ATOM     13  C   UNL     1      33.675 -13.052 -22.942  0.00  0.00    +0.349 C 
BRANCH  13  14
ATOM     14  O   UNL     1      32.834 -12.848 -21.890  0.00  0.00    -0.440 OA
BRANCH  14  15
ATOM     15  C   UNL     1      31.753 -11.940 -22.124  0.00  0.00    +0.235 C 
BRANCH  15  16
ATOM     16  C   UNL     1      31.767 -10.880 -21.061  0.00  0.00    +0.021 C 
ATOM     17  C   UNL     1      31.896  -9.544 -21.422  0.00  0.00    -0.001 C 
ATOM     18  C   UNL     1      31.651 -11.245 -19.724  0.00  0.00    -0.001 C 
ATOM     19  C   UNL     1      31.908  -8.559 -20.434  0.00  0.00    -0.000 C 
ATOM     20  C   UNL     1      31.663 -10.259 -18.736  0.00  0.00    -0.000 C 
ATOM     21  C   UNL     1      31.792  -8.917 -19.092  0.00  0.00    -0.000 C 
ENDBRANCH  15  16
ENDBRANCH  14  15
ENDBRANCH  13  14
ENDBRANCH  11  13
BRANCH   4  22
ATOM     22  C   UNL     1      36.044 -19.811 -21.286  0.00  0.00    +0.129 C 
BRANCH  22  23
ATOM     23  C   UNL     1      35.011 -20.535 -20.473  0.00  0.00    -0.002 C 
ATOM     24  C   UNL     1      35.406 -21.543 -19.601  0.00  0.00    -0.003 C 
ATOM     25  C   UNL     1      33.671 -20.190 -20.599  0.00  0.00    -0.003 C 
ATOM     26  C   UNL     1      34.446 -22.217 -18.845  0.00  0.00    -0.000 C 
ATOM     27  C   UNL     1      32.711 -20.863 -19.842  0.00  0.00    -0.000 C 
ATOM     28  C   UNL     1      33.099 -21.876 -18.965  0.00  0.00    -0.000 C 
ENDBRANCH  22  23
ENDBRANCH   4  22
TORSDOF 6
ENDMDL
MODEL 2
REMARK VINA RESULT:     -11.5      3.970      9.615
REMARK  Name = 9896504
REMARK  6 active torsions:
REMARK  status: ('A' for Active; 'I' for Inactive)
REMARK    1  A    between atoms: N_4  and  C_22
REMARK    2  A    between atoms: C_11  and  C_13
REMARK    3  A    between atoms: C_13  and  O_14
REMARK    4  A    between atoms: O_14  and  C_15
REMARK    5  A    between atoms: C_15  and  C_16
REMARK    6  A    between atoms: C_22  and  C_23
REMARK                            x       y       z     vdW  Elec       q    Type
REMARK                         _______ _______ _______ _____ _____    ______ ____
ROOT
ATOM      1  S   UNL     1      36.037 -22.120 -18.173  0.00  0.00    -0.064 S 
ATOM      2  O   UNL     1      33.540 -19.864 -21.755  0.00  0.00    -0.251 OA
ATOM      3  O   UNL     1      38.019 -18.599 -21.226  0.00  0.00    -0.269 OA
ATOM      4  N   UNL     1      35.776 -19.194 -21.550  0.00  0.00    -0.206 N 
ATOM      5  N   UNL     1      34.859 -20.826 -20.121  0.00  0.00    -0.214 N 
ATOM      6  C   UNL     1      36.063 -20.950 -19.465  0.00  0.00    +0.094 C 
ATOM      7  C   UNL     1      34.631 -19.958 -21.188  0.00  0.00    +0.321 C 
ATOM      8  C   UNL     1      37.032 -19.266 -20.920  0.00  0.00    +0.258 C 
ATOM      9  C   UNL     1      37.137 -20.234 -19.800  0.00  0.00    +0.080 C 
ATOM     10  C   UNL     1      33.930 -21.677 -19.570  0.00  0.00    +0.087 C 
ATOM     11  C   UNL     1      34.385 -22.412 -18.555  0.00  0.00    +0.122 C 
ENDROOT
BRANCH  11  13
ATOM     12  O   UNL     1      33.497 -24.566 -18.118  0.00  0.00    -0.244 OA
ATOM     13  C   UNL     1      33.599 -23.381 -17.811  0.00  0.00    +0.349 C 
BRANCH  13  14
ATOM     14  O   UNL     1      33.014 -22.761 -16.749  0.00  0.00    -0.440 OA
BRANCH  14  15
ATOM     15  C   UNL     1      32.709 -23.599 -15.630  0.00  0.00    +0.235 C 
BRANCH  15  16
ATOM     16  C   UNL     1      31.221 -23.778 -15.544  0.00  0.00    +0.021 C 
ATOM     17  C   UNL     1      30.696 -24.833 -14.808  0.00  0.00    -0.001 C 
ATOM     18  C   UNL     1      30.382 -22.886 -16.202  0.00  0.00    -0.001 C 
ATOM     19  C   UNL     1      29.313 -24.999 -14.728  0.00  0.00    -0.000 C 
ATOM     20  C   UNL     1      28.999 -23.052 -16.121  0.00  0.00    -0.000 C 
ATOM     21  C   UNL     1      28.465 -24.109 -15.384  0.00  0.00    -0.000 C 
ENDBRANCH  15  16
ENDBRANCH  14  15
ENDBRANCH  13  14
ENDBRANCH  11  13
BRANCH   4  22
ATOM     22  C   UNL     1      35.657 -18.251 -22.656  0.00  0.00    +0.129 C 
BRANCH  22  23
ATOM     23  C   UNL     1      35.175 -16.905 -22.198  0.00  0.00    -0.002 C 
ATOM     24  C   UNL     1      34.970 -16.673 -20.843  0.00  0.00    -0.003 C 
ATOM     25  C   UNL     1      34.940 -15.904 -23.133  0.00  0.00    -0.003 C 
ATOM     26  C   UNL     1      34.522 -15.423 -20.416  0.00  0.00    -0.000 C 
ATOM     27  C   UNL     1      34.492 -14.653 -22.706  0.00  0.00    -0.000 C 
ATOM     28  C   UNL     1      34.283 -14.413 -21.348  0.00  0.00    -0.000 C 
ENDBRANCH  22  23
ENDBRANCH   4  22
TORSDOF 6
ENDMDL
MODEL 3
REMARK VINA RESULT:     -11.3      2.181      9.487
REMARK  Name = 9896504
REMARK  6 active torsions:
REMARK  status: ('A' for Active; 'I' for Inactive)
REMARK    1  A    between atoms: N_4  and  C_22
REMARK    2  A    between atoms: C_11  and  C_13
REMARK    3  A    between atoms: C_13  and  O_14
REMARK    4  A    between atoms: O_14  and  C_15
REMARK    5  A    between atoms: C_15  and  C_16
REMARK    6  A    between atoms: C_22  and  C_23
REMARK                            x       y       z     vdW  Elec       q    Type
REMARK                         _______ _______ _______ _____ _____    ______ ____
ROOT
ATOM      1  S   UNL     1      34.054 -15.565 -20.243  0.00  0.00    -0.064 S 
ATOM      2  O   UNL     1      33.169 -12.632 -24.086  0.00  0.00    -0.251 OA
ATOM      3  O   UNL     1      31.550 -11.173 -19.940  0.00  0.00    -0.269 OA
ATOM      4  N   UNL     1      32.342 -11.841 -22.042  0.00  0.00    -0.206 N 
ATOM      5  N   UNL     1      33.498 -13.888 -22.176  0.00  0.00    -0.214 N 
ATOM      6  C   UNL     1      33.344 -14.082 -20.822  0.00  0.00    +0.094 C 
ATOM      7  C   UNL     1      33.019 -12.778 -22.871  0.00  0.00    +0.321 C 
ATOM      8  C   UNL     1      32.144 -11.979 -20.656  0.00  0.00    +0.258 C 
ATOM      9  C   UNL     1      32.708 -13.207 -20.043  0.00  0.00    +0.080 C 
ATOM     10  C   UNL     1      34.187 -14.942 -22.730  0.00  0.00    +0.087 C 
ATOM     11  C   UNL     1      34.543 -15.888 -21.861  0.00  0.00    +0.122 C 
ENDROOT
BRANCH  11  13
ATOM     12  O   UNL     1      35.598 -17.407 -23.344  0.00  0.00    -0.244 OA
ATOM     13  C   UNL     1      35.276 -17.096 -22.200  0.00  0.00    +0.349 C 
BRANCH  13  14
ATOM     14  O   UNL     1      35.533 -17.798 -21.062  0.00  0.00    -0.440 OA
BRANCH  14  15
ATOM     15  C   UNL     1      36.130 -19.085 -21.245  0.00  0.00    +0.235 C 
BRANCH  15  16
ATOM     16  C   UNL     1      35.328 -20.107 -20.494  0.00  0.00    +0.021 C 
ATOM     17  C   UNL     1      33.942 -20.112 -20.602  0.00  0.00    -0.001 C 
ATOM     18  C   UNL     1      35.978 -21.041 -19.694  0.00  0.00    -0.001 C 
ATOM     19  C   UNL     1      33.197 -21.062 -19.904  0.00  0.00    -0.000 C 
ATOM     20  C   UNL     1      35.233 -21.991 -18.996  0.00  0.00    -0.000 C 
ATOM     21  C   UNL     1      33.843 -22.001 -19.101  0.00  0.00    -0.000 C 
ENDBRANCH  15  16
ENDBRANCH  14  15
ENDBRANCH  13  14
ENDBRANCH  11  13
BRANCH   4  22
ATOM     22  C   UNL     1      31.798 -10.636 -22.659  0.00  0.00    +0.129 C 
BRANCH  22  23
ATOM     23  C   UNL     1      32.762  -9.487 -22.593  0.00  0.00    -0.002 C 
ATOM     24  C   UNL     1      33.863  -9.464 -23.440  0.00  0.00    -0.003 C 
ATOM     25  C   UNL     1      32.541  -8.456 -21.687  0.00  0.00    -0.003 C 
ATOM     26  C   UNL     1      34.759  -8.396 -23.379  0.00  0.00    -0.000 C 
ATOM     27  C   UNL     1      33.436  -7.388 -21.627  0.00  0.00    -0.000 C 
ATOM     28  C   UNL     1      34.545  -7.358 -22.473  0.00  0.00    -0.000 C 
ENDBRANCH  22  23
ENDBRANCH   4  22
TORSDOF 6
ENDMDL
MODEL 4
REMARK VINA RESULT:     -11.1      4.077     10.320
REMARK  Name = 9896504
REMARK  6 active torsions:
REMARK  status: ('A' for Active; 'I' for Inactive)
REMARK    1  A    between atoms: N_4  and  C_22
REMARK    2  A    between atoms: C_11  and  C_13
REMARK    3  A    between atoms: C_13  and  O_14
REMARK    4  A    between atoms: O_14  and  C_15
REMARK    5  A    between atoms: C_15  and  C_16
REMARK    6  A    between atoms: C_22  and  C_23
REMARK                            x       y       z     vdW  Elec       q    Type
REMARK                         _______ _______ _______ _____ _____    ______ ____
ROOT
ATOM      1  S   UNL     1      35.976 -22.035 -18.126  0.00  0.00    -0.064 S 
ATOM      2  O   UNL     1      33.478 -19.744 -21.685  0.00  0.00    -0.251 OA
ATOM      3  O   UNL     1      38.033 -18.709 -21.343  0.00  0.00    -0.269 OA
ATOM      4  N   UNL     1      35.751 -19.190 -21.574  0.00  0.00    -0.206 N 
ATOM      5  N   UNL     1      34.800 -20.731 -20.069  0.00  0.00    -0.214 N 
ATOM      6  C   UNL     1      36.019 -20.903 -19.451  0.00  0.00    +0.094 C 
ATOM      7  C   UNL     1      34.581 -19.881 -21.152  0.00  0.00    +0.321 C 
ATOM      8  C   UNL     1      37.023 -19.313 -20.985  0.00  0.00    +0.258 C 
ATOM      9  C   UNL     1      37.116 -20.255 -19.842  0.00  0.00    +0.080 C 
ATOM     10  C   UNL     1      33.847 -21.516 -19.463  0.00  0.00    +0.087 C 
ATOM     11  C   UNL     1      34.298 -22.248 -18.444  0.00  0.00    +0.122 C 
ENDROOT
BRANCH  11  13
ATOM     12  O   UNL     1      32.263 -23.101 -17.580  0.00  0.00    -0.244 OA
ATOM     13  C   UNL     1      33.488 -23.152 -17.647  0.00  0.00    +0.349 C 
BRANCH  13  14
ATOM     14  O   UNL     1      34.303 -24.038 -17.009  0.00  0.00    -0.440 OA
BRANCH  14  15
ATOM     15  C   UNL     1      34.361 -23.917 -15.585  0.00  0.00    +0.235 C 
BRANCH  15  16
ATOM     16  C   UNL     1      35.625 -24.558 -15.091  0.00  0.00    +0.021 C 
ATOM     17  C   UNL     1      36.774 -23.790 -14.943  0.00  0.00    -0.001 C 
ATOM     18  C   UNL     1      35.636 -25.915 -14.786  0.00  0.00    -0.001 C 
ATOM     19  C   UNL     1      37.949 -24.386 -14.484  0.00  0.00    -0.000 C 
ATOM     20  C   UNL     1      36.811 -26.510 -14.326  0.00  0.00    -0.000 C 
ATOM     21  C   UNL     1      37.967 -25.745 -14.175  0.00  0.00    -0.000 C 
ENDBRANCH  15  16
ENDBRANCH  14  15
ENDBRANCH  13  14
ENDBRANCH  11  13
BRANCH   4  22
ATOM     22  C   UNL     1      35.644 -18.272 -22.702  0.00  0.00    +0.129 C 
BRANCH  22  23
ATOM     23  C   UNL     1      35.170 -16.912 -22.277  0.00  0.00    -0.002 C 
ATOM     24  C   UNL     1      34.929 -15.937 -23.237  0.00  0.00    -0.003 C 
ATOM     25  C   UNL     1      34.975 -16.643 -20.928  0.00  0.00    -0.003 C 
ATOM     26  C   UNL     1      34.489 -14.673 -22.843  0.00  0.00    -0.000 C 
ATOM     27  C   UNL     1      34.534 -15.380 -20.533  0.00  0.00    -0.000 C 
ATOM     28  C   UNL     1      34.291 -14.395 -21.491  0.00  0.00    -0.000 C 
ENDBRANCH  22  23
ENDBRANCH   4  22
TORSDOF 6
ENDMDL
MODEL 5
REMARK VINA RESULT:     -10.7      3.967      9.867
REMARK  Name = 9896504
REMARK  6 active torsions:
REMARK  status: ('A' for Active; 'I' for Inactive)
REMARK    1  A    between atoms: N_4  and  C_22
REMARK    2  A    between atoms: C_11  and  C_13
REMARK    3  A    between atoms: C_13  and  O_14
REMARK    4  A    between atoms: O_14  and  C_15
REMARK    5  A    between atoms: C_15  and  C_16
REMARK    6  A    between atoms: C_22  and  C_23
REMARK                            x       y       z     vdW  Elec       q    Type
REMARK                         _______ _______ _______ _____ _____    ______ ____
ROOT
ATOM      1  S   UNL     1      34.324 -22.438 -18.521  0.00  0.00    -0.064 S 
ATOM      2  O   UNL     1      37.588 -19.162 -20.185  0.00  0.00    -0.251 OA
ATOM      3  O   UNL     1      33.588 -19.522 -22.596  0.00  0.00    -0.269 OA
ATOM      4  N   UNL     1      35.606 -19.286 -21.429  0.00  0.00    -0.206 N 
ATOM      5  N   UNL     1      35.945 -20.651 -19.540  0.00  0.00    -0.214 N 
ATOM      6  C   UNL     1      34.707 -21.229 -19.717  0.00  0.00    +0.094 C 
ATOM      7  C   UNL     1      36.474 -19.660 -20.365  0.00  0.00    +0.321 C 
ATOM      8  C   UNL     1      34.335 -19.838 -21.671  0.00  0.00    +0.258 C 
ATOM      9  C   UNL     1      33.893 -20.883 -20.714  0.00  0.00    +0.080 C 
ATOM     10  C   UNL     1      36.569 -21.195 -18.441  0.00  0.00    +0.087 C 
ATOM     11  C   UNL     1      35.860 -22.131 -17.809  0.00  0.00    +0.122 C 
ENDROOT
BRANCH  11  13
ATOM     12  O   UNL     1      37.434 -22.777 -16.159  0.00  0.00    -0.244 OA
ATOM     13  C   UNL     1      36.301 -22.851 -16.627  0.00  0.00    +0.349 C 
BRANCH  13  14
ATOM     14  O   UNL     1      35.268 -23.596 -16.146  0.00  0.00    -0.440 OA
BRANCH  14  15
ATOM     15  C   UNL     1      34.844 -23.286 -14.815  0.00  0.00    +0.235 C 
BRANCH  15  16
ATOM     16  C   UNL     1      33.474 -23.860 -14.592  0.00  0.00    +0.021 C 
ATOM     17  C   UNL     1      33.265 -24.760 -13.555  0.00  0.00    -0.001 C 
ATOM     18  C   UNL     1      32.427 -23.485 -15.427  0.00  0.00    -0.001 C 
ATOM     19  C   UNL     1      31.992 -25.293 -13.348  0.00  0.00    -0.000 C 
ATOM     20  C   UNL     1      31.154 -24.018 -15.220  0.00  0.00    -0.000 C 
ATOM     21  C   UNL     1      30.938 -24.921 -14.180  0.00  0.00    -0.000 C 
ENDBRANCH  15  16
ENDBRANCH  14  15
ENDBRANCH  13  14
ENDBRANCH  11  13
BRANCH   4  22
ATOM     22  C   UNL     1      36.053 -18.254 -22.357  0.00  0.00    +0.129 C 
BRANCH  22  23
ATOM     23  C   UNL     1      35.371 -16.941 -22.109  0.00  0.00    -0.002 C 
ATOM     24  C   UNL     1      35.073 -16.557 -20.807  0.00  0.00    -0.003 C 
ATOM     25  C   UNL     1      35.045 -16.121 -23.183  0.00  0.00    -0.003 C 
ATOM     26  C   UNL     1      34.438 -15.336 -20.575  0.00  0.00    -0.000 C 
ATOM     27  C   UNL     1      34.412 -14.900 -22.951  0.00  0.00    -0.000 C 
ATOM     28  C   UNL     1      34.108 -14.508 -21.647  0.00  0.00    -0.000 C 
ENDBRANCH  22  23
ENDBRANCH   4  22
TORSDOF 6
ENDMDL
MODEL 6
REMARK VINA RESULT:     -10.5      1.399      2.165
REMARK  Name = 9896504
REMARK  6 active torsions:
REMARK  status: ('A' for Active; 'I' for Inactive)
REMARK    1  A    between atoms: N_4  and  C_22
REMARK    2  A    between atoms: C_11  and  C_13
REMARK    3  A    between atoms: C_13  and  O_14
REMARK    4  A    between atoms: O_14  and  C_15
REMARK    5  A    between atoms: C_15  and  C_16
REMARK    6  A    between atoms: C_22  and  C_23
REMARK                            x       y       z     vdW  Elec       q    Type
REMARK                         _______ _______ _______ _____ _____    ______ ____
ROOT
ATOM      1  S   UNL     1      33.138 -14.344 -24.017  0.00  0.00    -0.064 S 
ATOM      2  O   UNL     1      35.262 -16.535 -20.166  0.00  0.00    -0.251 OA
ATOM      3  O   UNL     1      35.301 -18.919 -24.198  0.00  0.00    -0.269 OA
ATOM      4  N   UNL     1      35.324 -17.775 -22.153  0.00  0.00    -0.206 N 
ATOM      5  N   UNL     1      34.309 -15.652 -22.075  0.00  0.00    -0.214 N 
ATOM      6  C   UNL     1      33.985 -15.741 -23.410  0.00  0.00    +0.094 C 
ATOM      7  C   UNL     1      34.987 -16.640 -21.363  0.00  0.00    +0.321 C 
ATOM      8  C   UNL     1      35.018 -17.934 -23.517  0.00  0.00    +0.258 C 
ATOM      9  C   UNL     1      34.296 -16.804 -24.152  0.00  0.00    +0.080 C 
ATOM     10  C   UNL     1      33.867 -14.456 -21.559  0.00  0.00    +0.087 C 
ATOM     11  C   UNL     1      33.244 -13.670 -22.438  0.00  0.00    +0.122 C 
ENDROOT
BRANCH  11  13
ATOM     12  O   UNL     1      31.834 -12.158 -21.278  0.00  0.00    -0.244 OA
ATOM     13  C   UNL     1      32.689 -12.362 -22.136  0.00  0.00    +0.349 C 
BRANCH  13  14
ATOM     14  O   UNL     1      33.266 -11.434 -22.947  0.00  0.00    -0.440 OA
BRANCH  14  15
ATOM     15  C   UNL     1      32.392 -10.424 -23.460  0.00  0.00    +0.235 C 
BRANCH  15  16
ATOM     16  C   UNL     1      32.628  -9.146 -22.709  0.00  0.00    +0.021 C 
ATOM     17  C   UNL     1      31.658  -8.674 -21.832  0.00  0.00    -0.001 C 
ATOM     18  C   UNL     1      33.814  -8.445 -22.897  0.00  0.00    -0.001 C 
ATOM     19  C   UNL     1      31.877  -7.486 -21.133  0.00  0.00    -0.000 C 
ATOM     20  C   UNL     1      34.033  -7.257 -22.199  0.00  0.00    -0.000 C 
ATOM     21  C   UNL     1      33.065  -6.779 -21.317  0.00  0.00    -0.000 C 
ENDBRANCH  15  16
ENDBRANCH  14  15
ENDBRANCH  13  14
ENDBRANCH  11  13
BRANCH   4  22
ATOM     22  C   UNL     1      36.038 -18.875 -21.515  0.00  0.00    +0.129 C 
BRANCH  22  23
ATOM     23  C   UNL     1      35.106 -19.813 -20.804  0.00  0.00    -0.002 C 
ATOM     24  C   UNL     1      33.735 -19.700 -21.001  0.00  0.00    -0.003 C 
ATOM     25  C   UNL     1      35.624 -20.786 -19.957  0.00  0.00    -0.003 C 
ATOM     26  C   UNL     1      32.868 -20.572 -20.341  0.00  0.00    -0.000 C 
ATOM     27  C   UNL     1      34.757 -21.658 -19.297  0.00  0.00    -0.000 C 
ATOM     28  C   UNL     1      33.380 -21.550 -19.489  0.00  0.00    -0.000 C 
ENDBRANCH  22  23
ENDBRANCH   4  22
TORSDOF 6
ENDMDL
MODEL 7
REMARK VINA RESULT:     -10.4      4.542     10.630
REMARK  Name = 9896504
REMARK  6 active torsions:
REMARK  status: ('A' for Active; 'I' for Inactive)
REMARK    1  A    between atoms: N_4  and  C_22
REMARK    2  A    between atoms: C_11  and  C_13
REMARK    3  A    between atoms: C_13  and  O_14
REMARK    4  A    between atoms: O_14  and  C_15
REMARK    5  A    between atoms: C_15  and  C_16
REMARK    6  A    between atoms: C_22  and  C_23
REMARK                            x       y       z     vdW  Elec       q    Type
REMARK                         _______ _______ _______ _____ _____    ______ ____
ROOT
ATOM      1  S   UNL     1      34.604 -22.413 -18.307  0.00  0.00    -0.064 S 
ATOM      2  O   UNL     1      37.652 -19.114 -20.301  0.00  0.00    -0.251 OA
ATOM      3  O   UNL     1      33.515 -19.675 -22.426  0.00  0.00    -0.269 OA
ATOM      4  N   UNL     1      35.597 -19.339 -21.405  0.00  0.00    -0.206 N 
ATOM      5  N   UNL     1      36.100 -20.622 -19.495  0.00  0.00    -0.214 N 
ATOM      6  C   UNL     1      34.871 -21.240 -19.568  0.00  0.00    +0.094 C 
ATOM      7  C   UNL     1      36.544 -19.648 -20.388  0.00  0.00    +0.321 C 
ATOM      8  C   UNL     1      34.330 -19.935 -21.542  0.00  0.00    +0.258 C 
ATOM      9  C   UNL     1      33.984 -20.954 -20.521  0.00  0.00    +0.080 C 
ATOM     10  C   UNL     1      36.810 -21.107 -18.421  0.00  0.00    +0.087 C 
ATOM     11  C   UNL     1      36.173 -22.037 -17.710  0.00  0.00    +0.122 C 
ENDROOT
BRANCH  11  13
ATOM     12  O   UNL     1      37.824 -22.471 -16.066  0.00  0.00    -0.244 OA
ATOM     13  C   UNL     1      36.712 -22.699 -16.535  0.00  0.00    +0.349 C 
BRANCH  13  14
ATOM     14  O   UNL     1      35.795 -23.588 -16.062  0.00  0.00    -0.440 OA
BRANCH  14  15
ATOM     15  C   UNL     1      35.450 -23.451 -14.680  0.00  0.00    +0.235 C 
BRANCH  15  16
ATOM     16  C   UNL     1      36.287 -24.398 -13.871  0.00  0.00    +0.021 C 
ATOM     17  C   UNL     1      36.382 -25.731 -14.252  0.00  0.00    -0.001 C 
ATOM     18  C   UNL     1      36.960 -23.933 -12.747  0.00  0.00    -0.001 C 
ATOM     19  C   UNL     1      37.160 -26.611 -13.500  0.00  0.00    -0.000 C 
ATOM     20  C   UNL     1      37.739 -24.813 -11.994  0.00  0.00    -0.000 C 
ATOM     21  C   UNL     1      37.838 -26.152 -12.372  0.00  0.00    -0.000 C 
ENDBRANCH  15  16
ENDBRANCH  14  15
ENDBRANCH  13  14
ENDBRANCH  11  13
BRANCH   4  22
ATOM     22  C   UNL     1      35.952 -18.331 -22.397  0.00  0.00    +0.129 C 
BRANCH  22  23
ATOM     23  C   UNL     1      35.314 -17.004 -22.103  0.00  0.00    -0.002 C 
ATOM     24  C   UNL     1      34.970 -16.159 -23.151  0.00  0.00    -0.003 C 
ATOM     25  C   UNL     1      35.073 -16.635 -20.785  0.00  0.00    -0.003 C 
ATOM     26  C   UNL     1      34.377 -14.926 -22.878  0.00  0.00    -0.000 C 
ATOM     27  C   UNL     1      34.479 -15.402 -20.512  0.00  0.00    -0.000 C 
ATOM     28  C   UNL     1      34.132 -14.548 -21.558  0.00  0.00    -0.000 C 
ENDBRANCH  22  23
ENDBRANCH   4  22
TORSDOF 6
ENDMDL
MODEL 8
REMARK VINA RESULT:     -10.3      3.869     10.632
REMARK  Name = 9896504
REMARK  6 active torsions:
REMARK  status: ('A' for Active; 'I' for Inactive)
REMARK    1  A    between atoms: N_4  and  C_22
REMARK    2  A    between atoms: C_11  and  C_13
REMARK    3  A    between atoms: C_13  and  O_14
REMARK    4  A    between atoms: O_14  and  C_15
REMARK    5  A    between atoms: C_15  and  C_16
REMARK    6  A    between atoms: C_22  and  C_23
REMARK                            x       y       z     vdW  Elec       q    Type
REMARK                         _______ _______ _______ _____ _____    ______ ____
ROOT
ATOM      1  S   UNL     1      31.856 -12.385 -22.484  0.00  0.00    -0.064 S 
ATOM      2  O   UNL     1      35.414  -9.317 -23.926  0.00  0.00    -0.251 OA
ATOM      3  O   UNL     1      32.071  -7.491 -21.200  0.00  0.00    -0.269 OA
ATOM      4  N   UNL     1      33.779  -8.344 -22.558  0.00  0.00    -0.206 N 
ATOM      5  N   UNL     1      33.668 -10.619 -23.158  0.00  0.00    -0.214 N 
ATOM      6  C   UNL     1      32.505 -10.768 -22.436  0.00  0.00    +0.094 C 
ATOM      7  C   UNL     1      34.375  -9.423 -23.270  0.00  0.00    +0.321 C 
ATOM      8  C   UNL     1      32.592  -8.425 -21.808  0.00  0.00    +0.258 C 
ATOM      9  C   UNL     1      31.943  -9.759 -21.770  0.00  0.00    +0.080 C 
ATOM     10  C   UNL     1      34.020 -11.814 -23.742  0.00  0.00    +0.087 C 
ATOM     11  C   UNL     1      33.184 -12.821 -23.488  0.00  0.00    +0.122 C 
ENDROOT
BRANCH  11  13
ATOM     12  O   UNL     1      33.168 -14.499 -25.162  0.00  0.00    -0.244 OA
ATOM     13  C   UNL     1      33.338 -14.176 -23.990  0.00  0.00    +0.349 C 
BRANCH  13  14
ATOM     14  O   UNL     1      33.693 -14.995 -22.962  0.00  0.00    -0.440 OA
BRANCH  14  15
ATOM     15  C   UNL     1      35.019 -15.529 -23.020  0.00  0.00    +0.235 C 
BRANCH  15  16
ATOM     16  C   UNL     1      34.959 -17.013 -22.804  0.00  0.00    +0.021 C 
ATOM     17  C   UNL     1      35.371 -17.550 -21.590  0.00  0.00    -0.001 C 
ATOM     18  C   UNL     1      34.492 -17.839 -23.821  0.00  0.00    -0.001 C 
ATOM     19  C   UNL     1      35.314 -18.930 -21.389  0.00  0.00    -0.000 C 
ATOM     20  C   UNL     1      34.435 -19.218 -23.621  0.00  0.00    -0.000 C 
ATOM     21  C   UNL     1      34.846 -19.762 -22.404  0.00  0.00    -0.000 C 
ENDBRANCH  15  16
ENDBRANCH  14  15
ENDBRANCH  13  14
ENDBRANCH  11  13
BRANCH   4  22
ATOM     22  C   UNL     1      34.433  -7.041 -22.601  0.00  0.00    +0.129 C 
BRANCH  22  23
ATOM     23  C   UNL     1      34.164  -6.321 -23.890  0.00  0.00    -0.002 C 
ATOM     24  C   UNL     1      35.216  -6.047 -24.756  0.00  0.00    -0.003 C 
ATOM     25  C   UNL     1      32.866  -5.937 -24.206  0.00  0.00    -0.003 C 
ATOM     26  C   UNL     1      34.968  -5.377 -25.955  0.00  0.00    -0.000 C 
ATOM     27  C   UNL     1      32.617  -5.268 -25.405  0.00  0.00    -0.000 C 
ATOM     28  C   UNL     1      33.668  -4.988 -26.279  0.00  0.00    -0.000 C 
ENDBRANCH  22  23
ENDBRANCH   4  22
TORSDOF 6
ENDMDL
MODEL 9
REMARK VINA RESULT:     -10.1      4.002     10.699
REMARK  Name = 9896504
REMARK  6 active torsions:
REMARK  status: ('A' for Active; 'I' for Inactive)
REMARK    1  A    between atoms: N_4  and  C_22
REMARK    2  A    between atoms: C_11  and  C_13
REMARK    3  A    between atoms: C_13  and  O_14
REMARK    4  A    between atoms: O_14  and  C_15
REMARK    5  A    between atoms: C_15  and  C_16
REMARK    6  A    between atoms: C_22  and  C_23
REMARK                            x       y       z     vdW  Elec       q    Type
REMARK                         _______ _______ _______ _____ _____    ______ ____
ROOT
ATOM      1  S   UNL     1      32.071 -11.183 -19.502  0.00  0.00    -0.064 S 
ATOM      2  O   UNL     1      31.823  -9.479 -24.105  0.00  0.00    -0.251 OA
ATOM      3  O   UNL     1      31.532  -6.289 -20.688  0.00  0.00    -0.269 OA
ATOM      4  N   UNL     1      31.681  -7.833 -22.444  0.00  0.00    -0.206 N 
ATOM      5  N   UNL     1      31.923 -10.107 -21.885  0.00  0.00    -0.214 N 
ATOM      6  C   UNL     1      31.910  -9.795 -20.544  0.00  0.00    +0.094 C 
ATOM      7  C   UNL     1      31.812  -9.170 -22.911  0.00  0.00    +0.321 C 
ATOM      8  C   UNL     1      31.654  -7.444 -21.092  0.00  0.00    +0.258 C 
ATOM      9  C   UNL     1      31.785  -8.543 -20.103  0.00  0.00    +0.080 C 
ATOM     10  C   UNL     1      32.061 -11.466 -22.054  0.00  0.00    +0.087 C 
ATOM     11  C   UNL     1      32.150 -12.158 -20.918  0.00  0.00    +0.122 C 
ENDROOT
BRANCH  11  13
ATOM     12  O   UNL     1      31.977 -14.270 -19.856  0.00  0.00    -0.244 OA
ATOM     13  C   UNL     1      32.300 -13.601 -20.833  0.00  0.00    +0.349 C 
BRANCH  13  14
ATOM     14  O   UNL     1      32.844 -14.062 -21.993  0.00  0.00    -0.440 OA
BRANCH  14  15
ATOM     15  C   UNL     1      34.269 -14.189 -22.006  0.00  0.00    +0.235 C 
BRANCH  15  16
ATOM     16  C   UNL     1      34.630 -15.633 -22.197  0.00  0.00    +0.021 C 
ATOM     17  C   UNL     1      34.969 -16.410 -21.096  0.00  0.00    -0.001 C 
ATOM     18  C   UNL     1      34.623 -16.181 -23.475  0.00  0.00    -0.001 C 
ATOM     19  C   UNL     1      35.304 -17.753 -21.274  0.00  0.00    -0.000 C 
ATOM     20  C   UNL     1      34.958 -17.523 -23.654  0.00  0.00    -0.000 C 
ATOM     21  C   UNL     1      35.298 -18.309 -22.553  0.00  0.00    -0.000 C 
ENDBRANCH  15  16
ENDBRANCH  14  15
ENDBRANCH  13  14
ENDBRANCH  11  13
BRANCH   4  22
ATOM     22  C   UNL     1      31.559  -6.764 -23.429  0.00  0.00    +0.129 C 
BRANCH  22  23
ATOM     23  C   UNL     1      32.879  -6.425 -24.057  0.00  0.00    -0.002 C 
ATOM     24  C   UNL     1      32.910  -5.741 -25.267  0.00  0.00    -0.003 C 
ATOM     25  C   UNL     1      34.058  -6.796 -23.422  0.00  0.00    -0.003 C 
ATOM     26  C   UNL     1      34.137  -5.425 -25.851  0.00  0.00    -0.000 C 
ATOM     27  C   UNL     1      35.285  -6.479 -24.005  0.00  0.00    -0.000 C 
ATOM     28  C   UNL     1      35.324  -5.794 -25.220  0.00  0.00    -0.000 C 
ENDBRANCH  22  23
ENDBRANCH   4  22
TORSDOF 6
ENDMDL
