MODEL 1
REMARK VINA RESULT:     -12.8      0.000      0.000
REMARK  Name = 23635314
REMARK  9 active torsions:
REMARK  status: ('A' for Active; 'I' for Inactive)
REMARK    1  A    between atoms: C_2  and  C_8
REMARK    2  A    between atoms: C_3  and  C_23
REMARK    3  A    between atoms: C_7  and  O_13
REMARK    4  A    between atoms: O_13  and  C_14
REMARK    5  A    between atoms: C_14  and  C_15
REMARK    6  A    between atoms: C_15  and  N_17
REMARK    7  A    between atoms: C_23  and  C_26
REMARK    8  A    between atoms: N_25  and  C_28
REMARK    9  A    between atoms: C_28  and  C_29
REMARK                            x       y       z     vdW  Elec       q    Type
REMARK                         _______ _______ _______ _____ _____    ______ ____
ROOT
ATOM      1  N   UNL     1      35.377 -17.189 -22.084  0.00  0.00    -0.248 NA
ATOM      2  C   UNL     1      34.790 -19.450 -21.469  0.00  0.00    +0.019 C 
ATOM      3  C   UNL     1      35.027 -17.495 -23.353  0.00  0.00    +0.068 C 
ATOM      4  C   UNL     1      34.440 -19.728 -22.785  0.00  0.00    +0.003 C 
ATOM      5  C   UNL     1      35.249 -18.178 -21.171  0.00  0.00    +0.098 C 
ATOM      6  C   UNL     1      34.559 -18.736 -23.751  0.00  0.00    +0.015 C 
ENDROOT
BRANCH   2   8
ATOM      7  C   UNL     1      34.463 -22.403 -18.461  0.00  0.00    +0.138 C 
ATOM      8  C   UNL     1      34.679 -20.460 -20.440  0.00  0.00    +0.002 C 
ATOM      9  C   UNL     1      35.721 -21.984 -18.881  0.00  0.00    +0.037 C 
ATOM     10  C   UNL     1      33.312 -21.861 -19.022  0.00  0.00    +0.037 C 
ATOM     11  C   UNL     1      35.829 -21.009 -19.873  0.00  0.00    +0.003 C 
ATOM     12  C   UNL     1      33.421 -20.886 -20.014  0.00  0.00    +0.003 C 
BRANCH   7  13
ATOM     13  O   UNL     1      34.357 -23.361 -17.487  0.00  0.00    -0.478 OA
BRANCH  13  14
ATOM     14  C   UNL     1      33.088 -23.501 -16.863  0.00  0.00    +0.183 C 
BRANCH  14  15
ATOM     15  C   UNL     1      33.282 -23.498 -15.355  0.00  0.00    -0.029 C 
BRANCH  15  17
ATOM     16  O   UNL     1      29.646 -25.148 -14.060  0.00  0.00    -0.358 OA
ATOM     17  N   UNL     1      32.003 -23.673 -14.670  0.00  0.00    +0.393 N 
ATOM     18  C   UNL     1      30.905 -23.801 -15.637  0.00  0.00    -0.044 C 
ATOM     19  C   UNL     1      32.039 -24.849 -13.790  0.00  0.00    -0.044 C 
ATOM     20  C   UNL     1      29.584 -23.993 -14.898  0.00  0.00    +0.119 C 
ATOM     21  C   UNL     1      30.691 -25.018 -13.094  0.00  0.00    +0.119 C 
ATOM     22  H   UNL     1      31.839 -22.844 -14.099  0.00  0.00    -0.079 HD
ENDBRANCH  15  17
ENDBRANCH  14  15
ENDBRANCH  13  14
ENDBRANCH   7  13
ENDBRANCH   2   8
BRANCH   3  23
ATOM     23  C   UNL     1      35.167 -16.407 -24.366  0.00  0.00    +0.131 C 
BRANCH  23  26
ATOM     24  O   UNL     1      33.070 -15.876 -25.456  0.00  0.00    -0.275 OA
ATOM     25  N   UNL     1      33.786 -14.546 -23.693  0.00  0.00    -0.300 N 
ATOM     26  C   UNL     1      33.892 -15.605 -24.584  0.00  0.00    +0.229 C 
ATOM     27  H   UNL     1      34.501 -14.413 -23.029  0.00  0.00    +0.150 HD
BRANCH  25  28
ATOM     28  C   UNL     1      32.667 -13.633 -23.699  0.00  0.00    +0.116 C 
BRANCH  28  29
ATOM     29  C   UNL     1      32.413 -13.047 -22.340  0.00  0.00    -0.003 C 
ATOM     30  C   UNL     1      32.647 -13.816 -21.206  0.00  0.00    -0.003 C 
ATOM     31  C   UNL     1      31.947 -11.742 -22.230  0.00  0.00    -0.003 C 
ATOM     32  C   UNL     1      32.411 -13.272 -19.943  0.00  0.00    -0.000 C 
ATOM     33  C   UNL     1      31.712 -11.198 -20.967  0.00  0.00    -0.000 C 
ATOM     34  C   UNL     1      31.943 -11.964 -19.823  0.00  0.00    -0.000 C 
ENDBRANCH  28  29
ENDBRANCH  25  28
ENDBRANCH  23  26
ENDBRANCH   3  23
TORSDOF 9
ENDMDL
MODEL 2
REMARK VINA RESULT:     -12.6      1.658      2.724
REMARK  Name = 23635314
REMARK  9 active torsions:
REMARK  status: ('A' for Active; 'I' for Inactive)
REMARK    1  A    between atoms: C_2  and  C_8
REMARK    2  A    between atoms: C_3  and  C_23
REMARK    3  A    between atoms: C_7  and  O_13
REMARK    4  A    between atoms: O_13  and  C_14
REMARK    5  A    between atoms: C_14  and  C_15
REMARK    6  A    between atoms: C_15  and  N_17
REMARK    7  A    between atoms: C_23  and  C_26
REMARK    8  A    between atoms: N_25  and  C_28
REMARK    9  A    between atoms: C_28  and  C_29
REMARK                            x       y       z     vdW  Elec       q    Type
REMARK                         _______ _______ _______ _____ _____    ______ ____
ROOT
ATOM      1  N   UNL     1      35.442 -17.273 -21.993  0.00  0.00    -0.248 NA
ATOM      2  C   UNL     1      34.678 -19.497 -21.443  0.00  0.00    +0.019 C 
ATOM      3  C   UNL     1      35.032 -17.498 -23.261  0.00  0.00    +0.068 C 
ATOM      4  C   UNL     1      34.270 -19.693 -22.756  0.00  0.00    +0.003 C 
ATOM      5  C   UNL     1      35.253 -18.281 -21.113  0.00  0.00    +0.098 C 
ATOM      6  C   UNL     1      34.448 -18.678 -23.690  0.00  0.00    +0.015 C 
ENDROOT
BRANCH   2   8
ATOM      7  C   UNL     1      34.177 -22.525 -18.536  0.00  0.00    +0.138 C 
ATOM      8  C   UNL     1      34.507 -20.533 -20.448  0.00  0.00    +0.002 C 
ATOM      9  C   UNL     1      35.456 -22.174 -18.951  0.00  0.00    +0.037 C 
ATOM     10  C   UNL     1      33.060 -21.890 -19.068  0.00  0.00    +0.037 C 
ATOM     11  C   UNL     1      35.622 -21.175 -19.910  0.00  0.00    +0.003 C 
ATOM     12  C   UNL     1      33.226 -20.891 -20.027  0.00  0.00    +0.003 C 
BRANCH   7  13
ATOM     13  O   UNL     1      34.014 -23.507 -17.594  0.00  0.00    -0.478 OA
BRANCH  13  14
ATOM     14  C   UNL     1      33.027 -23.281 -16.596  0.00  0.00    +0.183 C 
BRANCH  14  15
ATOM     15  C   UNL     1      33.641 -23.547 -15.232  0.00  0.00    -0.029 C 
BRANCH  15  17
ATOM     16  O   UNL     1      37.631 -24.480 -14.324  0.00  0.00    -0.358 OA
ATOM     17  N   UNL     1      35.030 -23.981 -15.366  0.00  0.00    +0.393 N 
ATOM     18  C   UNL     1      35.953 -22.884 -15.047  0.00  0.00    -0.044 C 
ATOM     19  C   UNL     1      35.302 -25.137 -14.499  0.00  0.00    -0.044 C 
ATOM     20  C   UNL     1      37.395 -23.365 -15.184  0.00  0.00    +0.119 C 
ATOM     21  C   UNL     1      36.759 -25.564 -14.648  0.00  0.00    +0.119 C 
ATOM     22  H   UNL     1      35.177 -24.260 -16.336  0.00  0.00    -0.079 HD
ENDBRANCH  15  17
ENDBRANCH  14  15
ENDBRANCH  13  14
ENDBRANCH   7  13
ENDBRANCH   2   8
BRANCH   3  23
ATOM     23  C   UNL     1      35.239 -16.387 -24.237  0.00  0.00    +0.131 C 
BRANCH  23  26
ATOM     24  O   UNL     1      33.273 -15.789 -25.518  0.00  0.00    -0.275 OA
ATOM     25  N   UNL     1      33.739 -14.620 -23.567  0.00  0.00    -0.300 N 
ATOM     26  C   UNL     1      33.978 -15.588 -24.533  0.00  0.00    +0.229 C 
ATOM     27  H   UNL     1      34.367 -14.540 -22.813  0.00  0.00    +0.150 HD
BRANCH  25  28
ATOM     28  C   UNL     1      32.605 -13.728 -23.624  0.00  0.00    +0.116 C 
BRANCH  28  29
ATOM     29  C   UNL     1      32.365 -13.041 -22.310  0.00  0.00    -0.003 C 
ATOM     30  C   UNL     1      31.916 -11.726 -22.294  0.00  0.00    -0.003 C 
ATOM     31  C   UNL     1      32.594 -13.728 -21.124  0.00  0.00    -0.003 C 
ATOM     32  C   UNL     1      31.693 -11.088 -21.074  0.00  0.00    -0.000 C 
ATOM     33  C   UNL     1      32.371 -13.090 -19.903  0.00  0.00    -0.000 C 
ATOM     34  C   UNL     1      31.921 -11.769 -19.879  0.00  0.00    -0.000 C 
ENDBRANCH  28  29
ENDBRANCH  25  28
ENDBRANCH  23  26
ENDBRANCH   3  23
TORSDOF 9
ENDMDL
MODEL 3
REMARK VINA RESULT:     -12.2      2.254     11.124
REMARK  Name = 23635314
REMARK  9 active torsions:
REMARK  status: ('A' for Active; 'I' for Inactive)
REMARK    1  A    between atoms: C_2  and  C_8
REMARK    2  A    between atoms: C_3  and  C_23
REMARK    3  A    between atoms: C_7  and  O_13
REMARK    4  A    between atoms: O_13  and  C_14
REMARK    5  A    between atoms: C_14  and  C_15
REMARK    6  A    between atoms: C_15  and  N_17
REMARK    7  A    between atoms: C_23  and  C_26
REMARK    8  A    between atoms: N_25  and  C_28
REMARK    9  A    between atoms: C_28  and  C_29
REMARK                            x       y       z     vdW  Elec       q    Type
REMARK                         _______ _______ _______ _____ _____    ______ ____
ROOT
ATOM      1  N   UNL     1      34.123 -23.973 -16.079  0.00  0.00    -0.248 NA
ATOM      2  C   UNL     1      35.080 -22.403 -17.646  0.00  0.00    +0.019 C 
ATOM      3  C   UNL     1      35.274 -23.896 -15.374  0.00  0.00    +0.068 C 
ATOM      4  C   UNL     1      36.248 -22.351 -16.896  0.00  0.00    +0.003 C 
ATOM      5  C   UNL     1      34.055 -23.221 -17.201  0.00  0.00    +0.098 C 
ATOM      6  C   UNL     1      36.355 -23.109 -15.736  0.00  0.00    +0.015 C 
ENDROOT
BRANCH   2   8
ATOM      7  C   UNL     1      34.664 -20.131 -21.187  0.00  0.00    +0.138 C 
ATOM      8  C   UNL     1      34.938 -21.626 -18.858  0.00  0.00    +0.002 C 
ATOM      9  C   UNL     1      35.933 -20.407 -20.691  0.00  0.00    +0.037 C 
ATOM     10  C   UNL     1      33.530 -20.594 -20.528  0.00  0.00    +0.037 C 
ATOM     11  C   UNL     1      36.071 -21.157 -19.523  0.00  0.00    +0.003 C 
ATOM     12  C   UNL     1      33.668 -21.344 -19.360  0.00  0.00    +0.003 C 
BRANCH   7  13
ATOM     13  O   UNL     1      34.529 -19.394 -22.334  0.00  0.00    -0.478 OA
BRANCH  13  14
ATOM     14  C   UNL     1      35.063 -18.076 -22.315  0.00  0.00    +0.183 C 
BRANCH  14  15
ATOM     15  C   UNL     1      34.894 -17.461 -23.695  0.00  0.00    -0.029 C 
BRANCH  15  17
ATOM     16  O   UNL     1      33.319 -13.640 -22.964  0.00  0.00    -0.358 OA
ATOM     17  N   UNL     1      34.763 -16.009 -23.600  0.00  0.00    +0.393 N 
ATOM     18  C   UNL     1      33.666 -15.526 -24.450  0.00  0.00    -0.044 C 
ATOM     19  C   UNL     1      34.542 -15.594 -22.207  0.00  0.00    -0.044 C 
ATOM     20  C   UNL     1      33.543 -14.010 -24.325  0.00  0.00    +0.119 C 
ATOM     21  C   UNL     1      34.397 -14.077 -22.135  0.00  0.00    +0.119 C 
ATOM     22  H   UNL     1      35.636 -15.595 -23.928  0.00  0.00    -0.079 HD
ENDBRANCH  15  17
ENDBRANCH  14  15
ENDBRANCH  13  14
ENDBRANCH   7  13
ENDBRANCH   2   8
BRANCH   3  23
ATOM     23  C   UNL     1      35.354 -24.725 -14.135  0.00  0.00    +0.131 C 
BRANCH  23  26
ATOM     24  O   UNL     1      34.096 -23.971 -12.207  0.00  0.00    -0.275 OA
ATOM     25  N   UNL     1      33.056 -25.353 -13.756  0.00  0.00    -0.300 N 
ATOM     26  C   UNL     1      34.122 -24.623 -13.248  0.00  0.00    +0.229 C 
ATOM     27  H   UNL     1      33.179 -25.844 -14.601  0.00  0.00    +0.150 HD
BRANCH  25  28
ATOM     28  C   UNL     1      31.773 -25.420 -13.095  0.00  0.00    +0.116 C 
BRANCH  28  29
ATOM     29  C   UNL     1      30.689 -24.772 -13.907  0.00  0.00    -0.003 C 
ATOM     30  C   UNL     1      30.675 -23.391 -14.056  0.00  0.00    -0.003 C 
ATOM     31  C   UNL     1      29.711 -25.561 -14.502  0.00  0.00    -0.003 C 
ATOM     32  C   UNL     1      29.667 -22.789 -14.811  0.00  0.00    -0.000 C 
ATOM     33  C   UNL     1      28.704 -24.959 -15.256  0.00  0.00    -0.000 C 
ATOM     34  C   UNL     1      28.682 -23.572 -15.410  0.00  0.00    -0.000 C 
ENDBRANCH  28  29
ENDBRANCH  25  28
ENDBRANCH  23  26
ENDBRANCH   3  23
TORSDOF 9
ENDMDL
MODEL 4
REMARK VINA RESULT:     -11.5      4.123      7.248
REMARK  Name = 23635314
REMARK  9 active torsions:
REMARK  status: ('A' for Active; 'I' for Inactive)
REMARK    1  A    between atoms: C_2  and  C_8
REMARK    2  A    between atoms: C_3  and  C_23
REMARK    3  A    between atoms: C_7  and  O_13
REMARK    4  A    between atoms: O_13  and  C_14
REMARK    5  A    between atoms: C_14  and  C_15
REMARK    6  A    between atoms: C_15  and  N_17
REMARK    7  A    between atoms: C_23  and  C_26
REMARK    8  A    between atoms: N_25  and  C_28
REMARK    9  A    between atoms: C_28  and  C_29
REMARK                            x       y       z     vdW  Elec       q    Type
REMARK                         _______ _______ _______ _____ _____    ______ ____
ROOT
ATOM      1  N   UNL     1      32.632 -11.210 -22.980  0.00  0.00    -0.248 NA
ATOM      2  C   UNL     1      33.172 -13.340 -21.978  0.00  0.00    +0.019 C 
ATOM      3  C   UNL     1      31.826 -10.971 -21.922  0.00  0.00    +0.068 C 
ATOM      4  C   UNL     1      32.334 -13.060 -20.906  0.00  0.00    +0.003 C 
ATOM      5  C   UNL     1      33.287 -12.392 -22.981  0.00  0.00    +0.098 C 
ATOM      6  C   UNL     1      31.644 -11.854 -20.871  0.00  0.00    +0.015 C 
ENDROOT
BRANCH   2   8
ATOM      7  C   UNL     1      35.311 -16.981 -22.175  0.00  0.00    +0.138 C 
ATOM      8  C   UNL     1      33.904 -14.586 -22.045  0.00  0.00    +0.002 C 
ATOM      9  C   UNL     1      34.983 -16.441 -20.936  0.00  0.00    +0.037 C 
ATOM     10  C   UNL     1      34.943 -16.335 -23.350  0.00  0.00    +0.037 C 
ATOM     11  C   UNL     1      34.277 -15.241 -20.871  0.00  0.00    +0.003 C 
ATOM     12  C   UNL     1      34.237 -15.134 -23.284  0.00  0.00    +0.003 C 
BRANCH   7  13
ATOM     13  O   UNL     1      36.005 -18.161 -22.239  0.00  0.00    -0.478 OA
BRANCH  13  14
ATOM     14  C   UNL     1      35.295 -19.342 -21.887  0.00  0.00    +0.183 C 
BRANCH  14  15
ATOM     15  C   UNL     1      35.985 -19.992 -20.700  0.00  0.00    -0.029 C 
BRANCH  15  17
ATOM     16  O   UNL     1      33.001 -22.508 -19.156  0.00  0.00    -0.358 OA
ATOM     17  N   UNL     1      35.005 -20.590 -19.796  0.00  0.00    +0.393 N 
ATOM     18  C   UNL     1      33.652 -20.507 -20.364  0.00  0.00    -0.044 C 
ATOM     19  C   UNL     1      35.345 -21.990 -19.508  0.00  0.00    -0.044 C 
ATOM     20  C   UNL     1      32.649 -21.147 -19.408  0.00  0.00    +0.119 C 
ATOM     21  C   UNL     1      34.303 -22.595 -18.573  0.00  0.00    +0.119 C 
ATOM     22  H   UNL     1      35.024 -20.063 -18.922  0.00  0.00    -0.079 HD
ENDBRANCH  15  17
ENDBRANCH  14  15
ENDBRANCH  13  14
ENDBRANCH   7  13
ENDBRANCH   2   8
BRANCH   3  23
ATOM     23  C   UNL     1      31.100  -9.666 -21.916  0.00  0.00    +0.131 C 
BRANCH  23  26
ATOM     24  O   UNL     1      31.686  -7.677 -20.665  0.00  0.00    -0.275 OA
ATOM     25  N   UNL     1      33.121  -8.416 -22.334  0.00  0.00    -0.300 N 
ATOM     26  C   UNL     1      31.977  -8.478 -21.550  0.00  0.00    +0.229 C 
ATOM     27  H   UNL     1      33.262  -9.109 -23.019  0.00  0.00    +0.150 HD
BRANCH  25  28
ATOM     28  C   UNL     1      34.112  -7.376 -22.183  0.00  0.00    +0.116 C 
BRANCH  28  29
ATOM     29  C   UNL     1      34.187  -6.493 -23.394  0.00  0.00    -0.003 C 
ATOM     30  C   UNL     1      33.158  -5.596 -23.656  0.00  0.00    -0.003 C 
ATOM     31  C   UNL     1      35.286  -6.580 -24.242  0.00  0.00    -0.003 C 
ATOM     32  C   UNL     1      33.228  -4.775 -24.782  0.00  0.00    -0.000 C 
ATOM     33  C   UNL     1      35.356  -5.759 -25.368  0.00  0.00    -0.000 C 
ATOM     34  C   UNL     1      34.326  -4.857 -25.638  0.00  0.00    -0.000 C 
ENDBRANCH  28  29
ENDBRANCH  25  28
ENDBRANCH  23  26
ENDBRANCH   3  23
TORSDOF 9
ENDMDL
MODEL 5
REMARK VINA RESULT:     -11.2      3.521     12.227
REMARK  Name = 23635314
REMARK  9 active torsions:
REMARK  status: ('A' for Active; 'I' for Inactive)
REMARK    1  A    between atoms: C_2  and  C_8
REMARK    2  A    between atoms: C_3  and  C_23
REMARK    3  A    between atoms: C_7  and  O_13
REMARK    4  A    between atoms: O_13  and  C_14
REMARK    5  A    between atoms: C_14  and  C_15
REMARK    6  A    between atoms: C_15  and  N_17
REMARK    7  A    between atoms: C_23  and  C_26
REMARK    8  A    between atoms: N_25  and  C_28
REMARK    9  A    between atoms: C_28  and  C_29
REMARK                            x       y       z     vdW  Elec       q    Type
REMARK                         _______ _______ _______ _____ _____    ______ ____
ROOT
ATOM      1  N   UNL     1      34.963 -16.490 -20.467  0.00  0.00    -0.248 NA
ATOM      2  C   UNL     1      34.029 -14.787 -21.903  0.00  0.00    +0.019 C 
ATOM      3  C   UNL     1      35.381 -17.131 -21.581  0.00  0.00    +0.068 C 
ATOM      4  C   UNL     1      34.473 -15.474 -23.025  0.00  0.00    +0.003 C 
ATOM      5  C   UNL     1      34.296 -15.330 -20.657  0.00  0.00    +0.098 C 
ATOM      6  C   UNL     1      35.163 -16.671 -22.870  0.00  0.00    +0.015 C 
ENDROOT
BRANCH   2   8
ATOM      7  C   UNL     1      31.922 -11.141 -22.279  0.00  0.00    +0.138 C 
ATOM      8  C   UNL     1      33.308 -13.539 -22.031  0.00  0.00    +0.002 C 
ATOM      9  C   UNL     1      31.630 -11.999 -21.225  0.00  0.00    +0.037 C 
ATOM     10  C   UNL     1      32.901 -11.470 -23.211  0.00  0.00    +0.037 C 
ATOM     11  C   UNL     1      32.325 -13.202 -21.100  0.00  0.00    +0.003 C 
ATOM     12  C   UNL     1      33.595 -12.673 -23.086  0.00  0.00    +0.003 C 
BRANCH   7  13
ATOM     13  O   UNL     1      31.239  -9.959 -22.401  0.00  0.00    -0.478 OA
BRANCH  13  14
ATOM     14  C   UNL     1      31.716  -8.861 -21.635  0.00  0.00    +0.183 C 
BRANCH  14  15
ATOM     15  C   UNL     1      31.497  -7.581 -22.426  0.00  0.00    -0.029 C 
BRANCH  15  17
ATOM     16  O   UNL     1      35.166  -7.683 -24.460  0.00  0.00    -0.358 OA
ATOM     17  N   UNL     1      32.734  -7.159 -23.078  0.00  0.00    +0.393 N 
ATOM     18  C   UNL     1      33.906  -7.716 -22.388  0.00  0.00    -0.044 C 
ATOM     19  C   UNL     1      32.744  -7.561 -24.491  0.00  0.00    -0.044 C 
ATOM     20  C   UNL     1      35.183  -7.270 -23.093  0.00  0.00    +0.119 C 
ATOM     21  C   UNL     1      34.048  -7.119 -25.147  0.00  0.00    +0.119 C 
ATOM     22  H   UNL     1      32.781  -6.141 -23.028  0.00  0.00    -0.079 HD
ENDBRANCH  15  17
ENDBRANCH  14  15
ENDBRANCH  13  14
ENDBRANCH   7  13
ENDBRANCH   2   8
BRANCH   3  23
ATOM     23  C   UNL     1      36.118 -18.414 -21.378  0.00  0.00    +0.131 C 
BRANCH  23  26
ATOM     24  O   UNL     1      34.202 -19.819 -21.846  0.00  0.00    -0.275 OA
ATOM     25  N   UNL     1      35.656 -20.436 -20.144  0.00  0.00    -0.300 N 
ATOM     26  C   UNL     1      35.209 -19.617 -21.173  0.00  0.00    +0.229 C 
ATOM     27  H   UNL     1      36.478 -20.185 -19.664  0.00  0.00    +0.150 HD
BRANCH  25  28
ATOM     28  C   UNL     1      34.963 -21.641 -19.752  0.00  0.00    +0.116 C 
BRANCH  28  29
ATOM     29  C   UNL     1      35.345 -22.082 -18.368  0.00  0.00    -0.003 C 
ATOM     30  C   UNL     1      36.612 -21.789 -17.878  0.00  0.00    -0.003 C 
ATOM     31  C   UNL     1      34.426 -22.779 -17.591  0.00  0.00    -0.003 C 
ATOM     32  C   UNL     1      36.967 -22.199 -16.593  0.00  0.00    -0.000 C 
ATOM     33  C   UNL     1      34.781 -23.189 -16.306  0.00  0.00    -0.000 C 
ATOM     34  C   UNL     1      36.052 -22.899 -15.807  0.00  0.00    -0.000 C 
ENDBRANCH  28  29
ENDBRANCH  25  28
ENDBRANCH  23  26
ENDBRANCH   3  23
TORSDOF 9
ENDMDL
MODEL 6
REMARK VINA RESULT:     -11.2      1.764      3.185
REMARK  Name = 23635314
REMARK  9 active torsions:
REMARK  status: ('A' for Active; 'I' for Inactive)
REMARK    1  A    between atoms: C_2  and  C_8
REMARK    2  A    between atoms: C_3  and  C_23
REMARK    3  A    between atoms: C_7  and  O_13
REMARK    4  A    between atoms: O_13  and  C_14
REMARK    5  A    between atoms: C_14  and  C_15
REMARK    6  A    between atoms: C_15  and  N_17
REMARK    7  A    between atoms: C_23  and  C_26
REMARK    8  A    between atoms: N_25  and  C_28
REMARK    9  A    between atoms: C_28  and  C_29
REMARK                            x       y       z     vdW  Elec       q    Type
REMARK                         _______ _______ _______ _____ _____    ______ ____
ROOT
ATOM      1  N   UNL     1      33.465 -20.286 -20.910  0.00  0.00    -0.248 NA
ATOM      2  C   UNL     1      34.521 -21.589 -19.172  0.00  0.00    +0.019 C 
ATOM      3  C   UNL     1      34.695 -20.062 -21.423  0.00  0.00    +0.068 C 
ATOM      4  C   UNL     1      35.769 -21.337 -19.727  0.00  0.00    +0.003 C 
ATOM      5  C   UNL     1      33.409 -21.046 -19.794  0.00  0.00    +0.098 C 
ATOM      6  C   UNL     1      35.866 -20.559 -20.875  0.00  0.00    +0.015 C 
ENDROOT
BRANCH   2   8
ATOM      7  C   UNL     1      34.128 -23.941 -15.682  0.00  0.00    +0.138 C 
ATOM      8  C   UNL     1      34.386 -22.394 -17.978  0.00  0.00    +0.002 C 
ATOM      9  C   UNL     1      33.061 -23.839 -16.567  0.00  0.00    +0.037 C 
ATOM     10  C   UNL     1      35.323 -23.276 -15.933  0.00  0.00    +0.037 C 
ATOM     11  C   UNL     1      33.190 -23.064 -17.718  0.00  0.00    +0.003 C 
ATOM     12  C   UNL     1      35.452 -22.500 -17.084  0.00  0.00    +0.003 C 
BRANCH   7  13
ATOM     13  O   UNL     1      34.000 -24.703 -14.550  0.00  0.00    -0.478 OA
BRANCH  13  14
ATOM     14  C   UNL     1      33.097 -24.231 -13.558  0.00  0.00    +0.183 C 
BRANCH  14  15
ATOM     15  C   UNL     1      31.995 -25.260 -13.372  0.00  0.00    -0.029 C 
BRANCH  15  17
ATOM     16  O   UNL     1      28.966 -23.582 -15.744  0.00  0.00    -0.358 OA
ATOM     17  N   UNL     1      30.706 -24.720 -13.800  0.00  0.00    +0.393 N 
ATOM     18  C   UNL     1      30.842 -23.321 -14.228  0.00  0.00    -0.044 C 
ATOM     19  C   UNL     1      30.137 -25.527 -14.889  0.00  0.00    -0.044 C 
ATOM     20  C   UNL     1      29.488 -22.784 -14.681  0.00  0.00    +0.119 C 
ATOM     21  C   UNL     1      28.800 -24.938 -15.326  0.00  0.00    +0.119 C 
ATOM     22  H   UNL     1      30.072 -24.756 -13.002  0.00  0.00    -0.079 HD
ENDBRANCH  15  17
ENDBRANCH  14  15
ENDBRANCH  13  14
ENDBRANCH   7  13
ENDBRANCH   2   8
BRANCH   3  23
ATOM     23  C   UNL     1      34.763 -19.223 -22.656  0.00  0.00    +0.131 C 
BRANCH  23  26
ATOM     24  O   UNL     1      36.130 -17.550 -21.560  0.00  0.00    -0.275 OA
ATOM     25  N   UNL     1      34.683 -16.885 -23.250  0.00  0.00    -0.300 N 
ATOM     26  C   UNL     1      35.283 -17.814 -22.410  0.00  0.00    +0.229 C 
ATOM     27  H   UNL     1      34.013 -17.200 -23.900  0.00  0.00    +0.150 HD
BRANCH  25  28
ATOM     28  C   UNL     1      35.004 -15.478 -23.210  0.00  0.00    +0.116 C 
BRANCH  28  29
ATOM     29  C   UNL     1      34.006 -14.698 -22.403  0.00  0.00    -0.003 C 
ATOM     30  C   UNL     1      33.120 -13.843 -23.047  0.00  0.00    -0.003 C 
ATOM     31  C   UNL     1      33.979 -14.839 -21.020  0.00  0.00    -0.003 C 
ATOM     32  C   UNL     1      32.193 -13.118 -22.297  0.00  0.00    -0.000 C 
ATOM     33  C   UNL     1      33.052 -14.114 -20.271  0.00  0.00    -0.000 C 
ATOM     34  C   UNL     1      32.160 -13.253 -20.910  0.00  0.00    -0.000 C 
ENDBRANCH  28  29
ENDBRANCH  25  28
ENDBRANCH  23  26
ENDBRANCH   3  23
TORSDOF 9
ENDMDL
MODEL 7
REMARK VINA RESULT:     -11.2      3.906     12.348
REMARK  Name = 23635314
REMARK  9 active torsions:
REMARK  status: ('A' for Active; 'I' for Inactive)
REMARK    1  A    between atoms: C_2  and  C_8
REMARK    2  A    between atoms: C_3  and  C_23
REMARK    3  A    between atoms: C_7  and  O_13
REMARK    4  A    between atoms: O_13  and  C_14
REMARK    5  A    between atoms: C_14  and  C_15
REMARK    6  A    between atoms: C_15  and  N_17
REMARK    7  A    between atoms: C_23  and  C_26
REMARK    8  A    between atoms: N_25  and  C_28
REMARK    9  A    between atoms: C_28  and  C_29
REMARK                            x       y       z     vdW  Elec       q    Type
REMARK                         _______ _______ _______ _____ _____    ______ ____
ROOT
ATOM      1  N   UNL     1      35.030 -16.647 -20.429  0.00  0.00    -0.248 NA
ATOM      2  C   UNL     1      34.145 -14.934 -21.884  0.00  0.00    +0.019 C 
ATOM      3  C   UNL     1      35.436 -17.310 -21.535  0.00  0.00    +0.068 C 
ATOM      4  C   UNL     1      34.576 -15.644 -22.998  0.00  0.00    +0.003 C 
ATOM      5  C   UNL     1      34.394 -15.472 -20.632  0.00  0.00    +0.098 C 
ATOM      6  C   UNL     1      35.235 -16.857 -22.828  0.00  0.00    +0.015 C 
ENDROOT
BRANCH   2   8
ATOM      7  C   UNL     1      32.134 -11.240 -22.302  0.00  0.00    +0.138 C 
ATOM      8  C   UNL     1      33.457 -13.670 -22.027  0.00  0.00    +0.002 C 
ATOM      9  C   UNL     1      33.048 -11.640 -23.270  0.00  0.00    +0.037 C 
ATOM     10  C   UNL     1      31.876 -12.043 -21.196  0.00  0.00    +0.037 C 
ATOM     11  C   UNL     1      33.711 -12.859 -23.133  0.00  0.00    +0.003 C 
ATOM     12  C   UNL     1      32.540 -13.262 -21.059  0.00  0.00    +0.003 C 
BRANCH   7  13
ATOM     13  O   UNL     1      31.483 -10.042 -22.436  0.00  0.00    -0.478 OA
BRANCH  13  14
ATOM     14  C   UNL     1      31.843  -9.010 -21.526  0.00  0.00    +0.183 C 
BRANCH  14  15
ATOM     15  C   UNL     1      33.032  -8.252 -22.093  0.00  0.00    -0.029 C 
BRANCH  15  17
ATOM     16  O   UNL     1      30.742  -4.839 -22.943  0.00  0.00    -0.358 OA
ATOM     17  N   UNL     1      32.659  -6.880 -22.426  0.00  0.00    +0.393 N 
ATOM     18  C   UNL     1      31.904  -6.835 -23.686  0.00  0.00    -0.044 C 
ATOM     19  C   UNL     1      31.868  -6.276 -21.345  0.00  0.00    -0.044 C 
ATOM     20  C   UNL     1      31.516  -5.395 -24.007  0.00  0.00    +0.119 C 
ATOM     21  C   UNL     1      31.481  -4.849 -21.720  0.00  0.00    +0.119 C 
ATOM     22  H   UNL     1      33.517  -6.342 -22.542  0.00  0.00    -0.079 HD
ENDBRANCH  15  17
ENDBRANCH  14  15
ENDBRANCH  13  14
ENDBRANCH   7  13
ENDBRANCH   2   8
BRANCH   3  23
ATOM     23  C   UNL     1      36.139 -18.608 -21.316  0.00  0.00    +0.131 C 
BRANCH  23  26
ATOM     24  O   UNL     1      34.145 -19.946 -21.636  0.00  0.00    -0.275 OA
ATOM     25  N   UNL     1      35.683 -20.594 -20.021  0.00  0.00    -0.300 N 
ATOM     26  C   UNL     1      35.201 -19.773 -21.033  0.00  0.00    +0.229 C 
ATOM     27  H   UNL     1      36.543 -20.367 -19.599  0.00  0.00    +0.150 HD
BRANCH  25  28
ATOM     28  C   UNL     1      34.972 -21.765 -19.565  0.00  0.00    +0.116 C 
BRANCH  28  29
ATOM     29  C   UNL     1      35.387 -22.169 -18.180  0.00  0.00    -0.003 C 
ATOM     30  C   UNL     1      34.483 -22.833 -17.358  0.00  0.00    -0.003 C 
ATOM     31  C   UNL     1      36.670 -21.874 -17.733  0.00  0.00    -0.003 C 
ATOM     32  C   UNL     1      34.868 -23.208 -16.071  0.00  0.00    -0.000 C 
ATOM     33  C   UNL     1      37.054 -22.249 -16.445  0.00  0.00    -0.000 C 
ATOM     34  C   UNL     1      36.153 -22.915 -15.614  0.00  0.00    -0.000 C 
ENDBRANCH  28  29
ENDBRANCH  25  28
ENDBRANCH  23  26
ENDBRANCH   3  23
TORSDOF 9
ENDMDL
MODEL 8
REMARK VINA RESULT:     -11.0      2.555      3.353
REMARK  Name = 23635314
REMARK  9 active torsions:
REMARK  status: ('A' for Active; 'I' for Inactive)
REMARK    1  A    between atoms: C_2  and  C_8
REMARK    2  A    between atoms: C_3  and  C_23
REMARK    3  A    between atoms: C_7  and  O_13
REMARK    4  A    between atoms: O_13  and  C_14
REMARK    5  A    between atoms: C_14  and  C_15
REMARK    6  A    between atoms: C_15  and  N_17
REMARK    7  A    between atoms: C_23  and  C_26
REMARK    8  A    between atoms: N_25  and  C_28
REMARK    9  A    between atoms: C_28  and  C_29
REMARK                            x       y       z     vdW  Elec       q    Type
REMARK                         _______ _______ _______ _____ _____    ______ ____
ROOT
ATOM      1  N   UNL     1      34.240 -19.370 -23.499  0.00  0.00    -0.248 NA
ATOM      2  C   UNL     1      34.889 -19.774 -21.208  0.00  0.00    +0.019 C 
ATOM      3  C   UNL     1      34.660 -18.095 -23.343  0.00  0.00    +0.068 C 
ATOM      4  C   UNL     1      35.310 -18.455 -21.084  0.00  0.00    +0.003 C 
ATOM      5  C   UNL     1      34.366 -20.180 -22.424  0.00  0.00    +0.098 C 
ATOM      6  C   UNL     1      35.196 -17.593 -22.168  0.00  0.00    +0.015 C 
ENDROOT
BRANCH   2   8
ATOM      7  C   UNL     1      35.196 -22.469 -17.965  0.00  0.00    +0.138 C 
ATOM      8  C   UNL     1      34.994 -20.696 -20.098  0.00  0.00    +0.002 C 
ATOM      9  C   UNL     1      33.952 -22.209 -18.530  0.00  0.00    +0.037 C 
ATOM     10  C   UNL     1      36.340 -21.849 -18.457  0.00  0.00    +0.037 C 
ATOM     11  C   UNL     1      33.851 -21.321 -19.600  0.00  0.00    +0.003 C 
ATOM     12  C   UNL     1      36.238 -20.960 -19.527  0.00  0.00    +0.003 C 
BRANCH   7  13
ATOM     13  O   UNL     1      35.296 -23.341 -16.914  0.00  0.00    -0.478 OA
BRANCH  13  14
ATOM     14  C   UNL     1      35.627 -22.785 -15.648  0.00  0.00    +0.183 C 
BRANCH  14  15
ATOM     15  C   UNL     1      36.856 -23.495 -15.108  0.00  0.00    -0.029 C 
BRANCH  15  17
ATOM     16  O   UNL     1      36.902 -25.632 -11.496  0.00  0.00    -0.358 OA
ATOM     17  N   UNL     1      36.490 -24.421 -14.038  0.00  0.00    +0.393 N 
ATOM     18  C   UNL     1      37.548 -25.418 -13.824  0.00  0.00    -0.044 C 
ATOM     19  C   UNL     1      36.221 -23.696 -12.789  0.00  0.00    -0.044 C 
ATOM     20  C   UNL     1      37.148 -26.364 -12.697  0.00  0.00    +0.119 C 
ATOM     21  C   UNL     1      35.852 -24.683 -11.686  0.00  0.00    +0.119 C 
ATOM     22  H   UNL     1      35.639 -24.906 -14.323  0.00  0.00    -0.079 HD
ENDBRANCH  15  17
ENDBRANCH  14  15
ENDBRANCH  13  14
ENDBRANCH   7  13
ENDBRANCH   2   8
BRANCH   3  23
ATOM     23  C   UNL     1      34.523 -17.196 -24.527  0.00  0.00    +0.131 C 
BRANCH  23  26
ATOM     24  O   UNL     1      35.585 -15.151 -23.780  0.00  0.00    -0.275 OA
ATOM     25  N   UNL     1      33.339 -15.099 -24.367  0.00  0.00    -0.300 N 
ATOM     26  C   UNL     1      34.569 -15.714 -24.181  0.00  0.00    +0.229 C 
ATOM     27  H   UNL     1      32.584 -15.641 -24.693  0.00  0.00    +0.150 HD
BRANCH  25  28
ATOM     28  C   UNL     1      33.124 -13.695 -24.104  0.00  0.00    +0.116 C 
BRANCH  28  29
ATOM     29  C   UNL     1      32.760 -13.443 -22.669  0.00  0.00    -0.003 C 
ATOM     30  C   UNL     1      31.999 -12.328 -22.339  0.00  0.00    -0.003 C 
ATOM     31  C   UNL     1      33.188 -14.328 -21.685  0.00  0.00    -0.003 C 
ATOM     32  C   UNL     1      31.661 -12.093 -21.006  0.00  0.00    -0.000 C 
ATOM     33  C   UNL     1      32.850 -14.093 -20.352  0.00  0.00    -0.000 C 
ATOM     34  C   UNL     1      32.087 -12.975 -20.013  0.00  0.00    -0.000 C 
ENDBRANCH  28  29
ENDBRANCH  25  28
ENDBRANCH  23  26
ENDBRANCH   3  23
TORSDOF 9
ENDMDL
MODEL 9
REMARK VINA RESULT:     -11.0      3.232      4.697
REMARK  Name = 23635314
REMARK  9 active torsions:
REMARK  status: ('A' for Active; 'I' for Inactive)
REMARK    1  A    between atoms: C_2  and  C_8
REMARK    2  A    between atoms: C_3  and  C_23
REMARK    3  A    between atoms: C_7  and  O_13
REMARK    4  A    between atoms: O_13  and  C_14
REMARK    5  A    between atoms: C_14  and  C_15
REMARK    6  A    between atoms: C_15  and  N_17
REMARK    7  A    between atoms: C_23  and  C_26
REMARK    8  A    between atoms: N_25  and  C_28
REMARK    9  A    between atoms: C_28  and  C_29
REMARK                            x       y       z     vdW  Elec       q    Type
REMARK                         _______ _______ _______ _____ _____    ______ ____
ROOT
ATOM      1  N   UNL     1      33.483 -20.516 -20.650  0.00  0.00    -0.248 NA
ATOM      2  C   UNL     1      34.640 -21.723 -18.906  0.00  0.00    +0.019 C 
ATOM      3  C   UNL     1      34.690 -20.246 -21.196  0.00  0.00    +0.068 C 
ATOM      4  C   UNL     1      35.862 -21.425 -19.496  0.00  0.00    +0.003 C 
ATOM      5  C   UNL     1      33.489 -21.250 -19.515  0.00  0.00    +0.098 C 
ATOM      6  C   UNL     1      35.896 -20.671 -20.664  0.00  0.00    +0.015 C 
ENDROOT
BRANCH   2   8
ATOM      7  C   UNL     1      34.438 -24.006 -15.354  0.00  0.00    +0.138 C 
ATOM      8  C   UNL     1      34.571 -22.504 -17.691  0.00  0.00    +0.002 C 
ATOM      9  C   UNL     1      35.620 -23.354 -15.687  0.00  0.00    +0.037 C 
ATOM     10  C   UNL     1      33.321 -23.915 -16.179  0.00  0.00    +0.037 C 
ATOM     11  C   UNL     1      35.686 -22.600 -16.859  0.00  0.00    +0.003 C 
ATOM     12  C   UNL     1      33.389 -23.161 -17.350  0.00  0.00    +0.003 C 
BRANCH   7  13
ATOM     13  O   UNL     1      34.372 -24.747 -14.203  0.00  0.00    -0.478 OA
BRANCH  13  14
ATOM     14  C   UNL     1      34.891 -24.146 -13.024  0.00  0.00    +0.183 C 
BRANCH  14  15
ATOM     15  C   UNL     1      35.881 -25.104 -12.383  0.00  0.00    -0.029 C 
BRANCH  15  17
ATOM     16  O   UNL     1      39.267 -26.913 -14.081  0.00  0.00    -0.358 OA
ATOM     17  N   UNL     1      36.954 -25.441 -13.316  0.00  0.00    +0.393 N 
ATOM     18  C   UNL     1      38.269 -25.168 -12.721  0.00  0.00    -0.044 C 
ATOM     19  C   UNL     1      36.868 -26.850 -13.725  0.00  0.00    -0.044 C 
ATOM     20  C   UNL     1      39.371 -25.537 -13.710  0.00  0.00    +0.119 C 
ATOM     21  C   UNL     1      38.003 -27.179 -14.690  0.00  0.00    +0.119 C 
ATOM     22  H   UNL     1      36.843 -24.854 -14.143  0.00  0.00    -0.079 HD
ENDBRANCH  15  17
ENDBRANCH  14  15
ENDBRANCH  13  14
ENDBRANCH   7  13
ENDBRANCH   2   8
BRANCH   3  23
ATOM     23  C   UNL     1      34.689 -19.434 -22.450  0.00  0.00    +0.131 C 
BRANCH  23  26
ATOM     24  O   UNL     1      36.172 -17.787 -21.473  0.00  0.00    -0.275 OA
ATOM     25  N   UNL     1      34.692 -17.120 -23.133  0.00  0.00    -0.300 N 
ATOM     26  C   UNL     1      35.281 -18.043 -22.279  0.00  0.00    +0.229 C 
ATOM     27  H   UNL     1      33.983 -17.427 -23.744  0.00  0.00    +0.150 HD
BRANCH  25  28
ATOM     28  C   UNL     1      35.077 -15.728 -23.160  0.00  0.00    +0.116 C 
BRANCH  28  29
ATOM     29  C   UNL     1      34.103 -14.861 -22.415  0.00  0.00    -0.003 C 
ATOM     30  C   UNL     1      33.231 -14.043 -23.123  0.00  0.00    -0.003 C 
ATOM     31  C   UNL     1      34.084 -14.887 -21.025  0.00  0.00    -0.003 C 
ATOM     32  C   UNL     1      32.326 -13.238 -22.431  0.00  0.00    -0.000 C 
ATOM     33  C   UNL     1      33.179 -14.081 -20.333  0.00  0.00    -0.000 C 
ATOM     34  C   UNL     1      32.301 -13.256 -21.037  0.00  0.00    -0.000 C 
ENDBRANCH  28  29
ENDBRANCH  25  28
ENDBRANCH  23  26
ENDBRANCH   3  23
TORSDOF 9
ENDMDL
