MODEL 1
REMARK VINA RESULT:     -12.3      0.000      0.000
REMARK  Name = 60149
REMARK  5 active torsions:
REMARK  status: ('A' for Active; 'I' for Inactive)
REMARK    1  A    between atoms: N_2  and  C_12
REMARK    2  A    between atoms: C_3  and  C_19
REMARK    3  A    between atoms: N_18  and  C_25
REMARK    4  A    between atoms: C_25  and  C_26
REMARK    5  A    between atoms: C_26  and  N_28
REMARK                            x       y       z     vdW  Elec       q    Type
REMARK                         _______ _______ _______ _____ _____    ______ ____
ROOT
ATOM      1 CL   UNL     1      29.075 -23.337 -15.734  0.00  0.00    -0.082 Cl
ATOM      2  N   UNL     1      34.882 -23.846 -15.330  0.00  0.00    -0.265 N 
ATOM      3  C   UNL     1      34.151 -23.002 -17.243  0.00  0.00    -0.006 C 
ATOM      4  C   UNL     1      33.023 -23.279 -16.426  0.00  0.00    +0.012 C 
ATOM      5  C   UNL     1      35.278 -23.360 -16.547  0.00  0.00    +0.065 C 
ATOM      6  C   UNL     1      33.509 -23.808 -15.229  0.00  0.00    +0.055 C 
ATOM      7  C   UNL     1      31.630 -23.131 -16.586  0.00  0.00    +0.012 C 
ATOM      8  C   UNL     1      32.669 -24.198 -14.179  0.00  0.00    +0.016 C 
ATOM      9  C   UNL     1      30.779 -23.517 -15.546  0.00  0.00    +0.058 C 
ATOM     10  C   UNL     1      31.292 -24.042 -14.361  0.00  0.00    +0.013 C 
ENDROOT
BRANCH   2  12
ATOM     11  F   UNL     1      38.348 -25.662 -11.449  0.00  0.00    -0.204 F 
ATOM     12  C   UNL     1      35.761 -24.307 -14.346  0.00  0.00    +0.056 C 
ATOM     13  C   UNL     1      36.126 -23.462 -13.308  0.00  0.00    +0.017 C 
ATOM     14  C   UNL     1      36.254 -25.601 -14.424  0.00  0.00    +0.017 C 
ATOM     15  C   UNL     1      37.004 -23.921 -12.326  0.00  0.00    +0.031 C 
ATOM     16  C   UNL     1      37.132 -26.060 -13.442  0.00  0.00    +0.031 C 
ATOM     17  C   UNL     1      37.507 -25.221 -12.392  0.00  0.00    +0.140 C 
ENDBRANCH   2  12
BRANCH   3  19
ATOM     18  N   UNL     1      34.224 -20.190 -20.542  0.00  0.00    +0.388 N 
ATOM     19  C   UNL     1      34.125 -22.418 -18.637  0.00  0.00    +0.019 C 
ATOM     20  C   UNL     1      32.936 -21.471 -18.863  0.00  0.00    -0.018 C 
ATOM     21  C   UNL     1      35.436 -21.706 -19.007  0.00  0.00    -0.018 C 
ATOM     22  C   UNL     1      32.956 -20.881 -20.275  0.00  0.00    -0.077 C 
ATOM     23  C   UNL     1      35.365 -21.106 -20.413  0.00  0.00    -0.077 C 
ATOM     24  H   UNL     1      34.333 -19.452 -19.848  0.00  0.00    -0.080 HD
BRANCH  18  25
ATOM     25  C   UNL     1      34.204 -19.583 -21.874  0.00  0.00    -0.055 C 
BRANCH  25  26
ATOM     26  C   UNL     1      35.412 -18.675 -22.059  0.00  0.00    +0.077 C 
BRANCH  26  28
ATOM     27  O   UNL     1      34.405 -18.128 -24.837  0.00  0.00    -0.252 OA
ATOM     28  N   UNL     1      35.037 -17.430 -22.673  0.00  0.00    -0.243 N 
ATOM     29  N   UNL     1      34.293 -15.892 -24.154  0.00  0.00    -0.266 N 
ATOM     30  C   UNL     1      35.027 -16.175 -21.943  0.00  0.00    +0.085 C 
ATOM     31  C   UNL     1      34.638 -15.132 -22.979  0.00  0.00    +0.082 C 
ATOM     32  C   UNL     1      34.562 -17.259 -23.988  0.00  0.00    +0.311 C 
ATOM     33  H   UNL     1      33.915 -15.498 -24.973  0.00  0.00    +0.157 HD
ENDBRANCH  26  28
ENDBRANCH  25  26
ENDBRANCH  18  25
ENDBRANCH   3  19
TORSDOF 5
ENDMDL
MODEL 2
REMARK VINA RESULT:     -10.7      7.472     13.841
REMARK  Name = 60149
REMARK  5 active torsions:
REMARK  status: ('A' for Active; 'I' for Inactive)
REMARK    1  A    between atoms: N_2  and  C_12
REMARK    2  A    between atoms: C_3  and  C_19
REMARK    3  A    between atoms: N_18  and  C_25
REMARK    4  A    between atoms: C_25  and  C_26
REMARK    5  A    between atoms: C_26  and  N_28
REMARK                            x       y       z     vdW  Elec       q    Type
REMARK                         _______ _______ _______ _____ _____    ______ ____
ROOT
ATOM      1 CL   UNL     1      31.358 -10.900 -17.319  0.00  0.00    -0.082 Cl
ATOM      2  N   UNL     1      32.590  -9.599 -22.880  0.00  0.00    -0.265 N 
ATOM      3  C   UNL     1      32.725 -11.751 -22.375  0.00  0.00    -0.006 C 
ATOM      4  C   UNL     1      32.346 -11.047 -21.201  0.00  0.00    +0.012 C 
ATOM      5  C   UNL     1      32.867 -10.839 -23.390  0.00  0.00    +0.065 C 
ATOM      6  C   UNL     1      32.268  -9.697 -21.545  0.00  0.00    +0.055 C 
ATOM      7  C   UNL     1      32.061 -11.427 -19.874  0.00  0.00    +0.012 C 
ATOM      8  C   UNL     1      31.916  -8.702 -20.625  0.00  0.00    +0.016 C 
ATOM      9  C   UNL     1      31.709 -10.443 -18.943  0.00  0.00    +0.058 C 
ATOM     10  C   UNL     1      31.638  -9.102 -19.315  0.00  0.00    +0.013 C 
ENDROOT
BRANCH   2  12
ATOM     11  F   UNL     1      32.748  -4.942 -25.823  0.00  0.00    -0.204 F 
ATOM     12  C   UNL     1      32.630  -8.418 -23.627  0.00  0.00    +0.056 C 
ATOM     13  C   UNL     1      31.442  -7.808 -24.003  0.00  0.00    +0.017 C 
ATOM     14  C   UNL     1      33.857  -7.875 -23.978  0.00  0.00    +0.017 C 
ATOM     15  C   UNL     1      31.482  -6.630 -24.749  0.00  0.00    +0.031 C 
ATOM     16  C   UNL     1      33.897  -6.697 -24.725  0.00  0.00    +0.031 C 
ATOM     17  C   UNL     1      32.710  -6.073 -25.109  0.00  0.00    +0.140 C 
ENDBRANCH   2  12
BRANCH   3  19
ATOM     18  N   UNL     1      34.554 -15.614 -23.103  0.00  0.00    +0.388 N 
ATOM     19  C   UNL     1      32.938 -13.243 -22.495  0.00  0.00    +0.019 C 
ATOM     20  C   UNL     1      33.247 -13.685 -23.935  0.00  0.00    -0.018 C 
ATOM     21  C   UNL     1      34.026 -13.766 -21.545  0.00  0.00    -0.018 C 
ATOM     22  C   UNL     1      33.480 -15.195 -24.015  0.00  0.00    -0.077 C 
ATOM     23  C   UNL     1      34.232 -15.274 -21.712  0.00  0.00    -0.077 C 
ATOM     24  H   UNL     1      35.402 -15.110 -23.363  0.00  0.00    -0.080 HD
BRANCH  18  25
ATOM     25  C   UNL     1      34.803 -17.050 -23.234  0.00  0.00    -0.055 C 
BRANCH  25  26
ATOM     26  C   UNL     1      35.955 -17.471 -22.333  0.00  0.00    +0.077 C 
BRANCH  26  28
ATOM     27  O   UNL     1      37.579 -18.976 -20.301  0.00  0.00    -0.252 OA
ATOM     28  N   UNL     1      35.620 -18.645 -21.574  0.00  0.00    -0.243 N 
ATOM     29  N   UNL     1      35.706 -20.367 -20.112  0.00  0.00    -0.266 N 
ATOM     30  C   UNL     1      34.310 -19.268 -21.643  0.00  0.00    +0.085 C 
ATOM     31  C   UNL     1      34.419 -20.491 -20.746  0.00  0.00    +0.082 C 
ATOM     32  C   UNL     1      36.440 -19.288 -20.627  0.00  0.00    +0.311 C 
ATOM     33  H   UNL     1      36.031 -20.969 -19.403  0.00  0.00    +0.157 HD
ENDBRANCH  26  28
ENDBRANCH  25  26
ENDBRANCH  18  25
ENDBRANCH   3  19
TORSDOF 5
ENDMDL
MODEL 3
REMARK VINA RESULT:     -10.3      7.949     14.447
REMARK  Name = 60149
REMARK  5 active torsions:
REMARK  status: ('A' for Active; 'I' for Inactive)
REMARK    1  A    between atoms: N_2  and  C_12
REMARK    2  A    between atoms: C_3  and  C_19
REMARK    3  A    between atoms: N_18  and  C_25
REMARK    4  A    between atoms: C_25  and  C_26
REMARK    5  A    between atoms: C_26  and  N_28
REMARK                            x       y       z     vdW  Elec       q    Type
REMARK                         _______ _______ _______ _____ _____    ______ ____
ROOT
ATOM      1 CL   UNL     1      31.538 -10.494 -17.552  0.00  0.00    -0.082 Cl
ATOM      2  N   UNL     1      32.619  -8.574 -22.963  0.00  0.00    -0.265 N 
ATOM      3  C   UNL     1      32.559 -10.777 -22.751  0.00  0.00    -0.006 C 
ATOM      4  C   UNL     1      32.313 -10.207 -21.474  0.00  0.00    +0.012 C 
ATOM      5  C   UNL     1      32.743  -9.754 -23.646  0.00  0.00    +0.065 C 
ATOM      6  C   UNL     1      32.355  -8.821 -21.634  0.00  0.00    +0.055 C 
ATOM      7  C   UNL     1      32.057 -10.734 -20.192  0.00  0.00    +0.012 C 
ATOM      8  C   UNL     1      32.153  -7.931 -20.572  0.00  0.00    +0.016 C 
ATOM      9  C   UNL     1      31.853  -9.856 -19.122  0.00  0.00    +0.058 C 
ATOM     10  C   UNL     1      31.901  -8.477 -19.311  0.00  0.00    +0.013 C 
ENDROOT
BRANCH   2  12
ATOM     11  F   UNL     1      33.105  -3.597 -25.280  0.00  0.00    -0.204 F 
ATOM     12  C   UNL     1      32.742  -7.312 -23.551  0.00  0.00    +0.056 C 
ATOM     13  C   UNL     1      31.600  -6.588 -23.857  0.00  0.00    +0.017 C 
ATOM     14  C   UNL     1      34.005  -6.805 -23.817  0.00  0.00    +0.017 C 
ATOM     15  C   UNL     1      31.722  -5.328 -24.445  0.00  0.00    +0.031 C 
ATOM     16  C   UNL     1      34.128  -5.545 -24.405  0.00  0.00    +0.031 C 
ATOM     17  C   UNL     1      32.987  -4.807 -24.718  0.00  0.00    +0.140 C 
ENDBRANCH   2  12
BRANCH   3  19
ATOM     18  N   UNL     1      34.022 -14.725 -23.789  0.00  0.00    +0.388 N 
ATOM     19  C   UNL     1      32.613 -12.253 -23.077  0.00  0.00    +0.019 C 
ATOM     20  C   UNL     1      33.130 -12.529 -24.498  0.00  0.00    -0.018 C 
ATOM     21  C   UNL     1      33.436 -13.057 -22.058  0.00  0.00    -0.018 C 
ATOM     22  C   UNL     1      33.193 -14.031 -24.784  0.00  0.00    -0.077 C 
ATOM     23  C   UNL     1      33.490 -14.540 -22.433  0.00  0.00    -0.077 C 
ATOM     24  H   UNL     1      34.957 -14.318 -23.819  0.00  0.00    -0.080 HD
BRANCH  18  25
ATOM     25  C   UNL     1      34.120 -16.150 -24.110  0.00  0.00    -0.055 C 
BRANCH  25  26
ATOM     26  C   UNL     1      35.395 -16.737 -23.524  0.00  0.00    +0.077 C 
BRANCH  26  28
ATOM     27  O   UNL     1      34.262 -19.402 -24.330  0.00  0.00    -0.252 OA
ATOM     28  N   UNL     1      35.113 -17.898 -22.723  0.00  0.00    -0.243 N 
ATOM     29  N   UNL     1      34.505 -19.976 -22.074  0.00  0.00    -0.266 N 
ATOM     30  C   UNL     1      35.437 -17.964 -21.309  0.00  0.00    +0.085 C 
ATOM     31  C   UNL     1      34.917 -19.320 -20.859  0.00  0.00    +0.082 C 
ATOM     32  C   UNL     1      34.587 -19.121 -23.184  0.00  0.00    +0.311 C 
ATOM     33  H   UNL     1      34.201 -20.912 -22.119  0.00  0.00    +0.157 HD
ENDBRANCH  26  28
ENDBRANCH  25  26
ENDBRANCH  18  25
ENDBRANCH   3  19
TORSDOF 5
ENDMDL
MODEL 4
REMARK VINA RESULT:      -9.7     10.281     14.299
REMARK  Name = 60149
REMARK  5 active torsions:
REMARK  status: ('A' for Active; 'I' for Inactive)
REMARK    1  A    between atoms: N_2  and  C_12
REMARK    2  A    between atoms: C_3  and  C_19
REMARK    3  A    between atoms: N_18  and  C_25
REMARK    4  A    between atoms: C_25  and  C_26
REMARK    5  A    between atoms: C_26  and  N_28
REMARK                            x       y       z     vdW  Elec       q    Type
REMARK                         _______ _______ _______ _____ _____    ______ ____
ROOT
ATOM      1 CL   UNL     1      30.782 -10.082 -18.453  0.00  0.00    -0.082 Cl
ATOM      2  N   UNL     1      33.268 -12.430 -23.190  0.00  0.00    -0.265 N 
ATOM      3  C   UNL     1      32.944 -10.242 -23.296  0.00  0.00    -0.006 C 
ATOM      4  C   UNL     1      32.466 -10.696 -22.038  0.00  0.00    +0.012 C 
ATOM      5  C   UNL     1      33.431 -11.326 -23.983  0.00  0.00    +0.065 C 
ATOM      6  C   UNL     1      32.682 -12.075 -21.996  0.00  0.00    +0.055 C 
ATOM      7  C   UNL     1      31.869 -10.068 -20.926  0.00  0.00    +0.012 C 
ATOM      8  C   UNL     1      32.329 -12.861 -20.893  0.00  0.00    +0.016 C 
ATOM      9  C   UNL     1      31.511 -10.842 -19.817  0.00  0.00    +0.058 C 
ATOM     10  C   UNL     1      31.738 -12.217 -19.803  0.00  0.00    +0.013 C 
ENDROOT
BRANCH   2  12
ATOM     11  F   UNL     1      34.783 -17.526 -24.644  0.00  0.00    -0.204 F 
ATOM     12  C   UNL     1      33.652 -13.722 -23.559  0.00  0.00    +0.056 C 
ATOM     13  C   UNL     1      34.505 -14.442 -22.735  0.00  0.00    +0.017 C 
ATOM     14  C   UNL     1      33.175 -14.264 -24.743  0.00  0.00    +0.017 C 
ATOM     15  C   UNL     1      34.890 -15.732 -23.103  0.00  0.00    +0.031 C 
ATOM     16  C   UNL     1      33.559 -15.553 -25.112  0.00  0.00    +0.031 C 
ATOM     17  C   UNL     1      34.416 -16.288 -24.291  0.00  0.00    +0.140 C 
ENDBRANCH   2  12
BRANCH   3  19
ATOM     18  N   UNL     1      32.423  -5.942 -23.499  0.00  0.00    +0.388 N 
ATOM     19  C   UNL     1      32.924  -8.817 -23.800  0.00  0.00    +0.019 C 
ATOM     20  C   UNL     1      31.508  -8.217 -23.831  0.00  0.00    -0.018 C 
ATOM     21  C   UNL     1      33.863  -7.893 -23.008  0.00  0.00    -0.018 C 
ATOM     22  C   UNL     1      31.529  -6.768 -24.322  0.00  0.00    -0.077 C 
ATOM     23  C   UNL     1      33.798  -6.455 -23.529  0.00  0.00    -0.077 C 
ATOM     24  H   UNL     1      32.092  -5.985 -22.535  0.00  0.00    -0.080 HD
BRANCH  18  25
ATOM     25  C   UNL     1      32.387  -4.549 -23.946  0.00  0.00    -0.055 C 
BRANCH  25  26
ATOM     26  C   UNL     1      33.325  -4.349 -25.127  0.00  0.00    +0.077 C 
BRANCH  26  28
ATOM     27  O   UNL     1      33.539  -4.837 -28.085  0.00  0.00    -0.252 OA
ATOM     28  N   UNL     1      32.655  -3.696 -26.219  0.00  0.00    -0.243 N 
ATOM     29  N   UNL     1      31.945  -3.137 -28.291  0.00  0.00    -0.266 N 
ATOM     30  C   UNL     1      31.643  -2.675 -26.011  0.00  0.00    +0.085 C 
ATOM     31  C   UNL     1      31.258  -2.225 -27.412  0.00  0.00    +0.082 C 
ATOM     32  C   UNL     1      32.805  -3.994 -27.587  0.00  0.00    +0.311 C 
ATOM     33  H   UNL     1      31.824  -3.155 -29.269  0.00  0.00    +0.157 HD
ENDBRANCH  26  28
ENDBRANCH  25  26
ENDBRANCH  18  25
ENDBRANCH   3  19
TORSDOF 5
ENDMDL
MODEL 5
REMARK VINA RESULT:      -9.7      1.855      2.532
REMARK  Name = 60149
REMARK  5 active torsions:
REMARK  status: ('A' for Active; 'I' for Inactive)
REMARK    1  A    between atoms: N_2  and  C_12
REMARK    2  A    between atoms: C_3  and  C_19
REMARK    3  A    between atoms: N_18  and  C_25
REMARK    4  A    between atoms: C_25  and  C_26
REMARK    5  A    between atoms: C_26  and  N_28
REMARK                            x       y       z     vdW  Elec       q    Type
REMARK                         _______ _______ _______ _____ _____    ______ ____
ROOT
ATOM      1 CL   UNL     1      31.325 -23.590 -13.681  0.00  0.00    -0.082 Cl
ATOM      2  N   UNL     1      36.965 -24.117 -15.115  0.00  0.00    -0.265 N 
ATOM      3  C   UNL     1      35.788 -22.785 -16.436  0.00  0.00    -0.006 C 
ATOM      4  C   UNL     1      34.917 -23.292 -15.435  0.00  0.00    +0.012 C 
ATOM      5  C   UNL     1      37.038 -23.307 -16.216  0.00  0.00    +0.065 C 
ATOM      6  C   UNL     1      35.681 -24.126 -14.617  0.00  0.00    +0.055 C 
ATOM      7  C   UNL     1      33.548 -23.123 -15.143  0.00  0.00    +0.012 C 
ATOM      8  C   UNL     1      35.143 -24.802 -13.516  0.00  0.00    +0.016 C 
ATOM      9  C   UNL     1      32.998 -23.794 -14.046  0.00  0.00    +0.058 C 
ATOM     10  C   UNL     1      33.784 -24.620 -13.246  0.00  0.00    +0.013 C 
ENDROOT
BRANCH   2  12
ATOM     11  F   UNL     1      41.246 -26.894 -13.033  0.00  0.00    -0.204 F 
ATOM     12  C   UNL     1      38.050 -24.821 -14.587  0.00  0.00    +0.056 C 
ATOM     13  C   UNL     1      37.907 -25.493 -13.382  0.00  0.00    +0.017 C 
ATOM     14  C   UNL     1      39.254 -24.836 -15.277  0.00  0.00    +0.017 C 
ATOM     15  C   UNL     1      38.991 -26.195 -12.854  0.00  0.00    +0.031 C 
ATOM     16  C   UNL     1      40.338 -25.538 -14.749  0.00  0.00    +0.031 C 
ATOM     17  C   UNL     1      40.206 -26.219 -13.539  0.00  0.00    +0.140 C 
ENDBRANCH   2  12
BRANCH   3  19
ATOM     18  N   UNL     1      35.096 -21.122 -20.380  0.00  0.00    +0.388 N 
ATOM     19  C   UNL     1      35.413 -21.838 -17.553  0.00  0.00    +0.019 C 
ATOM     20  C   UNL     1      36.607 -21.480 -18.454  0.00  0.00    -0.018 C 
ATOM     21  C   UNL     1      34.252 -22.362 -18.413  0.00  0.00    -0.018 C 
ATOM     22  C   UNL     1      36.186 -20.540 -19.586  0.00  0.00    -0.077 C 
ATOM     23  C   UNL     1      33.917 -21.391 -19.547  0.00  0.00    -0.077 C 
ATOM     24  H   UNL     1      35.423 -22.011 -20.759  0.00  0.00    -0.080 HD
BRANCH  18  25
ATOM     25  C   UNL     1      34.745 -20.238 -21.492  0.00  0.00    -0.055 C 
BRANCH  25  26
ATOM     26  C   UNL     1      35.148 -18.805 -21.175  0.00  0.00    +0.077 C 
BRANCH  26  28
ATOM     27  O   UNL     1      35.142 -15.804 -21.337  0.00  0.00    -0.252 OA
ATOM     28  N   UNL     1      34.951 -17.945 -22.310  0.00  0.00    -0.243 N 
ATOM     29  N   UNL     1      34.767 -16.116 -23.626  0.00  0.00    -0.266 N 
ATOM     30  C   UNL     1      34.788 -18.462 -23.658  0.00  0.00    +0.085 C 
ATOM     31  C   UNL     1      34.548 -17.229 -24.515  0.00  0.00    +0.082 C 
ATOM     32  C   UNL     1      34.973 -16.537 -22.303  0.00  0.00    +0.311 C 
ATOM     33  H   UNL     1      34.770 -15.174 -23.913  0.00  0.00    +0.157 HD
ENDBRANCH  26  28
ENDBRANCH  25  26
ENDBRANCH  18  25
ENDBRANCH   3  19
TORSDOF 5
ENDMDL
MODEL 6
REMARK VINA RESULT:      -9.7     10.308     14.412
REMARK  Name = 60149
REMARK  5 active torsions:
REMARK  status: ('A' for Active; 'I' for Inactive)
REMARK    1  A    between atoms: N_2  and  C_12
REMARK    2  A    between atoms: C_3  and  C_19
REMARK    3  A    between atoms: N_18  and  C_25
REMARK    4  A    between atoms: C_25  and  C_26
REMARK    5  A    between atoms: C_26  and  N_28
REMARK                            x       y       z     vdW  Elec       q    Type
REMARK                         _______ _______ _______ _____ _____    ______ ____
ROOT
ATOM      1 CL   UNL     1      30.690 -10.099 -18.680  0.00  0.00    -0.082 Cl
ATOM      2  N   UNL     1      33.354 -12.577 -23.251  0.00  0.00    -0.265 N 
ATOM      3  C   UNL     1      33.123 -10.378 -23.386  0.00  0.00    -0.006 C 
ATOM      4  C   UNL     1      32.555 -10.804 -22.156  0.00  0.00    +0.012 C 
ATOM      5  C   UNL     1      33.606 -11.485 -24.038  0.00  0.00    +0.065 C 
ATOM      6  C   UNL     1      32.714 -12.190 -22.095  0.00  0.00    +0.055 C 
ATOM      7  C   UNL     1      31.919 -10.146 -21.085  0.00  0.00    +0.012 C 
ATOM      8  C   UNL     1      32.267 -12.954 -21.011  0.00  0.00    +0.016 C 
ATOM      9  C   UNL     1      31.467 -10.898 -19.995  0.00  0.00    +0.058 C 
ATOM     10  C   UNL     1      31.639 -12.280 -19.960  0.00  0.00    +0.013 C 
ENDROOT
BRANCH   2  12
ATOM     11  F   UNL     1      34.751 -17.737 -24.590  0.00  0.00    -0.204 F 
ATOM     12  C   UNL     1      33.708 -13.885 -23.590  0.00  0.00    +0.056 C 
ATOM     13  C   UNL     1      33.212 -14.446 -24.758  0.00  0.00    +0.017 C 
ATOM     14  C   UNL     1      34.552 -14.602 -22.754  0.00  0.00    +0.017 C 
ATOM     15  C   UNL     1      33.564 -15.753 -25.096  0.00  0.00    +0.031 C 
ATOM     16  C   UNL     1      34.904 -15.909 -23.092  0.00  0.00    +0.031 C 
ATOM     17  C   UNL     1      34.412 -16.484 -24.264  0.00  0.00    +0.140 C 
ENDBRANCH   2  12
BRANCH   3  19
ATOM     18  N   UNL     1      32.876  -6.055 -23.606  0.00  0.00    +0.388 N 
ATOM     19  C   UNL     1      33.188  -8.957 -23.898  0.00  0.00    +0.019 C 
ATOM     20  C   UNL     1      31.814  -8.268 -23.915  0.00  0.00    -0.018 C 
ATOM     21  C   UNL     1      34.194  -8.092 -23.122  0.00  0.00    -0.018 C 
ATOM     22  C   UNL     1      31.921  -6.826 -24.414  0.00  0.00    -0.077 C 
ATOM     23  C   UNL     1      34.215  -6.655 -23.650  0.00  0.00    -0.077 C 
ATOM     24  H   UNL     1      32.555  -6.072 -22.638  0.00  0.00    -0.080 HD
BRANCH  18  25
ATOM     25  C   UNL     1      32.924  -4.664 -24.060  0.00  0.00    -0.055 C 
BRANCH  25  26
ATOM     26  C   UNL     1      31.570  -4.242 -24.611  0.00  0.00    +0.077 C 
BRANCH  26  28
ATOM     27  O   UNL     1      29.235  -2.419 -25.120  0.00  0.00    -0.252 OA
ATOM     28  N   UNL     1      30.914  -3.317 -23.726  0.00  0.00    -0.243 N 
ATOM     29  N   UNL     1      29.482  -1.786 -22.880  0.00  0.00    -0.266 N 
ATOM     30  C   UNL     1      31.281  -3.186 -22.327  0.00  0.00    +0.085 C 
ATOM     31  C   UNL     1      30.390  -2.072 -21.800  0.00  0.00    +0.082 C 
ATOM     32  C   UNL     1      29.811  -2.501 -24.042  0.00  0.00    +0.311 C 
ATOM     33  H   UNL     1      28.722  -1.163 -22.811  0.00  0.00    +0.157 HD
ENDBRANCH  26  28
ENDBRANCH  25  26
ENDBRANCH  18  25
ENDBRANCH   3  19
TORSDOF 5
ENDMDL
