MODEL 1
REMARK VINA RESULT:     -12.6      0.000      0.000
REMARK  Name = 198752
REMARK  6 active torsions:
REMARK  status: ('A' for Active; 'I' for Inactive)
REMARK    1  A    between atoms: C_1  and  C_3
REMARK    2  A    between atoms: C_1  and  C_16
REMARK    3  A    between atoms: N_2  and  C_9
REMARK    4  A    between atoms: C_9  and  C_10
REMARK    5  A    between atoms: C_16  and  C_18
REMARK    6  A    between atoms: C_18  and  C_20
REMARK                            x       y       z     vdW  Elec       q    Type
REMARK                         _______ _______ _______ _____ _____    ______ ____
ROOT
ATOM      1  C   UNL     1      36.322 -21.743 -18.538  0.00  0.00    +0.008 C 
ENDROOT
BRANCH   1   3
ATOM      2  N   UNL     1      35.459 -18.641 -21.417  0.00  0.00    +0.390 N 
ATOM      3  C   UNL     1      36.180 -21.032 -19.880  0.00  0.00    -0.004 C 
ATOM      4  C   UNL     1      37.079 -19.792 -19.944  0.00  0.00    -0.023 C 
ATOM      5  C   UNL     1      34.725 -20.629 -20.140  0.00  0.00    -0.023 C 
ATOM      6  C   UNL     1      36.868 -19.018 -21.247  0.00  0.00    -0.077 C 
ATOM      7  C   UNL     1      34.592 -19.827 -21.436  0.00  0.00    -0.077 C 
ATOM      8  H   UNL     1      35.188 -18.067 -20.620  0.00  0.00    -0.079 HD
BRANCH   2   9
ATOM      9  C   UNL     1      35.282 -17.858 -22.640  0.00  0.00    -0.050 C 
BRANCH   9  10
ATOM     10  C   UNL     1      34.887 -16.436 -22.343  0.00  0.00    -0.043 C 
ATOM     11  C   UNL     1      34.655 -15.558 -23.393  0.00  0.00    -0.006 C 
ATOM     12  C   UNL     1      34.760 -16.022 -21.024  0.00  0.00    -0.006 C 
ATOM     13  C   UNL     1      34.290 -14.240 -23.117  0.00  0.00    -0.000 C 
ATOM     14  C   UNL     1      34.395 -14.706 -20.749  0.00  0.00    -0.000 C 
ATOM     15  C   UNL     1      34.160 -13.814 -21.796  0.00  0.00    -0.000 C 
ENDBRANCH   9  10
ENDBRANCH   2   9
ENDBRANCH   1   3
BRANCH   1  16
ATOM     16  C   UNL     1      35.028 -22.453 -18.140  0.00  0.00    +0.069 C 
BRANCH  16  18
ATOM     17  O   UNL     1      36.186 -23.302 -16.204  0.00  0.00    -0.291 OA
ATOM     18  C   UNL     1      35.078 -23.077 -16.732  0.00  0.00    +0.173 C 
BRANCH  18  20
ATOM     19  N   UNL     1      30.222 -23.076 -16.657  0.00  0.00    -0.333 N 
ATOM     20  C   UNL     1      33.842 -23.396 -16.036  0.00  0.00    +0.036 C 
ATOM     21  C   UNL     1      31.439 -24.020 -14.713  0.00  0.00    -0.009 C 
ATOM     22  C   UNL     1      30.209 -24.443 -13.934  0.00  0.00    +0.028 C 
ATOM     23  C   UNL     1      31.390 -23.424 -15.993  0.00  0.00    +0.041 C 
ATOM     24  C   UNL     1      29.145 -25.123 -14.796  0.00  0.00    +0.006 C 
ATOM     25  C   UNL     1      28.278 -24.154 -15.600  0.00  0.00    +0.022 C 
ATOM     26  C   UNL     1      32.611 -23.139 -16.640  0.00  0.00    +0.017 C 
ATOM     27  C   UNL     1      28.960 -22.851 -15.988  0.00  0.00    +0.087 C 
ATOM     28  C   UNL     1      33.882 -23.946 -14.764  0.00  0.00    +0.003 C 
ATOM     29  C   UNL     1      32.692 -24.253 -14.108  0.00  0.00    -0.003 C 
ATOM     30  H   UNL     1      30.254 -22.975 -17.636  0.00  0.00    +0.147 HD
ENDBRANCH  18  20
ENDBRANCH  16  18
ENDBRANCH   1  16
TORSDOF 6
ENDMDL
MODEL 2
REMARK VINA RESULT:     -12.1      4.008      7.794
REMARK  Name = 198752
REMARK  6 active torsions:
REMARK  status: ('A' for Active; 'I' for Inactive)
REMARK    1  A    between atoms: C_1  and  C_3
REMARK    2  A    between atoms: C_1  and  C_16
REMARK    3  A    between atoms: N_2  and  C_9
REMARK    4  A    between atoms: C_9  and  C_10
REMARK    5  A    between atoms: C_16  and  C_18
REMARK    6  A    between atoms: C_18  and  C_20
REMARK                            x       y       z     vdW  Elec       q    Type
REMARK                         _______ _______ _______ _____ _____    ______ ____
ROOT
ATOM      1  C   UNL     1      34.562 -15.449 -22.231  0.00  0.00    +0.008 C 
ENDROOT
BRANCH   1   3
ATOM      2  N   UNL     1      32.559 -11.623 -22.170  0.00  0.00    +0.390 N 
ATOM      3  C   UNL     1      33.513 -14.375 -22.503  0.00  0.00    -0.004 C 
ATOM      4  C   UNL     1      34.118 -13.196 -23.271  0.00  0.00    -0.023 C 
ATOM      5  C   UNL     1      32.885 -13.874 -21.197  0.00  0.00    -0.023 C 
ATOM      6  C   UNL     1      33.098 -12.072 -23.460  0.00  0.00    -0.077 C 
ATOM      7  C   UNL     1      31.906 -12.728 -21.455  0.00  0.00    -0.077 C 
ATOM      8  H   UNL     1      33.339 -11.297 -21.599  0.00  0.00    -0.079 HD
BRANCH   2   9
ATOM      9  C   UNL     1      31.624 -10.514 -22.361  0.00  0.00    -0.050 C 
BRANCH   9  10
ATOM     10  C   UNL     1      32.071  -9.272 -21.637  0.00  0.00    -0.043 C 
ATOM     11  C   UNL     1      32.812  -8.315 -22.317  0.00  0.00    -0.006 C 
ATOM     12  C   UNL     1      31.737  -9.101 -20.301  0.00  0.00    -0.006 C 
ATOM     13  C   UNL     1      33.227  -7.164 -21.645  0.00  0.00    -0.000 C 
ATOM     14  C   UNL     1      32.151  -7.951 -19.630  0.00  0.00    -0.000 C 
ATOM     15  C   UNL     1      32.897  -6.982 -20.303  0.00  0.00    -0.000 C 
ENDBRANCH   9  10
ENDBRANCH   2   9
ENDBRANCH   1   3
BRANCH   1  16
ATOM     16  C   UNL     1      35.092 -16.057 -23.530  0.00  0.00    +0.069 C 
BRANCH  16  18
ATOM     17  O   UNL     1      34.322 -17.996 -24.737  0.00  0.00    -0.291 OA
ATOM     18  C   UNL     1      34.797 -17.562 -23.667  0.00  0.00    +0.173 C 
BRANCH  18  20
ATOM     19  N   UNL     1      33.180 -20.818 -20.446  0.00  0.00    -0.333 N 
ATOM     20  C   UNL     1      35.073 -18.460 -22.557  0.00  0.00    +0.036 C 
ATOM     21  C   UNL     1      35.586 -20.215 -20.419  0.00  0.00    -0.009 C 
ATOM     22  C   UNL     1      35.985 -21.164 -19.305  0.00  0.00    +0.028 C 
ATOM     23  C   UNL     1      34.276 -20.123 -20.940  0.00  0.00    +0.041 C 
ATOM     24  C   UNL     1      35.367 -22.555 -19.439  0.00  0.00    +0.006 C 
ATOM     25  C   UNL     1      33.916 -22.643 -18.968  0.00  0.00    +0.022 C 
ATOM     26  C   UNL     1      34.052 -19.248 -22.024  0.00  0.00    +0.017 C 
ATOM     27  C   UNL     1      33.114 -21.358 -19.106  0.00  0.00    +0.087 C 
ATOM     28  C   UNL     1      36.347 -18.528 -22.017  0.00  0.00    +0.003 C 
ATOM     29  C   UNL     1      36.601 -19.396 -20.957  0.00  0.00    -0.003 C 
ATOM     30  H   UNL     1      32.406 -20.950 -21.040  0.00  0.00    +0.147 HD
ENDBRANCH  18  20
ENDBRANCH  16  18
ENDBRANCH   1  16
TORSDOF 6
ENDMDL
MODEL 3
REMARK VINA RESULT:     -12.0      1.589      2.255
REMARK  Name = 198752
REMARK  6 active torsions:
REMARK  status: ('A' for Active; 'I' for Inactive)
REMARK    1  A    between atoms: C_1  and  C_3
REMARK    2  A    between atoms: C_1  and  C_16
REMARK    3  A    between atoms: N_2  and  C_9
REMARK    4  A    between atoms: C_9  and  C_10
REMARK    5  A    between atoms: C_16  and  C_18
REMARK    6  A    between atoms: C_18  and  C_20
REMARK                            x       y       z     vdW  Elec       q    Type
REMARK                         _______ _______ _______ _____ _____    ______ ____
ROOT
ATOM      1  C   UNL     1      35.773 -20.990 -19.433  0.00  0.00    +0.008 C 
ENDROOT
BRANCH   1   3
ATOM      2  N   UNL     1      35.071 -18.115 -22.579  0.00  0.00    +0.390 N 
ATOM      3  C   UNL     1      35.723 -20.375 -20.828  0.00  0.00    -0.004 C 
ATOM      4  C   UNL     1      36.595 -19.117 -20.907  0.00  0.00    -0.023 C 
ATOM      5  C   UNL     1      34.284 -20.033 -21.228  0.00  0.00    -0.023 C 
ATOM      6  C   UNL     1      36.471 -18.438 -22.272  0.00  0.00    -0.077 C 
ATOM      7  C   UNL     1      34.237 -19.324 -22.583  0.00  0.00    -0.077 C 
ATOM      8  H   UNL     1      34.723 -17.496 -21.846  0.00  0.00    -0.079 HD
BRANCH   2   9
ATOM      9  C   UNL     1      34.974 -17.421 -23.863  0.00  0.00    -0.050 C 
BRANCH   9  10
ATOM     10  C   UNL     1      34.451 -16.018 -23.704  0.00  0.00    -0.043 C 
ATOM     11  C   UNL     1      34.703 -15.325 -22.528  0.00  0.00    -0.006 C 
ATOM     12  C   UNL     1      33.725 -15.437 -24.734  0.00  0.00    -0.006 C 
ATOM     13  C   UNL     1      34.218 -14.025 -22.380  0.00  0.00    -0.000 C 
ATOM     14  C   UNL     1      33.242 -14.138 -24.587  0.00  0.00    -0.000 C 
ATOM     15  C   UNL     1      33.488 -13.432 -23.409  0.00  0.00    -0.000 C 
ENDBRANCH   9  10
ENDBRANCH   2   9
ENDBRANCH   1   3
BRANCH   1  16
ATOM     16  C   UNL     1      35.229 -22.419 -19.430  0.00  0.00    +0.069 C 
BRANCH  16  18
ATOM     17  O   UNL     1      32.828 -22.253 -19.576  0.00  0.00    -0.291 OA
ATOM     18  C   UNL     1      33.806 -22.531 -18.851  0.00  0.00    +0.173 C 
BRANCH  18  20
ATOM     19  N   UNL     1      30.777 -23.682 -15.233  0.00  0.00    -0.333 N 
ATOM     20  C   UNL     1      33.614 -22.957 -17.474  0.00  0.00    +0.036 C 
ATOM     21  C   UNL     1      33.219 -23.796 -14.818  0.00  0.00    -0.009 C 
ATOM     22  C   UNL     1      33.124 -24.299 -13.391  0.00  0.00    +0.028 C 
ATOM     23  C   UNL     1      32.097 -23.564 -15.644  0.00  0.00    +0.041 C 
ATOM     24  C   UNL     1      32.086 -25.405 -13.202  0.00  0.00    +0.006 C 
ATOM     25  C   UNL     1      30.647 -24.902 -13.100  0.00  0.00    +0.022 C 
ATOM     26  C   UNL     1      32.326 -23.161 -16.977  0.00  0.00    +0.017 C 
ATOM     27  C   UNL     1      30.362 -23.610 -13.850  0.00  0.00    +0.087 C 
ATOM     28  C   UNL     1      34.709 -23.151 -16.647  0.00  0.00    +0.003 C 
ATOM     29  C   UNL     1      34.514 -23.565 -15.331  0.00  0.00    -0.003 C 
ATOM     30  H   UNL     1      30.085 -23.820 -15.920  0.00  0.00    +0.147 HD
ENDBRANCH  18  20
ENDBRANCH  16  18
ENDBRANCH   1  16
TORSDOF 6
ENDMDL
MODEL 4
REMARK VINA RESULT:     -11.7      4.588     11.604
REMARK  Name = 198752
REMARK  6 active torsions:
REMARK  status: ('A' for Active; 'I' for Inactive)
REMARK    1  A    between atoms: C_1  and  C_3
REMARK    2  A    between atoms: C_1  and  C_16
REMARK    3  A    between atoms: N_2  and  C_9
REMARK    4  A    between atoms: C_9  and  C_10
REMARK    5  A    between atoms: C_16  and  C_18
REMARK    6  A    between atoms: C_18  and  C_20
REMARK                            x       y       z     vdW  Elec       q    Type
REMARK                         _______ _______ _______ _____ _____    ______ ____
ROOT
ATOM      1  C   UNL     1      34.188 -13.736 -22.613  0.00  0.00    +0.008 C 
ENDROOT
BRANCH   1   3
ATOM      2  N   UNL     1      34.761 -18.003 -22.260  0.00  0.00    +0.390 N 
ATOM      3  C   UNL     1      34.888 -15.091 -22.582  0.00  0.00    -0.004 C 
ATOM      4  C   UNL     1      34.345 -16.017 -23.675  0.00  0.00    -0.023 C 
ATOM      5  C   UNL     1      34.733 -15.761 -21.213  0.00  0.00    -0.023 C 
ATOM      6  C   UNL     1      34.971 -17.410 -23.587  0.00  0.00    -0.077 C 
ATOM      7  C   UNL     1      35.346 -17.163 -21.206  0.00  0.00    -0.077 C 
ATOM      8  H   UNL     1      33.756 -18.058 -22.095  0.00  0.00    -0.079 HD
BRANCH   2   9
ATOM      9  C   UNL     1      35.319 -19.354 -22.206  0.00  0.00    -0.050 C 
BRANCH   9  10
ATOM     10  C   UNL     1      34.717 -20.166 -21.091  0.00  0.00    -0.043 C 
ATOM     11  C   UNL     1      35.546 -20.917 -20.268  0.00  0.00    -0.006 C 
ATOM     12  C   UNL     1      33.343 -20.151 -20.898  0.00  0.00    -0.006 C 
ATOM     13  C   UNL     1      34.988 -21.669 -19.235  0.00  0.00    -0.000 C 
ATOM     14  C   UNL     1      32.785 -20.903 -19.865  0.00  0.00    -0.000 C 
ATOM     15  C   UNL     1      33.608 -21.663 -19.033  0.00  0.00    -0.000 C 
ENDBRANCH   9  10
ENDBRANCH   2   9
ENDBRANCH   1   3
BRANCH   1  16
ATOM     16  C   UNL     1      32.674 -13.883 -22.458  0.00  0.00    +0.069 C 
BRANCH  16  18
ATOM     17  O   UNL     1      31.731 -13.898 -20.240  0.00  0.00    -0.291 OA
ATOM     18  C   UNL     1      32.117 -13.196 -21.198  0.00  0.00    +0.173 C 
BRANCH  18  20
ATOM     19  N   UNL     1      32.292  -8.915 -23.484  0.00  0.00    -0.333 N 
ATOM     20  C   UNL     1      32.046 -11.746 -21.134  0.00  0.00    +0.036 C 
ATOM     21  C   UNL     1      31.896  -8.938 -21.036  0.00  0.00    -0.009 C 
ATOM     22  C   UNL     1      31.747  -7.438 -20.876  0.00  0.00    +0.028 C 
ATOM     23  C   UNL     1      32.108  -9.576 -22.278  0.00  0.00    +0.041 C 
ATOM     24  C   UNL     1      30.887  -6.790 -21.960  0.00  0.00    +0.006 C 
ATOM     25  C   UNL     1      31.617  -6.557 -23.282  0.00  0.00    +0.022 C 
ATOM     26  C   UNL     1      32.161 -10.987 -22.299  0.00  0.00    +0.017 C 
ATOM     27  C   UNL     1      32.736  -7.542 -23.583  0.00  0.00    +0.087 C 
ATOM     28  C   UNL     1      31.875 -11.110 -19.914  0.00  0.00    +0.003 C 
ATOM     29  C   UNL     1      31.802  -9.720 -19.865  0.00  0.00    -0.003 C 
ATOM     30  H   UNL     1      32.112  -9.407 -24.318  0.00  0.00    +0.147 HD
ENDBRANCH  18  20
ENDBRANCH  16  18
ENDBRANCH   1  16
TORSDOF 6
ENDMDL
MODEL 5
REMARK VINA RESULT:     -11.6      2.870      4.639
REMARK  Name = 198752
REMARK  6 active torsions:
REMARK  status: ('A' for Active; 'I' for Inactive)
REMARK    1  A    between atoms: C_1  and  C_3
REMARK    2  A    between atoms: C_1  and  C_16
REMARK    3  A    between atoms: N_2  and  C_9
REMARK    4  A    between atoms: C_9  and  C_10
REMARK    5  A    between atoms: C_16  and  C_18
REMARK    6  A    between atoms: C_18  and  C_20
REMARK                            x       y       z     vdW  Elec       q    Type
REMARK                         _______ _______ _______ _____ _____    ______ ____
ROOT
ATOM      1  C   UNL     1      32.771 -22.447 -18.254  0.00  0.00    +0.008 C 
ENDROOT
BRANCH   1   3
ATOM      2  N   UNL     1      35.058 -19.650 -20.621  0.00  0.00    +0.390 N 
ATOM      3  C   UNL     1      33.562 -21.869 -19.423  0.00  0.00    -0.004 C 
ATOM      4  C   UNL     1      34.993 -21.519 -19.001  0.00  0.00    -0.023 C 
ATOM      5  C   UNL     1      32.872 -20.625 -19.995  0.00  0.00    -0.023 C 
ATOM      6  C   UNL     1      35.761 -20.847 -20.141  0.00  0.00    -0.077 C 
ATOM      7  C   UNL     1      33.711 -19.983 -21.101  0.00  0.00    -0.077 C 
ATOM      8  H   UNL     1      34.961 -19.006 -19.835  0.00  0.00    -0.079 HD
BRANCH   2   9
ATOM      9  C   UNL     1      35.829 -18.990 -21.674  0.00  0.00    -0.050 C 
BRANCH   9  10
ATOM     10  C   UNL     1      35.327 -17.597 -21.947  0.00  0.00    -0.043 C 
ATOM     11  C   UNL     1      35.102 -16.732 -20.884  0.00  0.00    -0.006 C 
ATOM     12  C   UNL     1      35.098 -17.195 -23.255  0.00  0.00    -0.006 C 
ATOM     13  C   UNL     1      34.636 -15.442 -21.137  0.00  0.00    -0.000 C 
ATOM     14  C   UNL     1      34.633 -15.905 -23.507  0.00  0.00    -0.000 C 
ATOM     15  C   UNL     1      34.402 -15.028 -22.447  0.00  0.00    -0.000 C 
ENDBRANCH   9  10
ENDBRANCH   2   9
ENDBRANCH   1   3
BRANCH   1  16
ATOM     16  C   UNL     1      33.608 -23.440 -17.446  0.00  0.00    +0.069 C 
BRANCH  16  18
ATOM     17  O   UNL     1      31.952 -23.316 -15.698  0.00  0.00    -0.291 OA
ATOM     18  C   UNL     1      33.132 -23.601 -15.990  0.00  0.00    +0.173 C 
BRANCH  18  20
ATOM     19  N   UNL     1      37.458 -25.496 -14.858  0.00  0.00    -0.333 N 
ATOM     20  C   UNL     1      34.056 -24.080 -14.974  0.00  0.00    +0.036 C 
ATOM     21  C   UNL     1      35.864 -24.997 -13.024  0.00  0.00    -0.009 C 
ATOM     22  C   UNL     1      36.777 -25.419 -11.889  0.00  0.00    +0.028 C 
ATOM     23  C   UNL     1      36.245 -25.015 -14.385  0.00  0.00    +0.041 C 
ATOM     24  C   UNL     1      38.214 -24.923 -12.045  0.00  0.00    +0.006 C 
ATOM     25  C   UNL     1      39.062 -25.753 -13.008  0.00  0.00    +0.022 C 
ATOM     26  C   UNL     1      35.324 -24.532 -15.339  0.00  0.00    +0.017 C 
ATOM     27  C   UNL     1      38.286 -26.430 -14.128  0.00  0.00    +0.087 C 
ATOM     28  C   UNL     1      33.675 -24.100 -13.642  0.00  0.00    +0.003 C 
ATOM     29  C   UNL     1      34.570 -24.556 -12.676  0.00  0.00    -0.003 C 
ATOM     30  H   UNL     1      37.772 -25.186 -15.739  0.00  0.00    +0.147 HD
ENDBRANCH  18  20
ENDBRANCH  16  18
ENDBRANCH   1  16
TORSDOF 6
ENDMDL
MODEL 6
REMARK VINA RESULT:     -11.6      2.410      3.724
REMARK  Name = 198752
REMARK  6 active torsions:
REMARK  status: ('A' for Active; 'I' for Inactive)
REMARK    1  A    between atoms: C_1  and  C_3
REMARK    2  A    between atoms: C_1  and  C_16
REMARK    3  A    between atoms: N_2  and  C_9
REMARK    4  A    between atoms: C_9  and  C_10
REMARK    5  A    between atoms: C_16  and  C_18
REMARK    6  A    between atoms: C_18  and  C_20
REMARK                            x       y       z     vdW  Elec       q    Type
REMARK                         _______ _______ _______ _____ _____    ______ ____
ROOT
ATOM      1  C   UNL     1      35.673 -21.247 -19.174  0.00  0.00    +0.008 C 
ENDROOT
BRANCH   1   3
ATOM      2  N   UNL     1      35.131 -18.305 -22.290  0.00  0.00    +0.390 N 
ATOM      3  C   UNL     1      35.664 -20.613 -20.562  0.00  0.00    -0.004 C 
ATOM      4  C   UNL     1      36.592 -19.395 -20.617  0.00  0.00    -0.023 C 
ATOM      5  C   UNL     1      34.245 -20.202 -20.970  0.00  0.00    -0.023 C 
ATOM      6  C   UNL     1      36.512 -18.696 -21.976  0.00  0.00    -0.077 C 
ATOM      7  C   UNL     1      34.243 -19.475 -22.317  0.00  0.00    -0.077 C 
ATOM      8  H   UNL     1      34.805 -17.680 -21.554  0.00  0.00    -0.079 HD
BRANCH   2   9
ATOM      9  C   UNL     1      35.077 -17.593 -23.567  0.00  0.00    -0.050 C 
BRANCH   9  10
ATOM     10  C   UNL     1      34.566 -16.187 -23.402  0.00  0.00    -0.043 C 
ATOM     11  C   UNL     1      33.934 -15.561 -24.468  0.00  0.00    -0.006 C 
ATOM     12  C   UNL     1      34.733 -15.535 -22.188  0.00  0.00    -0.006 C 
ATOM     13  C   UNL     1      33.460 -14.257 -24.316  0.00  0.00    -0.000 C 
ATOM     14  C   UNL     1      34.260 -14.232 -22.036  0.00  0.00    -0.000 C 
ATOM     15  C   UNL     1      33.624 -13.593 -23.101  0.00  0.00    -0.000 C 
ENDBRANCH   9  10
ENDBRANCH   2   9
ENDBRANCH   1   3
BRANCH   1  16
ATOM     16  C   UNL     1      34.968 -22.603 -19.171  0.00  0.00    +0.069 C 
BRANCH  16  18
ATOM     17  O   UNL     1      32.670 -22.366 -18.481  0.00  0.00    -0.291 OA
ATOM     18  C   UNL     1      33.825 -22.698 -18.142  0.00  0.00    +0.173 C 
BRANCH  18  20
ATOM     19  N   UNL     1      37.065 -23.774 -14.687  0.00  0.00    -0.333 N 
ATOM     20  C   UNL     1      34.100 -23.171 -16.795  0.00  0.00    +0.036 C 
ATOM     21  C   UNL     1      34.653 -24.068 -14.187  0.00  0.00    -0.009 C 
ATOM     22  C   UNL     1      34.833 -24.516 -12.750  0.00  0.00    +0.028 C 
ATOM     23  C   UNL     1      35.722 -23.696 -15.032  0.00  0.00    +0.041 C 
ATOM     24  C   UNL     1      35.858 -23.686 -11.976  0.00  0.00    +0.006 C 
ATOM     25  C   UNL     1      37.311 -24.068 -12.256  0.00  0.00    +0.022 C 
ATOM     26  C   UNL     1      35.413 -23.233 -16.329  0.00  0.00    +0.017 C 
ATOM     27  C   UNL     1      37.572 -24.636 -13.643  0.00  0.00    +0.087 C 
ATOM     28  C   UNL     1      33.059 -23.573 -15.973  0.00  0.00    +0.003 C 
ATOM     29  C   UNL     1      33.332 -24.019 -14.682  0.00  0.00    -0.003 C 
ATOM     30  H   UNL     1      37.706 -23.213 -15.180  0.00  0.00    +0.147 HD
ENDBRANCH  18  20
ENDBRANCH  16  18
ENDBRANCH   1  16
TORSDOF 6
ENDMDL
MODEL 7
REMARK VINA RESULT:     -11.6      4.938     12.588
REMARK  Name = 198752
REMARK  6 active torsions:
REMARK  status: ('A' for Active; 'I' for Inactive)
REMARK    1  A    between atoms: C_1  and  C_3
REMARK    2  A    between atoms: C_1  and  C_16
REMARK    3  A    between atoms: N_2  and  C_9
REMARK    4  A    between atoms: C_9  and  C_10
REMARK    5  A    between atoms: C_16  and  C_18
REMARK    6  A    between atoms: C_18  and  C_20
REMARK                            x       y       z     vdW  Elec       q    Type
REMARK                         _______ _______ _______ _____ _____    ______ ____
ROOT
ATOM      1  C   UNL     1      33.628 -14.588 -23.956  0.00  0.00    +0.008 C 
ENDROOT
BRANCH   1   3
ATOM      2  N   UNL     1      35.050 -18.156 -21.980  0.00  0.00    +0.390 N 
ATOM      3  C   UNL     1      34.589 -15.653 -23.435  0.00  0.00    -0.004 C 
ATOM      4  C   UNL     1      34.269 -17.025 -24.037  0.00  0.00    -0.023 C 
ATOM      5  C   UNL     1      34.543 -15.735 -21.905  0.00  0.00    -0.023 C 
ATOM      6  C   UNL     1      35.164 -18.115 -23.444  0.00  0.00    -0.077 C 
ATOM      7  C   UNL     1      35.429 -16.868 -21.383  0.00  0.00    -0.077 C 
ATOM      8  H   UNL     1      34.074 -18.336 -21.745  0.00  0.00    -0.079 HD
BRANCH   2   9
ATOM      9  C   UNL     1      35.871 -19.235 -21.431  0.00  0.00    -0.050 C 
BRANCH   9  10
ATOM     10  C   UNL     1      35.054 -20.200 -20.613  0.00  0.00    -0.043 C 
ATOM     11  C   UNL     1      33.669 -20.113 -20.637  0.00  0.00    -0.006 C 
ATOM     12  C   UNL     1      35.696 -21.162 -19.846  0.00  0.00    -0.006 C 
ATOM     13  C   UNL     1      32.912 -21.007 -19.878  0.00  0.00    -0.000 C 
ATOM     14  C   UNL     1      34.940 -22.056 -19.089  0.00  0.00    -0.000 C 
ATOM     15  C   UNL     1      33.547 -21.977 -19.105  0.00  0.00    -0.000 C 
ENDBRANCH   9  10
ENDBRANCH   2   9
ENDBRANCH   1   3
BRANCH   1  16
ATOM     16  C   UNL     1      34.001 -13.197 -23.444  0.00  0.00    +0.069 C 
BRANCH  16  18
ATOM     17  O   UNL     1      31.992 -13.124 -22.114  0.00  0.00    -0.291 OA
ATOM     18  C   UNL     1      32.834 -12.463 -22.756  0.00  0.00    +0.173 C 
BRANCH  18  20
ATOM     19  N   UNL     1      34.881  -8.202 -23.872  0.00  0.00    -0.333 N 
ATOM     20  C   UNL     1      32.724 -11.017 -22.860  0.00  0.00    +0.036 C 
ATOM     21  C   UNL     1      32.529  -8.219 -23.083  0.00  0.00    -0.009 C 
ATOM     22  C   UNL     1      32.298  -6.727 -23.213  0.00  0.00    +0.028 C 
ATOM     23  C   UNL     1      33.736  -8.860 -23.442  0.00  0.00    +0.041 C 
ATOM     24  C   UNL     1      32.849  -6.134 -24.510  0.00  0.00    +0.006 C 
ATOM     25  C   UNL     1      34.356  -5.879 -24.490  0.00  0.00    +0.022 C 
ATOM     26  C   UNL     1      33.799 -10.266 -23.337  0.00  0.00    +0.017 C 
ATOM     27  C   UNL     1      35.155  -6.811 -23.592  0.00  0.00    +0.087 C 
ATOM     28  C   UNL     1      31.556 -10.378 -22.475  0.00  0.00    +0.003 C 
ATOM     29  C   UNL     1      31.460  -8.993 -22.584  0.00  0.00    -0.003 C 
ATOM     30  H   UNL     1      35.542  -8.711 -24.396  0.00  0.00    +0.147 HD
ENDBRANCH  18  20
ENDBRANCH  16  18
ENDBRANCH   1  16
TORSDOF 6
ENDMDL
MODEL 8
REMARK VINA RESULT:     -11.5      1.470      2.210
REMARK  Name = 198752
REMARK  6 active torsions:
REMARK  status: ('A' for Active; 'I' for Inactive)
REMARK    1  A    between atoms: C_1  and  C_3
REMARK    2  A    between atoms: C_1  and  C_16
REMARK    3  A    between atoms: N_2  and  C_9
REMARK    4  A    between atoms: C_9  and  C_10
REMARK    5  A    between atoms: C_16  and  C_18
REMARK    6  A    between atoms: C_18  and  C_20
REMARK                            x       y       z     vdW  Elec       q    Type
REMARK                         _______ _______ _______ _____ _____    ______ ____
ROOT
ATOM      1  C   UNL     1      36.723 -20.629 -19.170  0.00  0.00    +0.008 C 
ENDROOT
BRANCH   1   3
ATOM      2  N   UNL     1      35.103 -18.329 -22.447  0.00  0.00    +0.390 N 
ATOM      3  C   UNL     1      36.334 -20.237 -20.592  0.00  0.00    -0.004 C 
ATOM      4  C   UNL     1      37.025 -18.936 -21.013  0.00  0.00    -0.023 C 
ATOM      5  C   UNL     1      34.815 -20.081 -20.725  0.00  0.00    -0.023 C 
ATOM      6  C   UNL     1      36.563 -18.483 -22.400  0.00  0.00    -0.077 C 
ATOM      7  C   UNL     1      34.426 -19.591 -22.121  0.00  0.00    -0.077 C 
ATOM      8  H   UNL     1      34.837 -17.638 -21.746  0.00  0.00    -0.079 HD
BRANCH   2   9
ATOM      9  C   UNL     1      34.681 -17.846 -23.762  0.00  0.00    -0.050 C 
BRANCH   9  10
ATOM     10  C   UNL     1      34.345 -16.379 -23.740  0.00  0.00    -0.043 C 
ATOM     11  C   UNL     1      33.753 -15.797 -24.852  0.00  0.00    -0.006 C 
ATOM     12  C   UNL     1      34.632 -15.628 -22.608  0.00  0.00    -0.006 C 
ATOM     13  C   UNL     1      33.443 -14.437 -24.832  0.00  0.00    -0.000 C 
ATOM     14  C   UNL     1      34.321 -14.270 -22.587  0.00  0.00    -0.000 C 
ATOM     15  C   UNL     1      33.726 -13.673 -23.700  0.00  0.00    -0.000 C 
ENDBRANCH   9  10
ENDBRANCH   2   9
ENDBRANCH   1   3
BRANCH   1  16
ATOM     16  C   UNL     1      36.382 -22.091 -18.878  0.00  0.00    +0.069 C 
BRANCH  16  18
ATOM     17  O   UNL     1      37.086 -22.268 -16.579  0.00  0.00    -0.291 OA
ATOM     18  C   UNL     1      36.138 -22.377 -17.384  0.00  0.00    +0.173 C 
BRANCH  18  20
ATOM     19  N   UNL     1      33.313 -24.183 -13.871  0.00  0.00    -0.333 N 
ATOM     20  C   UNL     1      34.815 -22.768 -16.927  0.00  0.00    +0.036 C 
ATOM     21  C   UNL     1      32.261 -23.518 -16.016  0.00  0.00    -0.009 C 
ATOM     22  C   UNL     1      30.836 -23.842 -15.612  0.00  0.00    +0.028 C 
ATOM     23  C   UNL     1      33.371 -23.657 -15.154  0.00  0.00    +0.041 C 
ATOM     24  C   UNL     1      30.478 -23.367 -14.204  0.00  0.00    +0.006 C 
ATOM     25  C   UNL     1      30.981 -24.282 -13.088  0.00  0.00    +0.022 C 
ATOM     26  C   UNL     1      34.637 -23.256 -15.632  0.00  0.00    +0.017 C 
ATOM     27  C   UNL     1      32.253 -25.052 -13.412  0.00  0.00    +0.087 C 
ATOM     28  C   UNL     1      33.727 -22.670 -17.780  0.00  0.00    +0.003 C 
ATOM     29  C   UNL     1      32.462 -23.043 -17.330  0.00  0.00    -0.003 C 
ATOM     30  H   UNL     1      34.033 -23.952 -13.239  0.00  0.00    +0.147 HD
ENDBRANCH  18  20
ENDBRANCH  16  18
ENDBRANCH   1  16
TORSDOF 6
ENDMDL
MODEL 9
REMARK VINA RESULT:     -11.4      2.461      3.928
REMARK  Name = 198752
REMARK  6 active torsions:
REMARK  status: ('A' for Active; 'I' for Inactive)
REMARK    1  A    between atoms: C_1  and  C_3
REMARK    2  A    between atoms: C_1  and  C_16
REMARK    3  A    between atoms: N_2  and  C_9
REMARK    4  A    between atoms: C_9  and  C_10
REMARK    5  A    between atoms: C_16  and  C_18
REMARK    6  A    between atoms: C_18  and  C_20
REMARK                            x       y       z     vdW  Elec       q    Type
REMARK                         _______ _______ _______ _____ _____    ______ ____
ROOT
ATOM      1  C   UNL     1      35.823 -22.002 -18.671  0.00  0.00    +0.008 C 
ENDROOT
BRANCH   1   3
ATOM      2  N   UNL     1      35.534 -18.628 -21.352  0.00  0.00    +0.390 N 
ATOM      3  C   UNL     1      35.884 -21.183 -19.956  0.00  0.00    -0.004 C 
ATOM      4  C   UNL     1      36.887 -20.031 -19.828  0.00  0.00    -0.023 C 
ATOM      5  C   UNL     1      34.503 -20.628 -20.323  0.00  0.00    -0.023 C 
ATOM      6  C   UNL     1      36.880 -19.146 -21.077  0.00  0.00    -0.077 C 
ATOM      7  C   UNL     1      34.576 -19.723 -21.554  0.00  0.00    -0.077 C 
ATOM      8  H   UNL     1      35.230 -18.091 -20.540  0.00  0.00    -0.079 HD
BRANCH   2   9
ATOM      9  C   UNL     1      35.553 -17.743 -22.517  0.00  0.00    -0.050 C 
BRANCH   9  10
ATOM     10  C   UNL     1      35.011 -16.377 -22.192  0.00  0.00    -0.043 C 
ATOM     11  C   UNL     1      34.746 -15.485 -23.222  0.00  0.00    -0.006 C 
ATOM     12  C   UNL     1      34.782 -16.028 -20.868  0.00  0.00    -0.006 C 
ATOM     13  C   UNL     1      34.244 -14.218 -22.921  0.00  0.00    -0.000 C 
ATOM     14  C   UNL     1      34.279 -14.763 -20.567  0.00  0.00    -0.000 C 
ATOM     15  C   UNL     1      34.011 -13.857 -21.594  0.00  0.00    -0.000 C 
ENDBRANCH   9  10
ENDBRANCH   2   9
ENDBRANCH   1   3
BRANCH   1  16
ATOM     16  C   UNL     1      34.397 -22.087 -18.127  0.00  0.00    +0.069 C 
BRANCH  16  18
ATOM     17  O   UNL     1      33.520 -24.333 -18.139  0.00  0.00    -0.291 OA
ATOM     18  C   UNL     1      34.073 -23.439 -17.464  0.00  0.00    +0.173 C 
BRANCH  18  20
ATOM     19  N   UNL     1      37.467 -24.199 -14.074  0.00  0.00    -0.333 N 
ATOM     20  C   UNL     1      34.411 -23.663 -16.068  0.00  0.00    +0.036 C 
ATOM     21  C   UNL     1      35.091 -24.082 -13.370  0.00  0.00    -0.009 C 
ATOM     22  C   UNL     1      35.347 -24.251 -11.886  0.00  0.00    +0.028 C 
ATOM     23  C   UNL     1      36.116 -24.024 -14.341  0.00  0.00    +0.041 C 
ATOM     24  C   UNL     1      36.521 -23.419 -11.370  0.00  0.00    +0.006 C 
ATOM     25  C   UNL     1      37.893 -24.028 -11.656  0.00  0.00    +0.022 C 
ATOM     26  C   UNL     1      35.746 -23.795 -15.684  0.00  0.00    +0.017 C 
ATOM     27  C   UNL     1      37.967 -24.891 -12.907  0.00  0.00    +0.087 C 
ATOM     28  C   UNL     1      33.409 -23.758 -15.116  0.00  0.00    +0.003 C 
ATOM     29  C   UNL     1      33.745 -23.968 -13.780  0.00  0.00    -0.003 C 
ATOM     30  H   UNL     1      38.120 -23.833 -14.714  0.00  0.00    +0.147 HD
ENDBRANCH  18  20
ENDBRANCH  16  18
ENDBRANCH   1  16
TORSDOF 6
ENDMDL
