MODEL 1
REMARK VINA RESULT:     -11.3      0.000      0.000
REMARK  Name = 445841
REMARK  2 active torsions:
REMARK  status: ('A' for Active; 'I' for Inactive)
REMARK    1  A    between atoms: N_2  and  C_22
REMARK    2  A    between atoms: C_6  and  C_27
REMARK                            x       y       z     vdW  Elec       q    Type
REMARK                         _______ _______ _______ _____ _____    ______ ____
ROOT
ATOM      1  O   UNL     1      34.395 -21.235 -20.369  0.00  0.00    -0.252 OA
ATOM      2  N   UNL     1      35.829 -19.539 -21.110  0.00  0.00    -0.268 N 
ATOM      3  N   UNL     1      35.557 -23.001 -16.742  0.00  0.00    -0.241 N 
ATOM      4  N   UNL     1      36.288 -20.638 -19.131  0.00  0.00    -0.252 N 
ATOM      5  N   UNL     1      35.238 -22.396 -17.899  0.00  0.00    -0.166 NA
ATOM      6  C   UNL     1      36.693 -22.519 -16.163  0.00  0.00    +0.026 C 
ATOM      7  C   UNL     1      37.151 -21.529 -16.999  0.00  0.00    +0.046 C 
ATOM      8  C   UNL     1      36.215 -21.509 -18.037  0.00  0.00    +0.154 C 
ATOM      9  C   UNL     1      35.398 -20.548 -20.212  0.00  0.00    +0.309 C 
ATOM     10  H   UNL     1      36.655 -19.067 -20.855  0.00  0.00    +0.156 HD
ATOM     11  H   UNL     1      35.020 -23.726 -16.349  0.00  0.00    +0.174 HD
ATOM     12  H   UNL     1      37.052 -20.017 -19.142  0.00  0.00    +0.158 HD
ENDROOT
BRANCH   2  22
ATOM     13  O   UNL     1      33.687 -15.302 -24.637  0.00  0.00    -0.270 OA
ATOM     14  N   UNL     1      34.806 -15.514 -22.573  0.00  0.00    -0.274 N 
ATOM     15  C   UNL     1      35.355 -16.589 -21.763  0.00  0.00    +0.100 C 
ATOM     16  C   UNL     1      34.673 -16.355 -20.424  0.00  0.00    +0.026 C 
ATOM     17  C   UNL     1      34.646 -14.820 -20.346  0.00  0.00    +0.024 C 
ATOM     18  C   UNL     1      34.384 -14.372 -21.787  0.00  0.00    +0.094 C 
ATOM     19  C   UNL     1      35.021 -17.788 -22.575  0.00  0.00    +0.014 C 
ATOM     20  C   UNL     1      34.445 -17.398 -23.791  0.00  0.00    +0.052 C 
ATOM     21  C   UNL     1      34.273 -15.937 -23.779  0.00  0.00    +0.249 C 
ATOM     22  C   UNL     1      35.241 -19.125 -22.303  0.00  0.00    +0.049 C 
ATOM     23  C   UNL     1      34.062 -18.306 -24.758  0.00  0.00    +0.004 C 
ATOM     24  C   UNL     1      34.865 -20.063 -23.270  0.00  0.00    +0.014 C 
ATOM     25  C   UNL     1      34.282 -19.657 -24.487  0.00  0.00    +0.001 C 
ENDBRANCH   2  22
BRANCH   6  27
ATOM     26  N   UNL     1      36.140 -23.510 -13.968  0.00  0.00    +0.388 N 
ATOM     27  C   UNL     1      37.225 -23.062 -14.856  0.00  0.00    -0.023 C 
ATOM     28  C   UNL     1      38.140 -24.280 -15.033  0.00  0.00    -0.018 C 
ATOM     29  C   UNL     1      37.521 -25.365 -14.166  0.00  0.00    -0.025 C 
ATOM     30  C   UNL     1      36.694 -24.592 -13.160  0.00  0.00    -0.081 C 
ATOM     31  H   UNL     1      35.351 -23.849 -14.518  0.00  0.00    -0.084 HD
ATOM     32  H   UNL     1      35.798 -22.747 -13.384  0.00  0.00    -0.084 HD
ENDBRANCH   6  27
TORSDOF 2
ENDMDL
MODEL 2
REMARK VINA RESULT:     -10.7      3.154     10.185
REMARK  Name = 445841
REMARK  2 active torsions:
REMARK  status: ('A' for Active; 'I' for Inactive)
REMARK    1  A    between atoms: N_2  and  C_22
REMARK    2  A    between atoms: C_6  and  C_27
REMARK                            x       y       z     vdW  Elec       q    Type
REMARK                         _______ _______ _______ _____ _____    ______ ____
ROOT
ATOM      1  O   UNL     1      32.295 -22.289 -17.640  0.00  0.00    -0.252 OA
ATOM      2  N   UNL     1      34.187 -23.118 -16.536  0.00  0.00    -0.268 N 
ATOM      3  N   UNL     1      33.149 -20.254 -21.210  0.00  0.00    -0.241 N 
ATOM      4  N   UNL     1      34.437 -21.968 -18.523  0.00  0.00    -0.252 N 
ATOM      5  N   UNL     1      32.941 -20.917 -20.059  0.00  0.00    -0.166 NA
ATOM      6  C   UNL     1      34.462 -20.168 -21.567  0.00  0.00    +0.026 C 
ATOM      7  C   UNL     1      35.162 -20.819 -20.582  0.00  0.00    +0.046 C 
ATOM      8  C   UNL     1      34.171 -21.250 -19.695  0.00  0.00    +0.154 C 
ATOM      9  C   UNL     1      33.511 -22.439 -17.580  0.00  0.00    +0.309 C 
ATOM     10  H   UNL     1      35.167 -23.160 -16.619  0.00  0.00    +0.156 HD
ATOM     11  H   UNL     1      32.420 -19.866 -21.746  0.00  0.00    +0.174 HD
ATOM     12  H   UNL     1      35.385 -22.166 -18.340  0.00  0.00    +0.158 HD
ENDROOT
BRANCH   2  22
ATOM     13  O   UNL     1      34.763 -25.410 -11.114  0.00  0.00    -0.270 OA
ATOM     14  N   UNL     1      36.053 -24.254 -12.713  0.00  0.00    -0.274 N 
ATOM     15  C   UNL     1      35.848 -23.668 -14.027  0.00  0.00    +0.100 C 
ATOM     16  C   UNL     1      36.945 -24.333 -14.844  0.00  0.00    +0.026 C 
ATOM     17  C   UNL     1      38.101 -24.393 -13.833  0.00  0.00    +0.024 C 
ATOM     18  C   UNL     1      37.418 -24.689 -12.494  0.00  0.00    +0.094 C 
ATOM     19  C   UNL     1      34.420 -23.989 -14.288  0.00  0.00    +0.014 C 
ATOM     20  C   UNL     1      33.850 -24.592 -13.159  0.00  0.00    +0.052 C 
ATOM     21  C   UNL     1      34.908 -24.797 -12.156  0.00  0.00    +0.249 C 
ATOM     22  C   UNL     1      33.651 -23.735 -15.407  0.00  0.00    +0.049 C 
ATOM     23  C   UNL     1      32.524 -24.971 -13.108  0.00  0.00    +0.004 C 
ATOM     24  C   UNL     1      32.302 -24.105 -15.376  0.00  0.00    +0.014 C 
ATOM     25  C   UNL     1      31.744 -24.717 -14.236  0.00  0.00    +0.001 C 
ENDBRANCH   2  22
BRANCH   6  27
ATOM     26  N   UNL     1      33.774 -19.136 -23.705  0.00  0.00    +0.388 N 
ATOM     27  C   UNL     1      34.910 -19.465 -22.828  0.00  0.00    -0.023 C 
ATOM     28  C   UNL     1      35.620 -18.132 -22.560  0.00  0.00    -0.018 C 
ATOM     29  C   UNL     1      34.843 -17.104 -23.368  0.00  0.00    -0.025 C 
ATOM     30  C   UNL     1      34.156 -17.931 -24.434  0.00  0.00    -0.081 C 
ATOM     31  H   UNL     1      32.937 -18.961 -23.148  0.00  0.00    -0.084 HD
ATOM     32  H   UNL     1      33.561 -19.904 -24.341  0.00  0.00    -0.084 HD
ENDBRANCH   6  27
TORSDOF 2
ENDMDL
MODEL 3
REMARK VINA RESULT:     -10.5      3.730      9.839
REMARK  Name = 445841
REMARK  2 active torsions:
REMARK  status: ('A' for Active; 'I' for Inactive)
REMARK    1  A    between atoms: N_2  and  C_22
REMARK    2  A    between atoms: C_6  and  C_27
REMARK                            x       y       z     vdW  Elec       q    Type
REMARK                         _______ _______ _______ _____ _____    ______ ____
ROOT
ATOM      1  O   UNL     1      36.193 -21.733 -17.579  0.00  0.00    -0.252 OA
ATOM      2  N   UNL     1      34.134 -22.822 -17.337  0.00  0.00    -0.268 N 
ATOM      3  N   UNL     1      36.516 -19.435 -21.076  0.00  0.00    -0.241 N 
ATOM      4  N   UNL     1      34.516 -21.502 -19.193  0.00  0.00    -0.252 N 
ATOM      5  N   UNL     1      36.350 -20.187 -19.975  0.00  0.00    -0.166 NA
ATOM      6  C   UNL     1      35.430 -19.419 -21.901  0.00  0.00    +0.026 C 
ATOM      7  C   UNL     1      34.489 -20.217 -21.298  0.00  0.00    +0.046 C 
ATOM      8  C   UNL     1      35.118 -20.651 -20.128  0.00  0.00    +0.154 C 
ATOM      9  C   UNL     1      35.069 -21.986 -17.998  0.00  0.00    +0.309 C 
ATOM     10  H   UNL     1      33.268 -22.936 -17.792  0.00  0.00    +0.156 HD
ATOM     11  H   UNL     1      37.344 -18.940 -21.270  0.00  0.00    +0.174 HD
ATOM     12  H   UNL     1      33.598 -21.793 -19.399  0.00  0.00    +0.158 HD
ENDROOT
BRANCH   2  22
ATOM     13  O   UNL     1      31.832 -25.641 -12.675  0.00  0.00    -0.270 OA
ATOM     14  N   UNL     1      31.131 -24.698 -14.718  0.00  0.00    -0.274 N 
ATOM     15  C   UNL     1      31.752 -24.049 -15.861  0.00  0.00    +0.100 C 
ATOM     16  C   UNL     1      30.970 -22.746 -15.947  0.00  0.00    +0.026 C 
ATOM     17  C   UNL     1      29.550 -23.204 -15.577  0.00  0.00    +0.024 C 
ATOM     18  C   UNL     1      29.765 -24.268 -14.496  0.00  0.00    +0.094 C 
ATOM     19  C   UNL     1      33.185 -24.037 -15.469  0.00  0.00    +0.014 C 
ATOM     20  C   UNL     1      33.358 -24.734 -14.266  0.00  0.00    +0.052 C 
ATOM     21  C   UNL     1      32.033 -25.130 -13.761  0.00  0.00    +0.249 C 
ATOM     22  C   UNL     1      34.275 -23.502 -16.129  0.00  0.00    +0.049 C 
ATOM     23  C   UNL     1      34.595 -24.909 -13.678  0.00  0.00    +0.004 C 
ATOM     24  C   UNL     1      35.540 -23.672 -15.555  0.00  0.00    +0.014 C 
ATOM     25  C   UNL     1      35.698 -24.370 -14.342  0.00  0.00    +0.001 C 
ENDBRANCH   2  22
BRANCH   6  27
ATOM     26  N   UNL     1      34.161 -18.842 -23.941  0.00  0.00    +0.388 N 
ATOM     27  C   UNL     1      35.410 -18.632 -23.192  0.00  0.00    -0.023 C 
ATOM     28  C   UNL     1      35.510 -17.116 -22.979  0.00  0.00    -0.018 C 
ATOM     29  C   UNL     1      34.294 -16.539 -23.688  0.00  0.00    -0.025 C 
ATOM     30  C   UNL     1      33.921 -17.612 -24.689  0.00  0.00    -0.081 C 
ATOM     31  H   UNL     1      33.389 -19.021 -23.299  0.00  0.00    -0.084 HD
ATOM     32  H   UNL     1      34.232 -19.648 -24.563  0.00  0.00    -0.084 HD
ENDBRANCH   6  27
TORSDOF 2
ENDMDL
MODEL 4
REMARK VINA RESULT:     -10.3      2.931      9.873
REMARK  Name = 445841
REMARK  2 active torsions:
REMARK  status: ('A' for Active; 'I' for Inactive)
REMARK    1  A    between atoms: N_2  and  C_22
REMARK    2  A    between atoms: C_6  and  C_27
REMARK                            x       y       z     vdW  Elec       q    Type
REMARK                         _______ _______ _______ _____ _____    ______ ____
ROOT
ATOM      1  O   UNL     1      37.248 -20.928 -17.227  0.00  0.00    -0.252 OA
ATOM      2  N   UNL     1      35.772 -22.728 -16.967  0.00  0.00    -0.268 N 
ATOM      3  N   UNL     1      36.824 -18.876 -20.864  0.00  0.00    -0.241 N 
ATOM      4  N   UNL     1      35.702 -21.464 -18.899  0.00  0.00    -0.252 N 
ATOM      5  N   UNL     1      36.910 -19.573 -19.718  0.00  0.00    -0.166 NA
ATOM      6  C   UNL     1      35.864 -19.333 -21.717  0.00  0.00    +0.026 C 
ATOM      7  C   UNL     1      35.281 -20.405 -21.087  0.00  0.00    +0.046 C 
ATOM      8  C   UNL     1      35.969 -20.494 -19.873  0.00  0.00    +0.154 C 
ATOM      9  C   UNL     1      36.337 -21.627 -17.658  0.00  0.00    +0.309 C 
ATOM     10  H   UNL     1      35.046 -23.199 -17.437  0.00  0.00    +0.156 HD
ATOM     11  H   UNL     1      37.401 -18.105 -21.068  0.00  0.00    +0.174 HD
ATOM     12  H   UNL     1      34.983 -22.104 -19.108  0.00  0.00    +0.158 HD
ENDROOT
BRANCH   2  22
ATOM     13  O   UNL     1      34.264 -25.120 -11.772  0.00  0.00    -0.270 OA
ATOM     14  N   UNL     1      33.264 -24.512 -13.818  0.00  0.00    -0.274 N 
ATOM     15  C   UNL     1      33.693 -23.962 -15.093  0.00  0.00    +0.100 C 
ATOM     16  C   UNL     1      32.778 -22.755 -15.241  0.00  0.00    +0.026 C 
ATOM     17  C   UNL     1      31.458 -23.286 -14.658  0.00  0.00    +0.024 C 
ATOM     18  C   UNL     1      31.892 -24.180 -13.492  0.00  0.00    +0.094 C 
ATOM     19  C   UNL     1      35.151 -23.774 -14.872  0.00  0.00    +0.014 C 
ATOM     20  C   UNL     1      35.517 -24.293 -13.624  0.00  0.00    +0.052 C 
ATOM     21  C   UNL     1      34.299 -24.736 -12.927  0.00  0.00    +0.249 C 
ATOM     22  C   UNL     1      36.106 -23.233 -15.712  0.00  0.00    +0.049 C 
ATOM     23  C   UNL     1      36.820 -24.281 -13.166  0.00  0.00    +0.004 C 
ATOM     24  C   UNL     1      37.434 -23.215 -15.272  0.00  0.00    +0.014 C 
ATOM     25  C   UNL     1      37.788 -23.735 -14.011  0.00  0.00    +0.001 C 
ENDBRANCH   2  22
BRANCH   6  27
ATOM     26  N   UNL     1      34.281 -19.049 -23.593  0.00  0.00    +0.388 N 
ATOM     27  C   UNL     1      35.603 -18.687 -23.058  0.00  0.00    -0.023 C 
ATOM     28  C   UNL     1      35.619 -17.153 -23.006  0.00  0.00    -0.018 C 
ATOM     29  C   UNL     1      34.275 -16.728 -23.579  0.00  0.00    -0.025 C 
ATOM     30  C   UNL     1      33.846 -17.920 -24.409  0.00  0.00    -0.081 C 
ATOM     31  H   UNL     1      33.622 -19.207 -22.830  0.00  0.00    -0.084 HD
ATOM     32  H   UNL     1      34.324 -19.909 -24.140  0.00  0.00    -0.084 HD
ENDBRANCH   6  27
TORSDOF 2
ENDMDL
MODEL 5
REMARK VINA RESULT:     -10.0      4.368      9.853
REMARK  Name = 445841
REMARK  2 active torsions:
REMARK  status: ('A' for Active; 'I' for Inactive)
REMARK    1  A    between atoms: N_2  and  C_22
REMARK    2  A    between atoms: C_6  and  C_27
REMARK                            x       y       z     vdW  Elec       q    Type
REMARK                         _______ _______ _______ _____ _____    ______ ____
ROOT
ATOM      1  O   UNL     1      33.167 -23.598 -18.001  0.00  0.00    -0.252 OA
ATOM      2  N   UNL     1      31.285 -22.526 -17.110  0.00  0.00    -0.268 N 
ATOM      3  N   UNL     1      35.254 -21.319 -20.842  0.00  0.00    -0.241 N 
ATOM      4  N   UNL     1      32.576 -21.442 -18.689  0.00  0.00    -0.252 N 
ATOM      5  N   UNL     1      34.543 -21.998 -19.926  0.00  0.00    -0.166 NA
ATOM      6  C   UNL     1      34.759 -20.078 -21.115  0.00  0.00    +0.026 C 
ATOM      7  C   UNL     1      33.646 -19.935 -20.322  0.00  0.00    +0.046 C 
ATOM      8  C   UNL     1      33.575 -21.143 -19.624  0.00  0.00    +0.154 C 
ATOM      9  C   UNL     1      32.427 -22.622 -17.945  0.00  0.00    +0.309 C 
ATOM     10  H   UNL     1      30.784 -21.680 -17.170  0.00  0.00    +0.156 HD
ATOM     11  H   UNL     1      36.058 -21.684 -21.276  0.00  0.00    +0.174 HD
ATOM     12  H   UNL     1      31.901 -20.741 -18.536  0.00  0.00    +0.158 HD
ENDROOT
BRANCH   2  22
ATOM     13  O   UNL     1      31.785 -25.844 -12.240  0.00  0.00    -0.270 OA
ATOM     14  N   UNL     1      32.962 -24.147 -13.375  0.00  0.00    -0.274 N 
ATOM     15  C   UNL     1      32.771 -23.325 -14.558  0.00  0.00    +0.100 C 
ATOM     16  C   UNL     1      34.055 -23.583 -15.333  0.00  0.00    +0.026 C 
ATOM     17  C   UNL     1      35.095 -23.664 -14.205  0.00  0.00    +0.024 C 
ATOM     18  C   UNL     1      34.359 -24.371 -13.062  0.00  0.00    +0.094 C 
ATOM     19  C   UNL     1      31.471 -23.826 -15.075  0.00  0.00    +0.014 C 
ATOM     20  C   UNL     1      30.928 -24.760 -14.183  0.00  0.00    +0.052 C 
ATOM     21  C   UNL     1      31.903 -24.996 -13.105  0.00  0.00    +0.249 C 
ATOM     22  C   UNL     1      30.778 -23.467 -16.216  0.00  0.00    +0.049 C 
ATOM     23  C   UNL     1      29.708 -25.370 -14.394  0.00  0.00    +0.004 C 
ATOM     24  C   UNL     1      29.536 -24.067 -16.448  0.00  0.00    +0.014 C 
ATOM     25  C   UNL     1      29.006 -25.009 -15.545  0.00  0.00    +0.001 C 
ENDBRANCH   2  22
BRANCH   6  27
ATOM     26  N   UNL     1      34.534 -18.878 -23.263  0.00  0.00    +0.388 N 
ATOM     27  C   UNL     1      35.413 -19.152 -22.115  0.00  0.00    -0.023 C 
ATOM     28  C   UNL     1      35.763 -17.778 -21.529  0.00  0.00    -0.018 C 
ATOM     29  C   UNL     1      35.076 -16.775 -22.443  0.00  0.00    -0.025 C 
ATOM     30  C   UNL     1      34.882 -17.542 -23.735  0.00  0.00    -0.081 C 
ATOM     31  H   UNL     1      33.556 -18.906 -22.974  0.00  0.00    -0.084 HD
ATOM     32  H   UNL     1      34.654 -19.575 -23.998  0.00  0.00    -0.084 HD
ENDBRANCH   6  27
TORSDOF 2
ENDMDL
MODEL 6
REMARK VINA RESULT:      -9.8      8.328     13.166
REMARK  Name = 445841
REMARK  2 active torsions:
REMARK  status: ('A' for Active; 'I' for Inactive)
REMARK    1  A    between atoms: N_2  and  C_22
REMARK    2  A    between atoms: C_6  and  C_27
REMARK                            x       y       z     vdW  Elec       q    Type
REMARK                         _______ _______ _______ _____ _____    ______ ____
ROOT
ATOM      1  O   UNL     1      31.222  -8.429 -22.030  0.00  0.00    -0.252 OA
ATOM      2  N   UNL     1      32.910  -7.229 -23.124  0.00  0.00    -0.268 N 
ATOM      3  N   UNL     1      31.675 -12.597 -22.234  0.00  0.00    -0.241 N 
ATOM      4  N   UNL     1      32.973  -9.538 -23.114  0.00  0.00    -0.252 N 
ATOM      5  N   UNL     1      31.586 -11.256 -22.204  0.00  0.00    -0.166 NA
ATOM      6  C   UNL     1      32.764 -13.062 -22.910  0.00  0.00    +0.026 C 
ATOM      7  C   UNL     1      33.434 -11.949 -23.355  0.00  0.00    +0.046 C 
ATOM      8  C   UNL     1      32.660 -10.883 -22.888  0.00  0.00    +0.154 C 
ATOM      9  C   UNL     1      32.259  -8.409 -22.686  0.00  0.00    +0.309 C 
ATOM     10  H   UNL     1      33.735  -7.366 -23.643  0.00  0.00    +0.156 HD
ATOM     11  H   UNL     1      31.015 -13.189 -21.806  0.00  0.00    +0.174 HD
ATOM     12  H   UNL     1      33.792  -9.364 -23.634  0.00  0.00    +0.158 HD
ENDROOT
BRANCH   2  22
ATOM     13  O   UNL     1      31.790  -1.786 -25.147  0.00  0.00    -0.270 OA
ATOM     14  N   UNL     1      32.298  -3.932 -25.978  0.00  0.00    -0.274 N 
ATOM     15  C   UNL     1      32.523  -5.261 -25.433  0.00  0.00    +0.100 C 
ATOM     16  C   UNL     1      33.878  -5.620 -26.025  0.00  0.00    +0.026 C 
ATOM     17  C   UNL     1      33.781  -5.009 -27.432  0.00  0.00    +0.024 C 
ATOM     18  C   UNL     1      33.000  -3.706 -27.225  0.00  0.00    +0.094 C 
ATOM     19  C   UNL     1      32.384  -5.022 -23.973  0.00  0.00    +0.014 C 
ATOM     20  C   UNL     1      31.991  -3.698 -23.738  0.00  0.00    +0.052 C 
ATOM     21  C   UNL     1      31.970  -2.983 -25.025  0.00  0.00    +0.249 C 
ATOM     22  C   UNL     1      32.540  -5.901 -22.918  0.00  0.00    +0.049 C 
ATOM     23  C   UNL     1      31.757  -3.204 -22.470  0.00  0.00    +0.004 C 
ATOM     24  C   UNL     1      32.303  -5.425 -21.624  0.00  0.00    +0.014 C 
ATOM     25  C   UNL     1      31.914  -4.089 -21.403  0.00  0.00    +0.001 C 
ENDBRANCH   2  22
BRANCH   6  27
ATOM     26  N   UNL     1      33.168 -14.934 -24.471  0.00  0.00    +0.388 N 
ATOM     27  C   UNL     1      33.049 -14.539 -23.059  0.00  0.00    -0.023 C 
ATOM     28  C   UNL     1      34.366 -14.972 -22.400  0.00  0.00    -0.018 C 
ATOM     29  C   UNL     1      35.155 -15.651 -23.509  0.00  0.00    -0.025 C 
ATOM     30  C   UNL     1      34.090 -16.064 -24.504  0.00  0.00    -0.081 C 
ATOM     31  H   UNL     1      33.538 -14.161 -25.025  0.00  0.00    -0.084 HD
ATOM     32  H   UNL     1      32.260 -15.183 -24.866  0.00  0.00    -0.084 HD
ENDBRANCH   6  27
TORSDOF 2
ENDMDL
MODEL 7
REMARK VINA RESULT:      -9.6      4.790      8.700
REMARK  Name = 445841
REMARK  2 active torsions:
REMARK  status: ('A' for Active; 'I' for Inactive)
REMARK    1  A    between atoms: N_2  and  C_22
REMARK    2  A    between atoms: C_6  and  C_27
REMARK                            x       y       z     vdW  Elec       q    Type
REMARK                         _______ _______ _______ _____ _____    ______ ____
ROOT
ATOM      1  O   UNL     1      33.852 -12.867 -24.268  0.00  0.00    -0.252 OA
ATOM      2  N   UNL     1      33.087 -11.866 -22.294  0.00  0.00    -0.268 N 
ATOM      3  N   UNL     1      35.318 -16.767 -23.755  0.00  0.00    -0.241 N 
ATOM      4  N   UNL     1      33.933 -14.014 -22.231  0.00  0.00    -0.252 N 
ATOM      5  N   UNL     1      34.835 -15.516 -23.854  0.00  0.00    -0.166 NA
ATOM      6  C   UNL     1      35.283 -17.273 -22.490  0.00  0.00    +0.026 C 
ATOM      7  C   UNL     1      34.741 -16.285 -21.705  0.00  0.00    +0.046 C 
ATOM      8  C   UNL     1      34.492 -15.243 -22.603  0.00  0.00    +0.154 C 
ATOM      9  C   UNL     1      33.648 -12.919 -23.060  0.00  0.00    +0.309 C 
ATOM     10  H   UNL     1      32.982 -12.048 -21.332  0.00  0.00    +0.156 HD
ATOM     11  H   UNL     1      35.664 -17.271 -24.526  0.00  0.00    +0.174 HD
ATOM     12  H   UNL     1      33.712 -13.908 -21.277  0.00  0.00    +0.158 HD
ENDROOT
BRANCH   2  22
ATOM     13  O   UNL     1      31.140  -6.396 -21.168  0.00  0.00    -0.270 OA
ATOM     14  N   UNL     1      31.920  -8.291 -20.003  0.00  0.00    -0.274 N 
ATOM     15  C   UNL     1      32.434  -9.609 -20.335  0.00  0.00    +0.100 C 
ATOM     16  C   UNL     1      31.521 -10.517 -19.524  0.00  0.00    +0.026 C 
ATOM     17  C   UNL     1      31.327  -9.703 -18.235  0.00  0.00    +0.024 C 
ATOM     18  C   UNL     1      31.262  -8.248 -18.713  0.00  0.00    +0.094 C 
ATOM     19  C   UNL     1      32.359  -9.605 -21.819  0.00  0.00    +0.014 C 
ATOM     20  C   UNL     1      31.956  -8.343 -22.275  0.00  0.00    +0.052 C 
ATOM     21  C   UNL     1      31.637  -7.505 -21.107  0.00  0.00    +0.249 C 
ATOM     22  C   UNL     1      32.665 -10.608 -22.719  0.00  0.00    +0.049 C 
ATOM     23  C   UNL     1      31.829  -8.042 -23.616  0.00  0.00    +0.004 C 
ATOM     24  C   UNL     1      32.549 -10.324 -24.084  0.00  0.00    +0.014 C 
ATOM     25  C   UNL     1      32.136  -9.052 -24.528  0.00  0.00    +0.001 C 
ENDBRANCH   2  22
BRANCH   6  27
ATOM     26  N   UNL     1      36.462 -18.711 -20.863  0.00  0.00    +0.388 N 
ATOM     27  C   UNL     1      35.777 -18.664 -22.164  0.00  0.00    -0.023 C 
ATOM     28  C   UNL     1      34.650 -19.702 -22.073  0.00  0.00    -0.018 C 
ATOM     29  C   UNL     1      34.804 -20.326 -20.694  0.00  0.00    -0.025 C 
ATOM     30  C   UNL     1      36.251 -20.055 -20.337  0.00  0.00    -0.081 C 
ATOM     31  H   UNL     1      36.063 -18.018 -20.228  0.00  0.00    -0.084 HD
ATOM     32  H   UNL     1      37.456 -18.500 -20.957  0.00  0.00    -0.084 HD
ENDBRANCH   6  27
TORSDOF 2
ENDMDL
MODEL 8
REMARK VINA RESULT:      -9.5      6.703     11.251
REMARK  Name = 445841
REMARK  2 active torsions:
REMARK  status: ('A' for Active; 'I' for Inactive)
REMARK    1  A    between atoms: N_2  and  C_22
REMARK    2  A    between atoms: C_6  and  C_27
REMARK                            x       y       z     vdW  Elec       q    Type
REMARK                         _______ _______ _______ _____ _____    ______ ____
ROOT
ATOM      1  O   UNL     1      32.268 -10.948 -21.505  0.00  0.00    -0.252 OA
ATOM      2  N   UNL     1      32.773  -9.396 -23.184  0.00  0.00    -0.268 N 
ATOM      3  N   UNL     1      33.748 -14.808 -22.235  0.00  0.00    -0.241 N 
ATOM      4  N   UNL     1      33.499 -11.580 -23.391  0.00  0.00    -0.252 N 
ATOM      5  N   UNL     1      33.301 -13.552 -22.059  0.00  0.00    -0.166 NA
ATOM      6  C   UNL     1      34.447 -14.987 -23.392  0.00  0.00    +0.026 C 
ATOM      7  C   UNL     1      34.458 -13.764 -24.017  0.00  0.00    +0.046 C 
ATOM      8  C   UNL     1      33.741 -12.937 -23.148  0.00  0.00    +0.154 C 
ATOM      9  C   UNL     1      32.794 -10.678 -22.579  0.00  0.00    +0.309 C 
ATOM     10  H   UNL     1      33.238  -9.327 -24.050  0.00  0.00    +0.156 HD
ATOM     11  H   UNL     1      33.586 -15.531 -21.588  0.00  0.00    +0.174 HD
ATOM     12  H   UNL     1      33.867 -11.216 -24.229  0.00  0.00    +0.158 HD
ENDROOT
BRANCH   2  22
ATOM     13  O   UNL     1      31.212  -3.739 -23.911  0.00  0.00    -0.270 OA
ATOM     14  N   UNL     1      32.155  -5.506 -25.152  0.00  0.00    -0.274 N 
ATOM     15  C   UNL     1      32.481  -6.906 -24.936  0.00  0.00    +0.100 C 
ATOM     16  C   UNL     1      33.951  -6.953 -25.326  0.00  0.00    +0.026 C 
ATOM     17  C   UNL     1      33.993  -5.983 -26.518  0.00  0.00    +0.024 C 
ATOM     18  C   UNL     1      33.008  -4.873 -26.138  0.00  0.00    +0.094 C 
ATOM     19  C   UNL     1      32.075  -7.102 -23.520  0.00  0.00    +0.014 C 
ATOM     20  C   UNL     1      31.461  -5.941 -23.032  0.00  0.00    +0.052 C 
ATOM     21  C   UNL     1      31.543  -4.899 -24.069  0.00  0.00    +0.249 C 
ATOM     22  C   UNL     1      32.185  -8.222 -22.718  0.00  0.00    +0.049 C 
ATOM     23  C   UNL     1      30.957  -5.847 -21.750  0.00  0.00    +0.004 C 
ATOM     24  C   UNL     1      31.676  -8.153 -21.417  0.00  0.00    +0.014 C 
ATOM     25  C   UNL     1      31.067  -6.977 -20.938  0.00  0.00    +0.001 C 
ENDBRANCH   2  22
BRANCH   6  27
ATOM     26  N   UNL     1      35.377 -17.134 -22.599  0.00  0.00    +0.388 N 
ATOM     27  C   UNL     1      35.037 -16.324 -23.779  0.00  0.00    -0.023 C 
ATOM     28  C   UNL     1      34.081 -17.190 -24.610  0.00  0.00    -0.018 C 
ATOM     29  C   UNL     1      33.975 -18.501 -23.845  0.00  0.00    -0.025 C 
ATOM     30  C   UNL     1      35.235 -18.528 -23.005  0.00  0.00    -0.081 C 
ATOM     31  H   UNL     1      34.740 -16.924 -21.830  0.00  0.00    -0.084 HD
ATOM     32  H   UNL     1      36.323 -16.936 -22.272  0.00  0.00    -0.084 HD
ENDBRANCH   6  27
TORSDOF 2
ENDMDL
MODEL 9
REMARK VINA RESULT:      -9.1      8.555     11.334
REMARK  Name = 445841
REMARK  2 active torsions:
REMARK  status: ('A' for Active; 'I' for Inactive)
REMARK    1  A    between atoms: N_2  and  C_22
REMARK    2  A    between atoms: C_6  and  C_27
REMARK                            x       y       z     vdW  Elec       q    Type
REMARK                         _______ _______ _______ _____ _____    ______ ____
ROOT
ATOM      1  O   UNL     1      33.381 -25.191 -12.638  0.00  0.00    -0.252 OA
ATOM      2  N   UNL     1      34.773 -23.462 -13.385  0.00  0.00    -0.268 N 
ATOM      3  N   UNL     1      29.464 -25.006 -14.135  0.00  0.00    -0.241 N 
ATOM      4  N   UNL     1      32.576 -23.547 -14.094  0.00  0.00    -0.252 N 
ATOM      5  N   UNL     1      30.733 -25.010 -13.690  0.00  0.00    -0.166 NA
ATOM      6  C   UNL     1      29.178 -23.972 -14.976  0.00  0.00    +0.026 C 
ATOM      7  C   UNL     1      30.340 -23.248 -15.090  0.00  0.00    +0.046 C 
ATOM      8  C   UNL     1      31.245 -23.939 -14.280  0.00  0.00    +0.154 C 
ATOM      9  C   UNL     1      33.551 -24.176 -13.305  0.00  0.00    +0.309 C 
ATOM     10  H   UNL     1      34.763 -22.663 -13.960  0.00  0.00    +0.156 HD
ATOM     11  H   UNL     1      28.802 -25.688 -13.877  0.00  0.00    +0.174 HD
ATOM     12  H   UNL     1      32.862 -22.736 -14.575  0.00  0.00    +0.158 HD
ENDROOT
BRANCH   2  22
ATOM     13  O   UNL     1      39.887 -26.418 -13.081  0.00  0.00    -0.270 OA
ATOM     14  N   UNL     1      38.048 -26.172 -14.535  0.00  0.00    -0.274 N 
ATOM     15  C   UNL     1      36.824 -25.390 -14.583  0.00  0.00    +0.100 C 
ATOM     16  C   UNL     1      35.768 -26.468 -14.772  0.00  0.00    +0.026 C 
ATOM     17  C   UNL     1      36.484 -27.452 -15.711  0.00  0.00    +0.024 C 
ATOM     18  C   UNL     1      37.941 -27.435 -15.237  0.00  0.00    +0.094 C 
ATOM     19  C   UNL     1      36.896 -24.626 -13.310  0.00  0.00    +0.014 C 
ATOM     20  C   UNL     1      38.118 -24.873 -12.672  0.00  0.00    +0.052 C 
ATOM     21  C   UNL     1      38.848 -25.895 -13.439  0.00  0.00    +0.249 C 
ATOM     22  C   UNL     1      35.988 -23.741 -12.761  0.00  0.00    +0.049 C 
ATOM     23  C   UNL     1      38.470 -24.271 -11.480  0.00  0.00    +0.004 C 
ATOM     24  C   UNL     1      36.325 -23.115 -11.556  0.00  0.00    +0.014 C 
ATOM     25  C   UNL     1      37.555 -23.377 -10.922  0.00  0.00    +0.001 C 
ENDBRANCH   2  22
BRANCH   6  27
ATOM     26  N   UNL     1      27.168 -22.544 -15.130  0.00  0.00    +0.388 N 
ATOM     27  C   UNL     1      27.808 -23.786 -15.589  0.00  0.00    -0.023 C 
ATOM     28  C   UNL     1      27.837 -23.693 -17.120  0.00  0.00    -0.018 C 
ATOM     29  C   UNL     1      27.143 -22.379 -17.445  0.00  0.00    -0.025 C 
ATOM     30  C   UNL     1      26.299 -22.106 -16.218  0.00  0.00    -0.081 C 
ATOM     31  H   UNL     1      27.874 -21.833 -14.936  0.00  0.00    -0.084 HD
ATOM     32  H   UNL     1      26.641 -22.692 -14.270  0.00  0.00    -0.084 HD
ENDBRANCH   6  27
TORSDOF 2
ENDMDL
