MODEL 1
REMARK VINA RESULT:     -11.8      0.000      0.000
REMARK  Name = 446752
REMARK  3 active torsions:
REMARK  status: ('A' for Active; 'I' for Inactive)
REMARK    1  A    between atoms: C_6  and  C_18
REMARK    2  A    between atoms: C_18  and  N_19
REMARK    3  A    between atoms: N_19  and  C_22
REMARK                            x       y       z     vdW  Elec       q    Type
REMARK                         _______ _______ _______ _____ _____    ______ ____
ROOT
ATOM      1  N   UNL     1      33.051 -20.657 -20.629  0.00  0.00    -0.182 NA
ATOM      2  N   UNL     1      32.814 -22.200 -18.920  0.00  0.00    -0.273 NA
ATOM      3  N   UNL     1      34.693 -22.902 -17.588  0.00  0.00    -0.312 NA
ATOM      4  N   UNL     1      36.821 -22.052 -17.971  0.00  0.00    -0.332 N 
ATOM      5  N   UNL     1      32.554 -23.767 -17.192  0.00  0.00    -0.283 N 
ATOM      6  C   UNL     1      35.195 -19.696 -21.134  0.00  0.00    +0.010 C 
ATOM      7  C   UNL     1      35.768 -20.435 -20.126  0.00  0.00    -0.009 C 
ATOM      8  C   UNL     1      34.960 -21.292 -19.365  0.00  0.00    +0.115 C 
ATOM      9  C   UNL     1      33.591 -21.384 -19.641  0.00  0.00    +0.104 C 
ATOM     10  C   UNL     1      33.848 -19.835 -21.353  0.00  0.00    +0.107 C 
ATOM     11  C   UNL     1      37.241 -20.264 -19.910  0.00  0.00    +0.032 C 
ATOM     12  C   UNL     1      35.455 -22.076 -18.325  0.00  0.00    +0.201 C 
ATOM     13  C   UNL     1      33.399 -22.914 -17.935  0.00  0.00    +0.206 C 
ATOM     14  H   UNL     1      37.148 -22.615 -17.233  0.00  0.00    +0.145 HD
ATOM     15  H   UNL     1      37.447 -21.473 -18.464  0.00  0.00    +0.145 HD
ATOM     16  H   UNL     1      31.594 -23.816 -17.403  0.00  0.00    +0.156 HD
ATOM     17  H   UNL     1      32.926 -24.313 -16.461  0.00  0.00    +0.156 HD
ENDROOT
BRANCH   6  18
ATOM     18  C   UNL     1      35.992 -18.755 -21.997  0.00  0.00    +0.097 C 
BRANCH  18  19
ATOM     19  N   UNL     1      35.123 -17.915 -22.755  0.00  0.00    -0.288 NA
ATOM     20  H   UNL     1      34.751 -18.260 -23.599  0.00  0.00    +0.124 HD
BRANCH  19  22
ATOM     21  N   UNL     1      33.474 -13.420 -23.658  0.00  0.00    -0.248 NA
ATOM     22  C   UNL     1      34.773 -16.606 -22.344  0.00  0.00    +0.101 C 
ATOM     23  C   UNL     1      34.284 -15.653 -23.253  0.00  0.00    +0.010 C 
ATOM     24  C   UNL     1      33.944 -14.357 -22.814  0.00  0.00    +0.061 C 
ATOM     25  C   UNL     1      34.926 -16.282 -20.998  0.00  0.00    -0.010 C 
ATOM     26  C   UNL     1      34.120 -15.953 -24.612  0.00  0.00    +0.000 C 
ATOM     27  C   UNL     1      34.108 -14.060 -21.464  0.00  0.00    +0.071 C 
ATOM     28  C   UNL     1      34.593 -15.007 -20.559  0.00  0.00    -0.023 C 
ATOM     29  C   UNL     1      33.635 -14.990 -25.486  0.00  0.00    +0.020 C 
ATOM     30  C   UNL     1      33.329 -13.750 -24.963  0.00  0.00    +0.098 C 
ENDBRANCH  19  22
ENDBRANCH  18  19
ENDBRANCH   6  18
TORSDOF 3
ENDMDL
MODEL 2
REMARK VINA RESULT:     -11.7      0.670      1.983
REMARK  Name = 446752
REMARK  3 active torsions:
REMARK  status: ('A' for Active; 'I' for Inactive)
REMARK    1  A    between atoms: C_6  and  C_18
REMARK    2  A    between atoms: C_18  and  N_19
REMARK    3  A    between atoms: N_19  and  C_22
REMARK                            x       y       z     vdW  Elec       q    Type
REMARK                         _______ _______ _______ _____ _____    ______ ____
ROOT
ATOM      1  N   UNL     1      32.974 -20.632 -20.596  0.00  0.00    -0.182 NA
ATOM      2  N   UNL     1      32.766 -22.168 -18.876  0.00  0.00    -0.273 NA
ATOM      3  N   UNL     1      34.671 -22.880 -17.587  0.00  0.00    -0.312 NA
ATOM      4  N   UNL     1      36.796 -22.050 -18.025  0.00  0.00    -0.332 N 
ATOM      5  N   UNL     1      32.534 -23.726 -17.136  0.00  0.00    -0.283 N 
ATOM      6  C   UNL     1      35.114 -19.692 -21.157  0.00  0.00    +0.010 C 
ATOM      7  C   UNL     1      35.705 -20.432 -20.159  0.00  0.00    -0.009 C 
ATOM      8  C   UNL     1      34.908 -21.279 -19.376  0.00  0.00    +0.115 C 
ATOM      9  C   UNL     1      33.532 -21.361 -19.619  0.00  0.00    +0.104 C 
ATOM     10  C   UNL     1      33.760 -19.820 -21.342  0.00  0.00    +0.107 C 
ATOM     11  C   UNL     1      37.184 -20.273 -19.981  0.00  0.00    +0.032 C 
ATOM     12  C   UNL     1      35.421 -22.064 -18.346  0.00  0.00    +0.201 C 
ATOM     13  C   UNL     1      33.368 -22.883 -17.902  0.00  0.00    +0.206 C 
ATOM     14  H   UNL     1      37.136 -22.613 -17.293  0.00  0.00    +0.145 HD
ATOM     15  H   UNL     1      37.414 -21.479 -18.535  0.00  0.00    +0.145 HD
ATOM     16  H   UNL     1      31.569 -23.768 -17.324  0.00  0.00    +0.156 HD
ATOM     17  H   UNL     1      32.919 -24.272 -16.412  0.00  0.00    +0.156 HD
ENDROOT
BRANCH   6  18
ATOM     18  C   UNL     1      35.897 -18.761 -22.042  0.00  0.00    +0.097 C 
BRANCH  18  19
ATOM     19  N   UNL     1      35.575 -17.403 -21.747  0.00  0.00    -0.288 NA
ATOM     20  H   UNL     1      35.845 -17.031 -20.876  0.00  0.00    +0.124 HD
BRANCH  19  22
ATOM     21  N   UNL     1      32.873 -13.482 -22.780  0.00  0.00    -0.248 NA
ATOM     22  C   UNL     1      34.882 -16.566 -22.656  0.00  0.00    +0.101 C 
ATOM     23  C   UNL     1      34.210 -15.409 -22.228  0.00  0.00    +0.010 C 
ATOM     24  C   UNL     1      33.528 -14.596 -23.157  0.00  0.00    +0.061 C 
ATOM     25  C   UNL     1      34.885 -16.922 -24.002  0.00  0.00    -0.010 C 
ATOM     26  C   UNL     1      34.191 -15.028 -20.879  0.00  0.00    +0.000 C 
ATOM     27  C   UNL     1      33.546 -14.976 -24.496  0.00  0.00    +0.071 C 
ATOM     28  C   UNL     1      34.216 -16.126 -24.922  0.00  0.00    -0.023 C 
ATOM     29  C   UNL     1      33.518 -13.880 -20.488  0.00  0.00    +0.020 C 
ATOM     30  C   UNL     1      32.880 -13.148 -21.469  0.00  0.00    +0.098 C 
ENDBRANCH  19  22
ENDBRANCH  18  19
ENDBRANCH   6  18
TORSDOF 3
ENDMDL
MODEL 3
REMARK VINA RESULT:     -11.6      0.972      2.189
REMARK  Name = 446752
REMARK  3 active torsions:
REMARK  status: ('A' for Active; 'I' for Inactive)
REMARK    1  A    between atoms: C_6  and  C_18
REMARK    2  A    between atoms: C_18  and  N_19
REMARK    3  A    between atoms: N_19  and  C_22
REMARK                            x       y       z     vdW  Elec       q    Type
REMARK                         _______ _______ _______ _____ _____    ______ ____
ROOT
ATOM      1  N   UNL     1      37.016 -20.521 -19.552  0.00  0.00    -0.182 NA
ATOM      2  N   UNL     1      36.793 -21.949 -17.743  0.00  0.00    -0.273 NA
ATOM      3  N   UNL     1      34.672 -22.935 -17.172  0.00  0.00    -0.312 NA
ATOM      4  N   UNL     1      32.764 -22.488 -18.421  0.00  0.00    -0.332 N 
ATOM      5  N   UNL     1      36.587 -23.394 -15.905  0.00  0.00    -0.283 N 
ATOM      6  C   UNL     1      35.125 -19.972 -20.930  0.00  0.00    +0.010 C 
ATOM      7  C   UNL     1      34.320 -20.771 -20.151  0.00  0.00    -0.009 C 
ATOM      8  C   UNL     1      34.885 -21.450 -19.061  0.00  0.00    +0.115 C 
ATOM      9  C   UNL     1      36.248 -21.305 -18.782  0.00  0.00    +0.104 C 
ATOM     10  C   UNL     1      36.453 -19.873 -20.600  0.00  0.00    +0.107 C 
ATOM     11  C   UNL     1      32.874 -20.859 -20.534  0.00  0.00    +0.032 C 
ATOM     12  C   UNL     1      34.146 -22.279 -18.220  0.00  0.00    +0.201 C 
ATOM     13  C   UNL     1      35.984 -22.728 -16.994  0.00  0.00    +0.206 C 
ATOM     14  H   UNL     1      32.263 -23.079 -17.813  0.00  0.00    +0.145 HD
ATOM     15  H   UNL     1      32.303 -22.042 -19.167  0.00  0.00    +0.145 HD
ATOM     16  H   UNL     1      37.548 -23.278 -15.727  0.00  0.00    +0.156 HD
ATOM     17  H   UNL     1      36.045 -23.976 -15.324  0.00  0.00    +0.156 HD
ENDROOT
BRANCH   6  18
ATOM     18  C   UNL     1      34.598 -19.210 -22.115  0.00  0.00    +0.097 C 
BRANCH  18  19
ATOM     19  N   UNL     1      35.368 -18.029 -22.332  0.00  0.00    -0.288 NA
ATOM     20  H   UNL     1      36.271 -18.117 -22.715  0.00  0.00    +0.124 HD
BRANCH  19  22
ATOM     21  N   UNL     1      33.401 -13.752 -23.591  0.00  0.00    -0.248 NA
ATOM     22  C   UNL     1      34.888 -16.733 -22.021  0.00  0.00    +0.101 C 
ATOM     23  C   UNL     1      34.371 -15.880 -23.009  0.00  0.00    +0.010 C 
ATOM     24  C   UNL     1      33.901 -14.595 -22.668  0.00  0.00    +0.061 C 
ATOM     25  C   UNL     1      34.940 -16.322 -20.691  0.00  0.00    -0.010 C 
ATOM     26  C   UNL     1      34.307 -16.270 -24.354  0.00  0.00    +0.000 C 
ATOM     27  C   UNL     1      33.966 -14.208 -21.332  0.00  0.00    +0.071 C 
ATOM     28  C   UNL     1      34.478 -15.057 -20.348  0.00  0.00    -0.023 C 
ATOM     29  C   UNL     1      33.792 -15.404 -25.308  0.00  0.00    +0.020 C 
ATOM     30  C   UNL     1      33.355 -14.167 -24.878  0.00  0.00    +0.098 C 
ENDBRANCH  19  22
ENDBRANCH  18  19
ENDBRANCH   6  18
TORSDOF 3
ENDMDL
MODEL 4
REMARK VINA RESULT:     -11.5      1.356      2.511
REMARK  Name = 446752
REMARK  3 active torsions:
REMARK  status: ('A' for Active; 'I' for Inactive)
REMARK    1  A    between atoms: C_6  and  C_18
REMARK    2  A    between atoms: C_18  and  N_19
REMARK    3  A    between atoms: N_19  and  C_22
REMARK                            x       y       z     vdW  Elec       q    Type
REMARK                         _______ _______ _______ _____ _____    ______ ____
ROOT
ATOM      1  N   UNL     1      32.487 -21.487 -19.455  0.00  0.00    -0.182 NA
ATOM      2  N   UNL     1      31.996 -22.789 -17.605  0.00  0.00    -0.273 NA
ATOM      3  N   UNL     1      33.725 -23.582 -16.129  0.00  0.00    -0.312 NA
ATOM      4  N   UNL     1      35.958 -23.068 -16.510  0.00  0.00    -0.332 N 
ATOM      5  N   UNL     1      31.478 -24.108 -15.734  0.00  0.00    -0.283 N 
ATOM      6  C   UNL     1      34.755 -20.880 -19.969  0.00  0.00    +0.010 C 
ATOM      7  C   UNL     1      35.194 -21.572 -18.865  0.00  0.00    -0.009 C 
ATOM      8  C   UNL     1      34.256 -22.226 -18.052  0.00  0.00    +0.115 C 
ATOM      9  C   UNL     1      32.896 -22.167 -18.375  0.00  0.00    +0.104 C 
ATOM     10  C   UNL     1      33.408 -20.862 -20.228  0.00  0.00    +0.107 C 
ATOM     11  C   UNL     1      36.671 -21.575 -18.607  0.00  0.00    +0.032 C 
ATOM     12  C   UNL     1      34.611 -22.950 -16.916  0.00  0.00    +0.201 C 
ATOM     13  C   UNL     1      32.451 -23.461 -16.527  0.00  0.00    +0.206 C 
ATOM     14  H   UNL     1      36.185 -23.584 -15.703  0.00  0.00    +0.145 HD
ATOM     15  H   UNL     1      36.670 -22.634 -17.034  0.00  0.00    +0.145 HD
ATOM     16  H   UNL     1      30.526 -24.053 -15.979  0.00  0.00    +0.156 HD
ATOM     17  H   UNL     1      31.752 -24.614 -14.935  0.00  0.00    +0.156 HD
ENDROOT
BRANCH   6  18
ATOM     18  C   UNL     1      35.696 -20.153 -20.891  0.00  0.00    +0.097 C 
BRANCH  18  19
ATOM     19  N   UNL     1      35.451 -18.748 -20.847  0.00  0.00    -0.288 NA
ATOM     20  H   UNL     1      35.525 -18.282 -19.982  0.00  0.00    +0.124 HD
BRANCH  19  22
ATOM     21  N   UNL     1      34.173 -14.588 -23.039  0.00  0.00    -0.248 NA
ATOM     22  C   UNL     1      35.107 -17.994 -21.996  0.00  0.00    +0.101 C 
ATOM     23  C   UNL     1      34.807 -16.625 -21.917  0.00  0.00    +0.010 C 
ATOM     24  C   UNL     1      34.468 -15.901 -23.079  0.00  0.00    +0.061 C 
ATOM     25  C   UNL     1      35.076 -18.654 -23.222  0.00  0.00    -0.010 C 
ATOM     26  C   UNL     1      34.832 -15.936 -20.696  0.00  0.00    +0.000 C 
ATOM     27  C   UNL     1      34.442 -16.585 -24.292  0.00  0.00    +0.071 C 
ATOM     28  C   UNL     1      34.742 -17.947 -24.371  0.00  0.00    -0.023 C 
ATOM     29  C   UNL     1      34.530 -14.584 -20.651  0.00  0.00    +0.020 C 
ATOM     30  C   UNL     1      34.210 -13.961 -21.840  0.00  0.00    +0.098 C 
ENDBRANCH  19  22
ENDBRANCH  18  19
ENDBRANCH   6  18
TORSDOF 3
ENDMDL
MODEL 5
REMARK VINA RESULT:     -11.3      1.210      3.134
REMARK  Name = 446752
REMARK  3 active torsions:
REMARK  status: ('A' for Active; 'I' for Inactive)
REMARK    1  A    between atoms: C_6  and  C_18
REMARK    2  A    between atoms: C_18  and  N_19
REMARK    3  A    between atoms: N_19  and  C_22
REMARK                            x       y       z     vdW  Elec       q    Type
REMARK                         _______ _______ _______ _____ _____    ______ ____
ROOT
ATOM      1  N   UNL     1      36.839 -21.274 -18.802  0.00  0.00    -0.182 NA
ATOM      2  N   UNL     1      36.468 -22.631 -16.964  0.00  0.00    -0.273 NA
ATOM      3  N   UNL     1      34.272 -23.469 -16.442  0.00  0.00    -0.312 NA
ATOM      4  N   UNL     1      32.438 -22.944 -17.768  0.00  0.00    -0.332 N 
ATOM      5  N   UNL     1      36.111 -24.006 -15.095  0.00  0.00    -0.283 N 
ATOM      6  C   UNL     1      35.033 -20.651 -20.261  0.00  0.00    +0.010 C 
ATOM      7  C   UNL     1      34.155 -21.377 -19.489  0.00  0.00    -0.009 C 
ATOM      8  C   UNL     1      34.639 -22.056 -18.362  0.00  0.00    +0.115 C 
ATOM      9  C   UNL     1      35.999 -21.986 -18.039  0.00  0.00    +0.104 C 
ATOM     10  C   UNL     1      36.353 -20.624 -19.887  0.00  0.00    +0.107 C 
ATOM     11  C   UNL     1      32.720 -21.387 -19.920  0.00  0.00    +0.032 C 
ATOM     12  C   UNL     1      33.823 -22.814 -17.525  0.00  0.00    +0.201 C 
ATOM     13  C   UNL     1      35.587 -23.337 -16.223  0.00  0.00    +0.206 C 
ATOM     14  H   UNL     1      31.881 -23.485 -17.163  0.00  0.00    +0.145 HD
ATOM     15  H   UNL     1      32.030 -22.492 -18.542  0.00  0.00    +0.145 HD
ATOM     16  H   UNL     1      37.071 -23.944 -14.887  0.00  0.00    +0.156 HD
ATOM     17  H   UNL     1      35.515 -24.536 -14.518  0.00  0.00    +0.156 HD
ENDROOT
BRANCH   6  18
ATOM     18  C   UNL     1      34.594 -19.894 -21.484  0.00  0.00    +0.097 C 
BRANCH  18  19
ATOM     19  N   UNL     1      35.331 -18.679 -21.610  0.00  0.00    -0.288 NA
ATOM     20  H   UNL     1      36.126 -18.547 -21.044  0.00  0.00    +0.124 HD
BRANCH  19  22
ATOM     21  N   UNL     1      34.061 -14.085 -22.623  0.00  0.00    -0.248 NA
ATOM     22  C   UNL     1      34.967 -17.653 -22.516  0.00  0.00    +0.101 C 
ATOM     23  C   UNL     1      34.692 -16.347 -22.081  0.00  0.00    +0.010 C 
ATOM     24  C   UNL     1      34.332 -15.346 -23.007  0.00  0.00    +0.061 C 
ATOM     25  C   UNL     1      34.888 -17.976 -23.869  0.00  0.00    -0.010 C 
ATOM     26  C   UNL     1      34.764 -15.994 -20.726  0.00  0.00    +0.000 C 
ATOM     27  C   UNL     1      34.259 -15.697 -24.352  0.00  0.00    +0.071 C 
ATOM     28  C   UNL     1      34.533 -16.996 -24.787  0.00  0.00    -0.023 C 
ATOM     29  C   UNL     1      34.486 -14.696 -20.326  0.00  0.00    +0.020 C 
ATOM     30  C   UNL     1      34.143 -13.786 -21.305  0.00  0.00    +0.098 C 
ENDBRANCH  19  22
ENDBRANCH  18  19
ENDBRANCH   6  18
TORSDOF 3
ENDMDL
MODEL 6
REMARK VINA RESULT:     -11.3      1.388      8.166
REMARK  Name = 446752
REMARK  3 active torsions:
REMARK  status: ('A' for Active; 'I' for Inactive)
REMARK    1  A    between atoms: C_6  and  C_18
REMARK    2  A    between atoms: C_18  and  N_19
REMARK    3  A    between atoms: N_19  and  C_22
REMARK                            x       y       z     vdW  Elec       q    Type
REMARK                         _______ _______ _______ _____ _____    ______ ____
ROOT
ATOM      1  N   UNL     1      34.693 -17.341 -24.590  0.00  0.00    -0.182 NA
ATOM      2  N   UNL     1      33.772 -15.475 -25.605  0.00  0.00    -0.273 NA
ATOM      3  N   UNL     1      33.271 -13.479 -24.355  0.00  0.00    -0.312 NA
ATOM      4  N   UNL     1      33.694 -13.354 -22.074  0.00  0.00    -0.332 N 
ATOM      5  N   UNL     1      32.839 -13.593 -26.653  0.00  0.00    -0.283 N 
ATOM      6  C   UNL     1      35.182 -17.349 -22.237  0.00  0.00    +0.010 C 
ATOM      7  C   UNL     1      34.713 -16.060 -22.131  0.00  0.00    -0.009 C 
ATOM      8  C   UNL     1      34.230 -15.414 -23.279  0.00  0.00    +0.115 C 
ATOM      9  C   UNL     1      34.232 -16.085 -24.507  0.00  0.00    +0.104 C 
ATOM     10  C   UNL     1      35.154 -17.948 -23.470  0.00  0.00    +0.107 C 
ATOM     11  C   UNL     1      34.754 -15.431 -20.772  0.00  0.00    +0.032 C 
ATOM     12  C   UNL     1      33.737 -14.111 -23.264  0.00  0.00    +0.201 C 
ATOM     13  C   UNL     1      33.318 -14.210 -25.477  0.00  0.00    +0.206 C 
ATOM     14  H   UNL     1      33.342 -12.435 -22.088  0.00  0.00    +0.145 HD
ATOM     15  H   UNL     1      34.016 -13.745 -21.230  0.00  0.00    +0.145 HD
ATOM     16  H   UNL     1      32.849 -14.084 -27.506  0.00  0.00    +0.156 HD
ATOM     17  H   UNL     1      32.495 -12.671 -26.619  0.00  0.00    +0.156 HD
ENDROOT
BRANCH   6  18
ATOM     18  C   UNL     1      35.715 -18.111 -21.055  0.00  0.00    +0.097 C 
BRANCH  18  19
ATOM     19  N   UNL     1      35.574 -19.516 -21.262  0.00  0.00    -0.288 NA
ATOM     20  H   UNL     1      36.105 -19.945 -21.972  0.00  0.00    +0.124 HD
BRANCH  19  22
ATOM     21  N   UNL     1      34.697 -22.665 -17.648  0.00  0.00    -0.248 NA
ATOM     22  C   UNL     1      34.702 -20.320 -20.488  0.00  0.00    +0.101 C 
ATOM     23  C   UNL     1      35.172 -21.107 -19.425  0.00  0.00    +0.010 C 
ATOM     24  C   UNL     1      34.279 -21.898 -18.673  0.00  0.00    +0.061 C 
ATOM     25  C   UNL     1      33.347 -20.309 -20.811  0.00  0.00    -0.010 C 
ATOM     26  C   UNL     1      36.530 -21.136 -19.078  0.00  0.00    +0.000 C 
ATOM     27  C   UNL     1      32.931 -21.870 -19.018  0.00  0.00    +0.071 C 
ATOM     28  C   UNL     1      32.462 -21.086 -20.075  0.00  0.00    -0.023 C 
ATOM     29  C   UNL     1      36.965 -21.924 -18.023  0.00  0.00    +0.020 C 
ATOM     30  C   UNL     1      36.017 -22.664 -17.345  0.00  0.00    +0.098 C 
ENDBRANCH  19  22
ENDBRANCH  18  19
ENDBRANCH   6  18
TORSDOF 3
ENDMDL
MODEL 7
REMARK VINA RESULT:     -11.2      3.891      6.380
REMARK  Name = 446752
REMARK  3 active torsions:
REMARK  status: ('A' for Active; 'I' for Inactive)
REMARK    1  A    between atoms: C_6  and  C_18
REMARK    2  A    between atoms: C_18  and  N_19
REMARK    3  A    between atoms: N_19  and  C_22
REMARK                            x       y       z     vdW  Elec       q    Type
REMARK                         _______ _______ _______ _____ _____    ______ ____
ROOT
ATOM      1  N   UNL     1      33.645 -15.941 -25.303  0.00  0.00    -0.182 NA
ATOM      2  N   UNL     1      34.214 -18.122 -24.776  0.00  0.00    -0.273 NA
ATOM      3  N   UNL     1      35.018 -18.720 -22.587  0.00  0.00    -0.312 NA
ATOM      4  N   UNL     1      35.253 -17.122 -20.916  0.00  0.00    -0.332 N 
ATOM      5  N   UNL     1      34.787 -20.340 -24.261  0.00  0.00    -0.283 N 
ATOM      6  C   UNL     1      33.839 -14.188 -23.670  0.00  0.00    +0.010 C 
ATOM      7  C   UNL     1      34.300 -15.095 -22.745  0.00  0.00    -0.009 C 
ATOM      8  C   UNL     1      34.430 -16.441 -23.116  0.00  0.00    +0.115 C 
ATOM      9  C   UNL     1      34.092 -16.840 -24.415  0.00  0.00    +0.104 C 
ATOM     10  C   UNL     1      33.526 -14.645 -24.925  0.00  0.00    +0.107 C 
ATOM     11  C   UNL     1      34.634 -14.567 -21.383  0.00  0.00    +0.032 C 
ATOM     12  C   UNL     1      34.888 -17.427 -22.245  0.00  0.00    +0.201 C 
ATOM     13  C   UNL     1      34.668 -18.994 -23.850  0.00  0.00    +0.206 C 
ATOM     14  H   UNL     1      35.575 -17.836 -20.319  0.00  0.00    +0.145 HD
ATOM     15  H   UNL     1      35.188 -16.197 -20.588  0.00  0.00    +0.145 HD
ATOM     16  H   UNL     1      34.543 -20.598 -25.179  0.00  0.00    +0.156 HD
ATOM     17  H   UNL     1      35.113 -21.020 -23.628  0.00  0.00    +0.156 HD
ENDROOT
BRANCH   6  18
ATOM     18  C   UNL     1      33.672 -12.727 -23.352  0.00  0.00    +0.097 C 
BRANCH  18  19
ATOM     19  N   UNL     1      32.360 -12.471 -22.852  0.00  0.00    -0.288 NA
ATOM     20  H   UNL     1      31.599 -12.948 -23.256  0.00  0.00    +0.124 HD
BRANCH  19  22
ATOM     21  N   UNL     1      31.602  -7.970 -21.147  0.00  0.00    -0.248 NA
ATOM     22  C   UNL     1      32.107 -11.560 -21.798  0.00  0.00    +0.101 C 
ATOM     23  C   UNL     1      31.980 -10.180 -22.030  0.00  0.00    +0.010 C 
ATOM     24  C   UNL     1      31.728  -9.297 -20.960  0.00  0.00    +0.061 C 
ATOM     25  C   UNL     1      31.982 -12.072 -20.510  0.00  0.00    -0.010 C 
ATOM     26  C   UNL     1      32.100  -9.638 -23.317  0.00  0.00    +0.000 C 
ATOM     27  C   UNL     1      31.610  -9.836 -19.682  0.00  0.00    +0.071 C 
ATOM     28  C   UNL     1      31.734 -11.208 -19.450  0.00  0.00    -0.023 C 
ATOM     29  C   UNL     1      31.971  -8.272 -23.514  0.00  0.00    +0.020 C 
ATOM     30  C   UNL     1      31.724  -7.488 -22.406  0.00  0.00    +0.098 C 
ENDBRANCH  19  22
ENDBRANCH  18  19
ENDBRANCH   6  18
TORSDOF 3
ENDMDL
MODEL 8
REMARK VINA RESULT:     -11.1      3.596      6.723
REMARK  Name = 446752
REMARK  3 active torsions:
REMARK  status: ('A' for Active; 'I' for Inactive)
REMARK    1  A    between atoms: C_6  and  C_18
REMARK    2  A    between atoms: C_18  and  N_19
REMARK    3  A    between atoms: N_19  and  C_22
REMARK                            x       y       z     vdW  Elec       q    Type
REMARK                         _______ _______ _______ _____ _____    ______ ____
ROOT
ATOM      1  N   UNL     1      34.637 -15.027 -20.673  0.00  0.00    -0.182 NA
ATOM      2  N   UNL     1      35.311 -17.242 -20.651  0.00  0.00    -0.273 NA
ATOM      3  N   UNL     1      35.284 -18.586 -22.648  0.00  0.00    -0.312 NA
ATOM      4  N   UNL     1      34.578 -17.706 -24.679  0.00  0.00    -0.332 N 
ATOM      5  N   UNL     1      35.997 -19.486 -20.608  0.00  0.00    -0.283 N 
ATOM      6  C   UNL     1      33.883 -13.988 -22.705  0.00  0.00    +0.010 C 
ATOM      7  C   UNL     1      34.090 -15.165 -23.388  0.00  0.00    -0.009 C 
ATOM      8  C   UNL     1      34.578 -16.280 -22.692  0.00  0.00    +0.115 C 
ATOM      9  C   UNL     1      34.845 -16.182 -21.321  0.00  0.00    +0.104 C 
ATOM     10  C   UNL     1      34.165 -13.961 -21.363  0.00  0.00    +0.107 C 
ATOM     11  C   UNL     1      33.773 -15.165 -24.852  0.00  0.00    +0.032 C 
ATOM     12  C   UNL     1      34.817 -17.509 -23.302  0.00  0.00    +0.201 C 
ATOM     13  C   UNL     1      35.506 -18.385 -21.342  0.00  0.00    +0.206 C 
ATOM     14  H   UNL     1      34.754 -18.584 -25.088  0.00  0.00    +0.145 HD
ATOM     15  H   UNL     1      34.234 -16.965 -25.229  0.00  0.00    +0.145 HD
ATOM     16  H   UNL     1      36.178 -19.395 -19.645  0.00  0.00    +0.156 HD
ATOM     17  H   UNL     1      36.159 -20.346 -21.060  0.00  0.00    +0.156 HD
ENDROOT
BRANCH   6  18
ATOM     18  C   UNL     1      33.361 -12.748 -23.377  0.00  0.00    +0.097 C 
BRANCH  18  19
ATOM     19  N   UNL     1      32.308 -12.168 -22.608  0.00  0.00    -0.288 NA
ATOM     20  H   UNL     1      31.617 -12.761 -22.231  0.00  0.00    +0.124 HD
BRANCH  19  22
ATOM     21  N   UNL     1      31.661  -8.354 -19.646  0.00  0.00    -0.248 NA
ATOM     22  C   UNL     1      32.215 -10.776 -22.364  0.00  0.00    +0.101 C 
ATOM     23  C   UNL     1      31.977 -10.267 -21.077  0.00  0.00    +0.010 C 
ATOM     24  C   UNL     1      31.889  -8.875 -20.866  0.00  0.00    +0.061 C 
ATOM     25  C   UNL     1      32.368  -9.914 -23.447  0.00  0.00    -0.010 C 
ATOM     26  C   UNL     1      31.820 -11.113 -19.971  0.00  0.00    +0.000 C 
ATOM     27  C   UNL     1      32.044  -8.036 -21.965  0.00  0.00    +0.071 C 
ATOM     28  C   UNL     1      32.282  -8.542 -23.246  0.00  0.00    -0.023 C 
ATOM     29  C   UNL     1      31.586 -10.580 -18.712  0.00  0.00    +0.020 C 
ATOM     30  C   UNL     1      31.516  -9.206 -18.604  0.00  0.00    +0.098 C 
ENDBRANCH  19  22
ENDBRANCH  18  19
ENDBRANCH   6  18
TORSDOF 3
ENDMDL
MODEL 9
REMARK VINA RESULT:     -11.0      3.666      6.461
REMARK  Name = 446752
REMARK  3 active torsions:
REMARK  status: ('A' for Active; 'I' for Inactive)
REMARK    1  A    between atoms: C_6  and  C_18
REMARK    2  A    between atoms: C_18  and  N_19
REMARK    3  A    between atoms: N_19  and  C_22
REMARK                            x       y       z     vdW  Elec       q    Type
REMARK                         _______ _______ _______ _____ _____    ______ ____
ROOT
ATOM      1  N   UNL     1      34.578 -15.203 -20.346  0.00  0.00    -0.182 NA
ATOM      2  N   UNL     1      35.362 -17.368 -20.576  0.00  0.00    -0.273 NA
ATOM      3  N   UNL     1      35.395 -18.475 -22.714  0.00  0.00    -0.312 NA
ATOM      4  N   UNL     1      34.636 -17.406 -24.632  0.00  0.00    -0.332 N 
ATOM      5  N   UNL     1      36.160 -19.565 -20.788  0.00  0.00    -0.283 N 
ATOM      6  C   UNL     1      33.764 -13.978 -22.248  0.00  0.00    +0.010 C 
ATOM      7  C   UNL     1      34.027 -15.057 -23.060  0.00  0.00    -0.009 C 
ATOM      8  C   UNL     1      34.573 -16.218 -22.495  0.00  0.00    +0.115 C 
ATOM      9  C   UNL     1      34.841 -16.263 -21.122  0.00  0.00    +0.104 C 
ATOM     10  C   UNL     1      34.049 -14.089 -20.911  0.00  0.00    +0.107 C 
ATOM     11  C   UNL     1      33.704 -14.906 -24.516  0.00  0.00    +0.032 C 
ATOM     12  C   UNL     1      34.871 -17.356 -23.241  0.00  0.00    +0.201 C 
ATOM     13  C   UNL     1      35.612 -18.414 -21.393  0.00  0.00    +0.206 C 
ATOM     14  H   UNL     1      34.855 -18.222 -25.139  0.00  0.00    +0.145 HD
ATOM     15  H   UNL     1      34.253 -16.626 -25.095  0.00  0.00    +0.145 HD
ATOM     16  H   UNL     1      36.341 -19.576 -19.821  0.00  0.00    +0.156 HD
ATOM     17  H   UNL     1      36.363 -20.359 -21.335  0.00  0.00    +0.156 HD
ENDROOT
BRANCH   6  18
ATOM     18  C   UNL     1      33.177 -12.697 -22.775  0.00  0.00    +0.097 C 
BRANCH  18  19
ATOM     19  N   UNL     1      31.976 -12.372 -22.077  0.00  0.00    -0.288 NA
ATOM     20  H   UNL     1      31.173 -12.919 -22.239  0.00  0.00    +0.124 HD
BRANCH  19  22
ATOM     21  N   UNL     1      31.648  -7.624 -21.035  0.00  0.00    -0.248 NA
ATOM     22  C   UNL     1      31.890 -11.297 -21.160  0.00  0.00    +0.101 C 
ATOM     23  C   UNL     1      31.809  -9.963 -21.592  0.00  0.00    +0.010 C 
ATOM     24  C   UNL     1      31.725  -8.913 -20.654  0.00  0.00    +0.061 C 
ATOM     25  C   UNL     1      31.885 -11.599 -19.800  0.00  0.00    -0.010 C 
ATOM     26  C   UNL     1      31.812  -9.632 -22.954  0.00  0.00    +0.000 C 
ATOM     27  C   UNL     1      31.724  -9.243 -19.302  0.00  0.00    +0.071 C 
ATOM     28  C   UNL     1      31.802 -10.569 -18.871  0.00  0.00    -0.023 C 
ATOM     29  C   UNL     1      31.732  -8.305 -23.350  0.00  0.00    +0.020 C 
ATOM     30  C   UNL     1      31.652  -7.347 -22.359  0.00  0.00    +0.098 C 
ENDBRANCH  19  22
ENDBRANCH  18  19
ENDBRANCH   6  18
TORSDOF 3
ENDMDL
