MODEL 1
REMARK VINA RESULT:     -11.9      0.000      0.000
REMARK  Name = 24871491
REMARK  6 active torsions:
REMARK  status: ('A' for Active; 'I' for Inactive)
REMARK    1  A    between atoms: N_1  and  C_11
REMARK    2  A    between atoms: N_2  and  C_18
REMARK    3  A    between atoms: C_6  and  C_31
REMARK    4  A    between atoms: C_19  and  C_24
REMARK    5  A    between atoms: C_24  and  C_26
REMARK    6  A    between atoms: C_26  and  O_27
REMARK                            x       y       z     vdW  Elec       q    Type
REMARK                         _______ _______ _______ _____ _____    ______ ____
ROOT
ATOM      1  N   UNL     1      32.815 -23.609 -16.807  0.00  0.00    -0.287 N 
ATOM      2  N   UNL     1      34.449 -24.929 -12.587  0.00  0.00    -0.247 N 
ATOM      3  N   UNL     1      33.649 -24.273 -14.690  0.00  0.00    -0.322 NA
ATOM      4  N   UNL     1      32.135 -24.685 -12.862  0.00  0.00    -0.169 NA
ATOM      5  C   UNL     1      32.581 -23.977 -15.460  0.00  0.00    +0.202 C 
ATOM      6  C   UNL     1      31.277 -24.012 -15.007  0.00  0.00    +0.118 C 
ATOM      7  C   UNL     1      33.358 -24.614 -13.420  0.00  0.00    +0.150 C 
ATOM      8  C   UNL     1      31.112 -24.377 -13.687  0.00  0.00    +0.120 C 
ATOM      9  H   UNL     1      32.082 -23.851 -17.418  0.00  0.00    +0.155 HD
ATOM     10  H   UNL     1      34.189 -25.171 -11.670  0.00  0.00    +0.165 HD
ENDROOT
BRANCH   1  11
ATOM     11  C   UNL     1      33.891 -22.966 -17.441  0.00  0.00    +0.050 C 
ATOM     12  C   UNL     1      35.088 -22.767 -16.753  0.00  0.00    +0.010 C 
ATOM     13  C   UNL     1      36.156 -22.129 -17.383  0.00  0.00    -0.021 C 
ATOM     14  C   UNL     1      33.763 -22.528 -18.759  0.00  0.00    +0.015 C 
ATOM     15  C   UNL     1      36.029 -21.691 -18.701  0.00  0.00    -0.004 C 
ATOM     16  C   UNL     1      34.831 -21.889 -19.389  0.00  0.00    +0.001 C 
ATOM     17  C   UNL     1      37.436 -21.915 -16.647  0.00  0.00    +0.031 C 
ENDBRANCH   1  11
BRANCH   2  18
ATOM     18  C   UNL     1      35.841 -24.966 -12.809  0.00  0.00    +0.058 C 
ATOM     19  C   UNL     1      38.595 -25.039 -13.248  0.00  0.00    -0.011 C 
ATOM     20  C   UNL     1      36.572 -26.102 -12.466  0.00  0.00    +0.015 C 
ATOM     21  C   UNL     1      36.487 -23.865 -13.372  0.00  0.00    +0.015 C 
ATOM     22  C   UNL     1      37.950 -26.139 -12.685  0.00  0.00    -0.002 C 
ATOM     23  C   UNL     1      37.864 -23.902 -13.592  0.00  0.00    -0.002 C 
BRANCH  19  24
ATOM     24  C   UNL     1      40.067 -25.078 -13.483  0.00  0.00    +0.136 C 
BRANCH  24  26
ATOM     25  O   UNL     1      41.135 -27.231 -13.877  0.00  0.00    -0.250 OA
ATOM     26  C   UNL     1      40.517 -26.268 -14.308  0.00  0.00    +0.318 C 
BRANCH  26  27
ATOM     27  O   UNL     1      40.151 -26.146 -15.612  0.00  0.00    -0.480 OA
ATOM     28  H   UNL     1      40.788 -25.909 -16.257  0.00  0.00    +0.295 HD
ENDBRANCH  26  27
ENDBRANCH  24  26
ENDBRANCH  19  24
ENDBRANCH   2  18
BRANCH   6  31
ATOM     29  O   UNL     1      30.147 -22.748 -16.643  0.00  0.00    -0.270 OA
ATOM     30  N   UNL     1      28.996 -24.497 -15.709  0.00  0.00    -0.325 N 
ATOM     31  C   UNL     1      30.125 -23.694 -15.835  0.00  0.00    +0.248 C 
ATOM     32  H   UNL     1      28.196 -24.312 -16.253  0.00  0.00    +0.145 HD
ATOM     33  H   UNL     1      28.996 -25.250 -15.075  0.00  0.00    +0.145 HD
ENDBRANCH   6  31
TORSDOF 6
ENDMDL
MODEL 2
REMARK VINA RESULT:     -11.8      2.117      7.472
REMARK  Name = 24871491
REMARK  6 active torsions:
REMARK  status: ('A' for Active; 'I' for Inactive)
REMARK    1  A    between atoms: N_1  and  C_11
REMARK    2  A    between atoms: N_2  and  C_18
REMARK    3  A    between atoms: C_6  and  C_31
REMARK    4  A    between atoms: C_19  and  C_24
REMARK    5  A    between atoms: C_24  and  C_26
REMARK    6  A    between atoms: C_26  and  O_27
REMARK                            x       y       z     vdW  Elec       q    Type
REMARK                         _______ _______ _______ _____ _____    ______ ____
ROOT
ATOM      1  N   UNL     1      35.605 -22.813 -15.202  0.00  0.00    -0.287 N 
ATOM      2  N   UNL     1      31.799 -24.785 -13.241  0.00  0.00    -0.247 N 
ATOM      3  N   UNL     1      33.684 -23.799 -14.226  0.00  0.00    -0.322 NA
ATOM      4  N   UNL     1      33.865 -25.031 -12.163  0.00  0.00    -0.169 NA
ATOM      5  C   UNL     1      35.012 -23.570 -14.163  0.00  0.00    +0.202 C 
ATOM      6  C   UNL     1      35.822 -24.033 -13.146  0.00  0.00    +0.118 C 
ATOM      7  C   UNL     1      33.184 -24.526 -13.207  0.00  0.00    +0.150 C 
ATOM      8  C   UNL     1      35.188 -24.764 -12.162  0.00  0.00    +0.120 C 
ATOM      9  H   UNL     1      36.391 -22.294 -14.917  0.00  0.00    +0.155 HD
ATOM     10  H   UNL     1      31.479 -25.319 -12.479  0.00  0.00    +0.165 HD
ENDROOT
BRANCH   1  11
ATOM     11  C   UNL     1      35.288 -22.657 -16.561  0.00  0.00    +0.050 C 
ATOM     12  C   UNL     1      36.181 -22.012 -17.417  0.00  0.00    +0.010 C 
ATOM     13  C   UNL     1      35.865 -21.858 -18.767  0.00  0.00    -0.021 C 
ATOM     14  C   UNL     1      34.080 -23.149 -17.057  0.00  0.00    +0.015 C 
ATOM     15  C   UNL     1      34.658 -22.350 -19.262  0.00  0.00    -0.004 C 
ATOM     16  C   UNL     1      33.765 -22.995 -18.407  0.00  0.00    +0.001 C 
ATOM     17  C   UNL     1      36.819 -21.167 -19.682  0.00  0.00    +0.031 C 
ENDBRANCH   1  11
BRANCH   2  18
ATOM     18  C   UNL     1      30.782 -24.431 -14.151  0.00  0.00    +0.058 C 
ATOM     19  C   UNL     1      28.770 -23.729 -15.950  0.00  0.00    -0.011 C 
ATOM     20  C   UNL     1      30.584 -23.093 -14.488  0.00  0.00    +0.015 C 
ATOM     21  C   UNL     1      29.974 -25.419 -14.713  0.00  0.00    +0.015 C 
ATOM     22  C   UNL     1      29.578 -22.741 -15.388  0.00  0.00    -0.002 C 
ATOM     23  C   UNL     1      28.968 -25.068 -15.613  0.00  0.00    -0.002 C 
BRANCH  19  24
ATOM     24  C   UNL     1      27.694 -23.353 -16.913  0.00  0.00    +0.136 C 
BRANCH  24  26
ATOM     25  O   UNL     1      26.057 -22.493 -15.329  0.00  0.00    -0.250 OA
ATOM     26  C   UNL     1      26.708 -22.347 -16.355  0.00  0.00    +0.318 C 
BRANCH  26  27
ATOM     27  O   UNL     1      26.618 -21.238 -17.136  0.00  0.00    -0.480 OA
ATOM     28  H   UNL     1      27.321 -20.619 -17.152  0.00  0.00    +0.295 HD
ENDBRANCH  26  27
ENDBRANCH  24  26
ENDBRANCH  19  24
ENDBRANCH   2  18
BRANCH   6  31
ATOM     29  O   UNL     1      37.984 -23.918 -14.074  0.00  0.00    -0.270 OA
ATOM     30  N   UNL     1      37.781 -23.377 -11.855  0.00  0.00    -0.325 N 
ATOM     31  C   UNL     1      37.254 -23.786 -13.076  0.00  0.00    +0.248 C 
ATOM     32  H   UNL     1      38.746 -23.201 -11.770  0.00  0.00    +0.145 HD
ATOM     33  H   UNL     1      37.190 -23.264 -11.076  0.00  0.00    +0.145 HD
ENDBRANCH   6  31
TORSDOF 6
ENDMDL
MODEL 3
REMARK VINA RESULT:     -11.3      3.104      6.632
REMARK  Name = 24871491
REMARK  6 active torsions:
REMARK  status: ('A' for Active; 'I' for Inactive)
REMARK    1  A    between atoms: N_1  and  C_11
REMARK    2  A    between atoms: N_2  and  C_18
REMARK    3  A    between atoms: C_6  and  C_31
REMARK    4  A    between atoms: C_19  and  C_24
REMARK    5  A    between atoms: C_24  and  C_26
REMARK    6  A    between atoms: C_26  and  O_27
REMARK                            x       y       z     vdW  Elec       q    Type
REMARK                         _______ _______ _______ _____ _____    ______ ____
ROOT
ATOM      1  N   UNL     1      34.284 -23.789 -14.202  0.00  0.00    -0.287 N 
ATOM      2  N   UNL     1      32.130 -22.451 -18.176  0.00  0.00    -0.247 N 
ATOM      3  N   UNL     1      33.212 -23.110 -16.204  0.00  0.00    -0.322 NA
ATOM      4  N   UNL     1      30.878 -23.592 -16.557  0.00  0.00    -0.169 NA
ATOM      5  C   UNL     1      33.119 -23.722 -15.005  0.00  0.00    +0.202 C 
ATOM      6  C   UNL     1      31.957 -24.286 -14.520  0.00  0.00    +0.118 C 
ATOM      7  C   UNL     1      32.070 -23.082 -16.917  0.00  0.00    +0.150 C 
ATOM      8  C   UNL     1      30.856 -24.190 -15.347  0.00  0.00    +0.120 C 
ATOM      9  H   UNL     1      34.100 -23.797 -13.235  0.00  0.00    +0.155 HD
ATOM     10  H   UNL     1      31.274 -22.455 -18.661  0.00  0.00    +0.165 HD
ENDROOT
BRANCH   1  11
ATOM     11  C   UNL     1      35.651 -23.845 -14.517  0.00  0.00    +0.050 C 
ATOM     12  C   UNL     1      36.446 -24.868 -13.998  0.00  0.00    +0.010 C 
ATOM     13  C   UNL     1      37.804 -24.923 -14.312  0.00  0.00    -0.021 C 
ATOM     14  C   UNL     1      36.215 -22.879 -15.351  0.00  0.00    +0.015 C 
ATOM     15  C   UNL     1      38.367 -23.957 -15.146  0.00  0.00    -0.004 C 
ATOM     16  C   UNL     1      37.573 -22.934 -15.664  0.00  0.00    +0.001 C 
ATOM     17  C   UNL     1      38.654 -26.015 -13.756  0.00  0.00    +0.031 C 
ENDBRANCH   1  11
BRANCH   2  18
ATOM     18  C   UNL     1      33.175 -21.815 -18.877  0.00  0.00    +0.058 C 
ATOM     19  C   UNL     1      35.242 -20.558 -20.264  0.00  0.00    -0.011 C 
ATOM     20  C   UNL     1      32.883 -20.836 -19.826  0.00  0.00    +0.015 C 
ATOM     21  C   UNL     1      34.501 -22.166 -18.622  0.00  0.00    +0.015 C 
ATOM     22  C   UNL     1      33.917 -20.207 -20.520  0.00  0.00    -0.002 C 
ATOM     23  C   UNL     1      35.534 -21.538 -19.315  0.00  0.00    -0.002 C 
BRANCH  19  24
ATOM     24  C   UNL     1      36.348 -19.885 -21.006  0.00  0.00    +0.136 C 
BRANCH  24  26
ATOM     25  O   UNL     1      35.646 -17.570 -20.725  0.00  0.00    -0.250 OA
ATOM     26  C   UNL     1      36.004 -18.480 -21.460  0.00  0.00    +0.318 C 
BRANCH  26  27
ATOM     27  O   UNL     1      36.138 -18.336 -22.806  0.00  0.00    -0.480 OA
ATOM     28  H   UNL     1      35.417 -18.023 -23.317  0.00  0.00    +0.295 HD
ENDBRANCH  26  27
ENDBRANCH  24  26
ENDBRANCH  19  24
ENDBRANCH   2  18
BRANCH   6  31
ATOM     29  O   UNL     1      32.857 -25.137 -12.516  0.00  0.00    -0.270 OA
ATOM     30  N   UNL     1      30.590 -25.339 -12.800  0.00  0.00    -0.325 N 
ATOM     31  C   UNL     1      31.854 -24.945 -13.228  0.00  0.00    +0.248 C 
ATOM     32  H   UNL     1      30.482 -25.788 -11.931  0.00  0.00    +0.145 HD
ATOM     33  H   UNL     1      29.804 -25.169 -13.367  0.00  0.00    +0.145 HD
ENDBRANCH   6  31
TORSDOF 6
ENDMDL
MODEL 4
REMARK VINA RESULT:     -10.1      1.879      7.024
REMARK  Name = 24871491
REMARK  6 active torsions:
REMARK  status: ('A' for Active; 'I' for Inactive)
REMARK    1  A    between atoms: N_1  and  C_11
REMARK    2  A    between atoms: N_2  and  C_18
REMARK    3  A    between atoms: C_6  and  C_31
REMARK    4  A    between atoms: C_19  and  C_24
REMARK    5  A    between atoms: C_24  and  C_26
REMARK    6  A    between atoms: C_26  and  O_27
REMARK                            x       y       z     vdW  Elec       q    Type
REMARK                         _______ _______ _______ _____ _____    ______ ____
ROOT
ATOM      1  N   UNL     1      36.748 -23.117 -15.749  0.00  0.00    -0.287 N 
ATOM      2  N   UNL     1      33.403 -25.236 -13.191  0.00  0.00    -0.247 N 
ATOM      3  N   UNL     1      35.057 -24.175 -14.468  0.00  0.00    -0.322 NA
ATOM      4  N   UNL     1      35.637 -25.846 -12.832  0.00  0.00    -0.169 NA
ATOM      5  C   UNL     1      36.370 -24.050 -14.752  0.00  0.00    +0.202 C 
ATOM      6  C   UNL     1      37.362 -24.778 -14.127  0.00  0.00    +0.118 C 
ATOM      7  C   UNL     1      34.766 -25.078 -13.512  0.00  0.00    +0.150 C 
ATOM      8  C   UNL     1      36.933 -25.669 -13.165  0.00  0.00    +0.120 C 
ATOM      9  H   UNL     1      37.640 -22.726 -15.609  0.00  0.00    +0.155 HD
ATOM     10  H   UNL     1      33.238 -25.906 -12.489  0.00  0.00    +0.165 HD
ENDROOT
BRANCH   1  11
ATOM     11  C   UNL     1      36.096 -22.642 -16.898  0.00  0.00    +0.050 C 
ATOM     12  C   UNL     1      34.720 -22.820 -17.043  0.00  0.00    +0.010 C 
ATOM     13  C   UNL     1      34.073 -22.347 -18.185  0.00  0.00    -0.021 C 
ATOM     14  C   UNL     1      36.823 -21.991 -17.894  0.00  0.00    +0.015 C 
ATOM     15  C   UNL     1      34.800 -21.697 -19.181  0.00  0.00    -0.004 C 
ATOM     16  C   UNL     1      36.176 -21.520 -19.036  0.00  0.00    +0.001 C 
ATOM     17  C   UNL     1      32.602 -22.539 -18.341  0.00  0.00    +0.031 C 
ENDBRANCH   1  11
BRANCH   2  18
ATOM     18  C   UNL     1      32.229 -24.624 -13.677  0.00  0.00    +0.058 C 
ATOM     19  C   UNL     1      29.908 -23.413 -14.638  0.00  0.00    -0.011 C 
ATOM     20  C   UNL     1      31.032 -25.338 -13.708  0.00  0.00    +0.015 C 
ATOM     21  C   UNL     1      32.267 -23.304 -14.127  0.00  0.00    +0.015 C 
ATOM     22  C   UNL     1      29.871 -24.732 -14.189  0.00  0.00    -0.002 C 
ATOM     23  C   UNL     1      31.106 -22.699 -14.608  0.00  0.00    -0.002 C 
BRANCH  19  24
ATOM     24  C   UNL     1      28.666 -22.765 -15.153  0.00  0.00    +0.136 C 
BRANCH  24  26
ATOM     25  O   UNL     1      28.930 -23.930 -17.275  0.00  0.00    -0.250 OA
ATOM     26  C   UNL     1      28.226 -23.290 -16.505  0.00  0.00    +0.318 C 
BRANCH  26  27
ATOM     27  O   UNL     1      26.935 -22.964 -16.779  0.00  0.00    -0.480 OA
ATOM     28  H   UNL     1      26.569 -23.169 -17.616  0.00  0.00    +0.295 HD
ENDBRANCH  26  27
ENDBRANCH  24  26
ENDBRANCH  19  24
ENDBRANCH   2  18
BRANCH   6  31
ATOM     29  O   UNL     1      39.181 -23.873 -15.320  0.00  0.00    -0.270 OA
ATOM     30  N   UNL     1      39.675 -25.394 -13.676  0.00  0.00    -0.325 N 
ATOM     31  C   UNL     1      38.778 -24.644 -14.430  0.00  0.00    +0.248 C 
ATOM     32  H   UNL     1      40.642 -25.329 -13.853  0.00  0.00    +0.145 HD
ATOM     33  H   UNL     1      39.344 -25.990 -12.966  0.00  0.00    +0.145 HD
ENDBRANCH   6  31
TORSDOF 6
ENDMDL
