MODEL 1
REMARK VINA RESULT:     -12.3      0.000      0.000
REMARK  Name = 11974440
REMARK  4 active torsions:
REMARK  status: ('A' for Active; 'I' for Inactive)
REMARK    1  A    between atoms: C_1  and  C_25
REMARK    2  A    between atoms: C_2  and  N_31
REMARK    3  A    between atoms: C_5  and  C_12
REMARK    4  A    between atoms: C_17  and  C_21
REMARK                            x       y       z     vdW  Elec       q    Type
REMARK                         _______ _______ _______ _____ _____    ______ ____
ROOT
ATOM      1  C   UNL     1      34.515 -20.121 -20.146  0.00  0.00    +0.009 C 
ATOM      2  C   UNL     1      35.563 -21.258 -20.030  0.00  0.00    -0.057 C 
ATOM      3  C   UNL     1      35.408 -22.000 -18.687  0.00  0.00    +0.009 C 
ATOM      4  C   UNL     1      33.082 -20.690 -20.029  0.00  0.00    +0.028 C 
ATOM      5  C   UNL     1      33.979 -22.305 -18.353  0.00  0.00    +0.025 C 
ATOM      6  C   UNL     1      32.930 -21.730 -18.958  0.00  0.00    -0.026 C 
ENDROOT
BRANCH   5  12
ATOM      7  O   UNL     1      32.721 -24.042 -17.462  0.00  0.00    -0.270 OA
ATOM      8  N   UNL     1      34.570 -23.371 -16.223  0.00  0.00    -0.267 N 
ATOM      9  N   UNL     1      36.826 -24.427 -15.044  0.00  0.00    -0.292 N 
ATOM     10  N   UNL     1      35.810 -26.023 -13.958  0.00  0.00    -0.132 NA
ATOM     11  N   UNL     1      37.176 -26.171 -13.793  0.00  0.00    -0.125 NA
ATOM     12  C   UNL     1      33.700 -23.310 -17.308  0.00  0.00    +0.245 C 
ATOM     13  C   UNL     1      35.706 -22.464 -15.968  0.00  0.00    +0.119 C 
ATOM     14  C   UNL     1      34.327 -24.371 -15.170  0.00  0.00    +0.160 C 
ATOM     15  C   UNL     1      37.003 -23.267 -15.890  0.00  0.00    +0.130 C 
ATOM     16  C   UNL     1      35.611 -24.967 -14.718  0.00  0.00    +0.164 A 
ATOM     17  C   UNL     1      37.768 -25.201 -14.454  0.00  0.00    +0.238 A 
BRANCH  17  21
ATOM     18  F   UNL     1      39.924 -26.014 -15.100  0.00  0.00    -0.163 F 
ATOM     19  F   UNL     1      39.550 -23.895 -15.371  0.00  0.00    -0.163 F 
ATOM     20  F   UNL     1      39.825 -24.700 -13.370  0.00  0.00    -0.163 F 
ATOM     21  C   UNL     1      39.217 -24.962 -14.572  0.00  0.00    +0.452 C 
ENDBRANCH  17  21
ENDBRANCH   5  12
BRANCH   1  25
ATOM     22  F   UNL     1      35.621 -17.508 -20.176  0.00  0.00    -0.204 F 
ATOM     23  F   UNL     1      33.903 -19.530 -24.958  0.00  0.00    -0.202 F 
ATOM     24  F   UNL     1      34.991 -17.025 -24.841  0.00  0.00    -0.202 F 
ATOM     25  C   UNL     1      34.646 -19.284 -21.410  0.00  0.00    +0.006 C 
ATOM     26  C   UNL     1      35.200 -18.010 -21.345  0.00  0.00    +0.138 C 
ATOM     27  C   UNL     1      34.207 -19.802 -22.625  0.00  0.00    +0.030 C 
ATOM     28  C   UNL     1      34.325 -19.038 -23.786  0.00  0.00    +0.167 C 
ATOM     29  C   UNL     1      35.318 -17.246 -22.505  0.00  0.00    +0.061 C 
ATOM     30  C   UNL     1      34.880 -17.760 -23.726  0.00  0.00    +0.170 C 
ENDBRANCH   1  25
BRANCH   2  31
ATOM     31  N   UNL     1      36.930 -20.741 -20.142  0.00  0.00    +0.382 N 
ATOM     32  H   UNL     1      37.428 -20.904 -19.266  0.00  0.00    -0.089 HD
ATOM     33  H   UNL     1      36.901 -19.741 -20.336  0.00  0.00    -0.089 HD
ATOM     34  H   UNL     1      37.414 -21.222 -20.901  0.00  0.00    -0.089 HD
ENDBRANCH   2  31
TORSDOF 4
ENDMDL
MODEL 2
REMARK VINA RESULT:     -12.1      3.794      4.713
REMARK  Name = 11974440
REMARK  4 active torsions:
REMARK  status: ('A' for Active; 'I' for Inactive)
REMARK    1  A    between atoms: C_1  and  C_25
REMARK    2  A    between atoms: C_2  and  N_31
REMARK    3  A    between atoms: C_5  and  C_12
REMARK    4  A    between atoms: C_17  and  C_21
REMARK                            x       y       z     vdW  Elec       q    Type
REMARK                         _______ _______ _______ _____ _____    ______ ____
ROOT
ATOM      1  C   UNL     1      35.150 -20.163 -21.157  0.00  0.00    +0.009 C 
ATOM      2  C   UNL     1      33.960 -20.290 -20.170  0.00  0.00    -0.057 C 
ATOM      3  C   UNL     1      34.174 -21.482 -19.216  0.00  0.00    +0.009 C 
ATOM      4  C   UNL     1      36.477 -19.980 -20.384  0.00  0.00    +0.028 C 
ATOM      5  C   UNL     1      35.568 -21.546 -18.670  0.00  0.00    +0.025 C 
ATOM      6  C   UNL     1      36.604 -20.867 -19.181  0.00  0.00    -0.026 C 
ENDROOT
BRANCH   5  12
ATOM      7  O   UNL     1      36.901 -22.262 -16.907  0.00  0.00    -0.270 OA
ATOM      8  N   UNL     1      34.817 -23.276 -17.098  0.00  0.00    -0.267 N 
ATOM      9  N   UNL     1      32.573 -23.805 -15.589  0.00  0.00    -0.292 N 
ATOM     10  N   UNL     1      33.621 -24.696 -13.896  0.00  0.00    -0.132 NA
ATOM     11  N   UNL     1      32.277 -24.589 -13.583  0.00  0.00    -0.125 NA
ATOM     12  C   UNL     1      35.821 -22.393 -17.487  0.00  0.00    +0.245 C 
ATOM     13  C   UNL     1      33.546 -23.513 -17.810  0.00  0.00    +0.119 C 
ATOM     14  C   UNL     1      35.034 -24.125 -15.916  0.00  0.00    +0.160 C 
ATOM     15  C   UNL     1      32.370 -23.200 -16.887  0.00  0.00    +0.130 C 
ATOM     16  C   UNL     1      33.788 -24.216 -15.111  0.00  0.00    +0.164 A 
ATOM     17  C   UNL     1      31.666 -24.051 -14.614  0.00  0.00    +0.238 A 
BRANCH  17  21
ATOM     18  F   UNL     1      29.881 -22.498 -14.255  0.00  0.00    -0.163 F 
ATOM     19  F   UNL     1      29.753 -23.752 -16.020  0.00  0.00    -0.163 F 
ATOM     20  F   UNL     1      29.425 -24.614 -14.051  0.00  0.00    -0.163 F 
ATOM     21  C   UNL     1      30.231 -23.737 -14.732  0.00  0.00    +0.452 C 
ENDBRANCH  17  21
ENDBRANCH   5  12
BRANCH   1  25
ATOM     22  F   UNL     1      34.519 -20.654 -23.880  0.00  0.00    -0.204 F 
ATOM     23  F   UNL     1      35.157 -15.433 -22.383  0.00  0.00    -0.202 F 
ATOM     24  F   UNL     1      34.547 -16.051 -24.975  0.00  0.00    -0.202 F 
ATOM     25  C   UNL     1      34.985 -19.056 -22.188  0.00  0.00    +0.006 C 
ATOM     26  C   UNL     1      34.675 -19.377 -23.505  0.00  0.00    +0.138 C 
ATOM     27  C   UNL     1      35.149 -17.729 -21.803  0.00  0.00    +0.030 C 
ATOM     28  C   UNL     1      35.000 -16.713 -22.746  0.00  0.00    +0.167 C 
ATOM     29  C   UNL     1      34.526 -18.360 -24.448  0.00  0.00    +0.061 C 
ATOM     30  C   UNL     1      34.688 -17.027 -24.068  0.00  0.00    +0.170 C 
ENDBRANCH   1  25
BRANCH   2  31
ATOM     31  N   UNL     1      32.690 -20.460 -20.882  0.00  0.00    +0.382 N 
ATOM     32  H   UNL     1      32.872 -20.571 -21.879  0.00  0.00    -0.089 HD
ATOM     33  H   UNL     1      32.104 -19.640 -20.732  0.00  0.00    -0.089 HD
ATOM     34  H   UNL     1      32.212 -21.290 -20.530  0.00  0.00    -0.089 HD
ENDBRANCH   2  31
TORSDOF 4
ENDMDL
MODEL 3
REMARK VINA RESULT:     -11.8      3.492      4.256
REMARK  Name = 11974440
REMARK  4 active torsions:
REMARK  status: ('A' for Active; 'I' for Inactive)
REMARK    1  A    between atoms: C_1  and  C_25
REMARK    2  A    between atoms: C_2  and  N_31
REMARK    3  A    between atoms: C_5  and  C_12
REMARK    4  A    between atoms: C_17  and  C_21
REMARK                            x       y       z     vdW  Elec       q    Type
REMARK                         _______ _______ _______ _____ _____    ______ ____
ROOT
ATOM      1  C   UNL     1      35.100 -20.524 -20.871  0.00  0.00    +0.009 C 
ATOM      2  C   UNL     1      33.989 -20.577 -19.791  0.00  0.00    -0.057 C 
ATOM      3  C   UNL     1      34.270 -21.707 -18.781  0.00  0.00    +0.009 C 
ATOM      4  C   UNL     1      36.484 -20.304 -20.215  0.00  0.00    +0.028 C 
ATOM      5  C   UNL     1      35.701 -21.749 -18.339  0.00  0.00    +0.025 C 
ATOM      6  C   UNL     1      36.698 -21.113 -18.970  0.00  0.00    -0.026 C 
ENDROOT
BRANCH   5  12
ATOM      7  O   UNL     1      37.131 -22.306 -16.595  0.00  0.00    -0.270 OA
ATOM      8  N   UNL     1      35.099 -23.433 -16.658  0.00  0.00    -0.267 N 
ATOM      9  N   UNL     1      32.940 -24.000 -15.042  0.00  0.00    -0.292 N 
ATOM     10  N   UNL     1      34.093 -24.749 -13.348  0.00  0.00    -0.132 NA
ATOM     11  N   UNL     1      32.757 -24.696 -12.990  0.00  0.00    -0.125 NA
ATOM     12  C   UNL     1      36.040 -22.521 -17.126  0.00  0.00    +0.245 C 
ATOM     13  C   UNL     1      33.818 -23.771 -17.309  0.00  0.00    +0.119 C 
ATOM     14  C   UNL     1      35.401 -24.209 -15.445  0.00  0.00    +0.160 C 
ATOM     15  C   UNL     1      32.660 -23.472 -16.359  0.00  0.00    +0.130 C 
ATOM     16  C   UNL     1      34.191 -24.323 -14.590  0.00  0.00    +0.164 A 
ATOM     17  C   UNL     1      32.082 -24.242 -14.023  0.00  0.00    +0.238 A 
BRANCH  17  21
ATOM     18  F   UNL     1      30.273 -22.687 -14.206  0.00  0.00    -0.163 F 
ATOM     19  F   UNL     1      30.018 -24.610 -15.174  0.00  0.00    -0.163 F 
ATOM     20  F   UNL     1      29.944 -24.470 -13.006  0.00  0.00    -0.163 F 
ATOM     21  C   UNL     1      30.629 -24.009 -14.102  0.00  0.00    +0.452 C 
ENDBRANCH  17  21
ENDBRANCH   5  12
BRANCH   1  25
ATOM     22  F   UNL     1      35.999 -17.840 -20.677  0.00  0.00    -0.204 F 
ATOM     23  F   UNL     1      33.285 -19.224 -25.218  0.00  0.00    -0.202 F 
ATOM     24  F   UNL     1      34.209 -16.672 -24.898  0.00  0.00    -0.202 F 
ATOM     25  C   UNL     1      34.863 -19.484 -21.956  0.00  0.00    +0.006 C 
ATOM     26  C   UNL     1      35.335 -18.187 -21.788  0.00  0.00    +0.138 C 
ATOM     27  C   UNL     1      34.171 -19.840 -23.110  0.00  0.00    +0.030 C 
ATOM     28  C   UNL     1      33.951 -18.889 -24.105  0.00  0.00    +0.167 C 
ATOM     29  C   UNL     1      35.115 -17.235 -22.783  0.00  0.00    +0.061 C 
ATOM     30  C   UNL     1      34.423 -17.586 -23.943  0.00  0.00    +0.170 C 
ENDBRANCH   1  25
BRANCH   2  31
ATOM     31  N   UNL     1      32.667 -20.781 -20.392  0.00  0.00    +0.382 N 
ATOM     32  H   UNL     1      32.324 -21.711 -20.148  0.00  0.00    -0.089 HD
ATOM     33  H   UNL     1      32.738 -20.700 -21.405  0.00  0.00    -0.089 HD
ATOM     34  H   UNL     1      32.020 -20.077 -20.037  0.00  0.00    -0.089 HD
ENDBRANCH   2  31
TORSDOF 4
ENDMDL
MODEL 4
REMARK VINA RESULT:     -11.6      1.588      2.097
REMARK  Name = 11974440
REMARK  4 active torsions:
REMARK  status: ('A' for Active; 'I' for Inactive)
REMARK    1  A    between atoms: C_1  and  C_25
REMARK    2  A    between atoms: C_2  and  N_31
REMARK    3  A    between atoms: C_5  and  C_12
REMARK    4  A    between atoms: C_17  and  C_21
REMARK                            x       y       z     vdW  Elec       q    Type
REMARK                         _______ _______ _______ _____ _____    ______ ____
ROOT
ATOM      1  C   UNL     1      35.053 -21.575 -19.551  0.00  0.00    +0.009 C 
ATOM      2  C   UNL     1      33.639 -21.564 -18.914  0.00  0.00    -0.057 C 
ATOM      3  C   UNL     1      33.481 -22.739 -17.927  0.00  0.00    +0.009 C 
ATOM      4  C   UNL     1      36.141 -21.485 -18.455  0.00  0.00    +0.028 C 
ATOM      5  C   UNL     1      34.670 -22.908 -17.030  0.00  0.00    +0.025 C 
ATOM      6  C   UNL     1      35.862 -22.341 -17.254  0.00  0.00    -0.026 C 
ENDROOT
BRANCH   5  12
ATOM      7  O   UNL     1      33.453 -24.326 -15.651  0.00  0.00    -0.270 OA
ATOM      8  N   UNL     1      35.604 -23.801 -14.944  0.00  0.00    -0.267 N 
ATOM      9  N   UNL     1      37.928 -25.038 -14.131  0.00  0.00    -0.292 N 
ATOM     10  N   UNL     1      37.007 -26.332 -12.635  0.00  0.00    -0.132 NA
ATOM     11  N   UNL     1      38.347 -26.661 -12.745  0.00  0.00    -0.125 NA
ATOM     12  C   UNL     1      34.521 -23.735 -15.816  0.00  0.00    +0.245 C 
ATOM     13  C   UNL     1      36.869 -23.049 -15.069  0.00  0.00    +0.119 C 
ATOM     14  C   UNL     1      35.492 -24.626 -13.731  0.00  0.00    +0.160 C 
ATOM     15  C   UNL     1      38.043 -24.022 -15.153  0.00  0.00    +0.130 C 
ATOM     16  C   UNL     1      36.766 -25.351 -13.480  0.00  0.00    +0.164 A 
ATOM     17  C   UNL     1      38.882 -25.871 -13.650  0.00  0.00    +0.238 A 
BRANCH  17  21
ATOM     18  F   UNL     1      41.058 -26.863 -13.571  0.00  0.00    -0.163 F 
ATOM     19  F   UNL     1      40.435 -26.008 -15.464  0.00  0.00    -0.163 F 
ATOM     20  F   UNL     1      40.948 -24.704 -13.801  0.00  0.00    -0.163 F 
ATOM     21  C   UNL     1      40.282 -25.865 -14.107  0.00  0.00    +0.452 C 
ENDBRANCH  17  21
ENDBRANCH   5  12
BRANCH   1  25
ATOM     22  F   UNL     1      37.323 -19.874 -19.579  0.00  0.00    -0.204 F 
ATOM     23  F   UNL     1      33.612 -19.126 -23.526  0.00  0.00    -0.202 F 
ATOM     24  F   UNL     1      35.849 -17.558 -23.433  0.00  0.00    -0.202 F 
ATOM     25  C   UNL     1      35.270 -20.493 -20.597  0.00  0.00    +0.006 C 
ATOM     26  C   UNL     1      36.411 -19.698 -20.545  0.00  0.00    +0.138 C 
ATOM     27  C   UNL     1      34.323 -20.305 -21.599  0.00  0.00    +0.030 C 
ATOM     28  C   UNL     1      34.520 -19.313 -22.559  0.00  0.00    +0.167 C 
ATOM     29  C   UNL     1      36.607 -18.706 -21.505  0.00  0.00    +0.061 C 
ATOM     30  C   UNL     1      35.661 -18.513 -22.513  0.00  0.00    +0.170 C 
ENDBRANCH   1  25
BRANCH   2  31
ATOM     31  N   UNL     1      32.590 -21.645 -19.935  0.00  0.00    +0.382 N 
ATOM     32  H   UNL     1      32.027 -22.481 -19.778  0.00  0.00    -0.089 HD
ATOM     33  H   UNL     1      33.018 -21.693 -20.859  0.00  0.00    -0.089 HD
ATOM     34  H   UNL     1      31.995 -20.819 -19.877  0.00  0.00    -0.089 HD
ENDBRANCH   2  31
TORSDOF 4
ENDMDL
MODEL 5
REMARK VINA RESULT:     -11.3      3.985     10.031
REMARK  Name = 11974440
REMARK  4 active torsions:
REMARK  status: ('A' for Active; 'I' for Inactive)
REMARK    1  A    between atoms: C_1  and  C_25
REMARK    2  A    between atoms: C_2  and  N_31
REMARK    3  A    between atoms: C_5  and  C_12
REMARK    4  A    between atoms: C_17  and  C_21
REMARK                            x       y       z     vdW  Elec       q    Type
REMARK                         _______ _______ _______ _____ _____    ______ ____
ROOT
ATOM      1  C   UNL     1      34.791 -21.878 -19.252  0.00  0.00    +0.009 C 
ATOM      2  C   UNL     1      36.071 -21.040 -19.513  0.00  0.00    -0.057 C 
ATOM      3  C   UNL     1      36.112 -20.559 -20.977  0.00  0.00    +0.009 C 
ATOM      4  C   UNL     1      33.526 -21.044 -19.562  0.00  0.00    +0.028 C 
ATOM      5  C   UNL     1      34.795 -20.022 -21.450  0.00  0.00    +0.025 C 
ATOM      6  C   UNL     1      33.633 -20.225 -20.815  0.00  0.00    -0.026 C 
ENDROOT
BRANCH   5  12
ATOM      7  O   UNL     1      34.559 -19.780 -23.748  0.00  0.00    -0.270 OA
ATOM      8  N   UNL     1      34.976 -17.834 -22.547  0.00  0.00    -0.267 N 
ATOM      9  N   UNL     1      33.951 -15.300 -22.196  0.00  0.00    -0.292 N 
ATOM     10  N   UNL     1      33.826 -14.791 -24.313  0.00  0.00    -0.132 NA
ATOM     11  N   UNL     1      33.251 -13.771 -23.574  0.00  0.00    -0.125 NA
ATOM     12  C   UNL     1      34.770 -19.204 -22.679  0.00  0.00    +0.245 C 
ATOM     13  C   UNL     1      35.307 -17.121 -21.297  0.00  0.00    +0.119 C 
ATOM     14  C   UNL     1      34.945 -16.989 -23.752  0.00  0.00    +0.160 C 
ATOM     15  C   UNL     1      34.240 -16.068 -21.004  0.00  0.00    +0.130 C 
ATOM     16  C   UNL     1      34.242 -15.711 -23.468  0.00  0.00    +0.164 A 
ATOM     17  C   UNL     1      33.337 -14.098 -22.304  0.00  0.00    +0.238 A 
BRANCH  17  21
ATOM     18  F   UNL     1      33.754 -13.200 -20.126  0.00  0.00    -0.163 F 
ATOM     19  F   UNL     1      32.501 -12.026 -21.450  0.00  0.00    -0.163 F 
ATOM     20  F   UNL     1      31.729 -13.857 -20.568  0.00  0.00    -0.163 F 
ATOM     21  C   UNL     1      32.849 -13.320 -21.152  0.00  0.00    +0.452 C 
ENDBRANCH  17  21
ENDBRANCH   5  12
BRANCH   1  25
ATOM     22  F   UNL     1      32.456 -23.116 -18.220  0.00  0.00    -0.204 F 
ATOM     23  F   UNL     1      36.800 -22.860 -14.907  0.00  0.00    -0.202 F 
ATOM     24  F   UNL     1      34.484 -24.027 -14.043  0.00  0.00    -0.202 F 
ATOM     25  C   UNL     1      34.706 -22.459 -17.849  0.00  0.00    +0.006 C 
ATOM     26  C   UNL     1      33.525 -23.051 -17.414  0.00  0.00    +0.138 C 
ATOM     27  C   UNL     1      35.813 -22.391 -17.008  0.00  0.00    +0.030 C 
ATOM     28  C   UNL     1      35.738 -22.922 -15.721  0.00  0.00    +0.167 C 
ATOM     29  C   UNL     1      33.450 -23.583 -16.127  0.00  0.00    +0.061 C 
ATOM     30  C   UNL     1      34.557 -23.518 -15.281  0.00  0.00    +0.170 C 
ENDBRANCH   1  25
BRANCH   2  31
ATOM     31  N   UNL     1      37.284 -21.810 -19.221  0.00  0.00    +0.382 N 
ATOM     32  H   UNL     1      37.671 -22.175 -20.092  0.00  0.00    -0.089 HD
ATOM     33  H   UNL     1      37.054 -22.585 -18.601  0.00  0.00    -0.089 HD
ATOM     34  H   UNL     1      37.971 -21.205 -18.772  0.00  0.00    -0.089 HD
ENDBRANCH   2  31
TORSDOF 4
ENDMDL
MODEL 6
REMARK VINA RESULT:     -11.2     10.433     16.089
REMARK  Name = 11974440
REMARK  4 active torsions:
REMARK  status: ('A' for Active; 'I' for Inactive)
REMARK    1  A    between atoms: C_1  and  C_25
REMARK    2  A    between atoms: C_2  and  N_31
REMARK    3  A    between atoms: C_5  and  C_12
REMARK    4  A    between atoms: C_17  and  C_21
REMARK                            x       y       z     vdW  Elec       q    Type
REMARK                         _______ _______ _______ _____ _____    ______ ____
ROOT
ATOM      1  C   UNL     1      32.930 -12.372 -23.312  0.00  0.00    +0.009 C 
ATOM      2  C   UNL     1      34.007 -11.280 -23.083  0.00  0.00    -0.057 C 
ATOM      3  C   UNL     1      33.347  -9.895 -22.928  0.00  0.00    +0.009 C 
ATOM      4  C   UNL     1      31.930 -12.402 -22.133  0.00  0.00    +0.028 C 
ATOM      5  C   UNL     1      32.149  -9.920 -22.027  0.00  0.00    +0.025 C 
ATOM      6  C   UNL     1      31.514 -11.041 -21.658  0.00  0.00    -0.026 C 
ENDROOT
BRANCH   5  12
ATOM      7  O   UNL     1      31.557  -8.515 -20.275  0.00  0.00    -0.270 OA
ATOM      8  N   UNL     1      31.299  -7.651 -22.418  0.00  0.00    -0.267 N 
ATOM      9  N   UNL     1      32.012  -5.450 -23.915  0.00  0.00    -0.292 N 
ATOM     10  N   UNL     1      31.340  -3.950 -22.480  0.00  0.00    -0.132 NA
ATOM     11  N   UNL     1      31.980  -3.310 -23.528  0.00  0.00    -0.125 NA
ATOM     12  C   UNL     1      31.640  -8.638 -21.498  0.00  0.00    +0.245 C 
ATOM     13  C   UNL     1      31.313  -7.790 -23.888  0.00  0.00    +0.119 C 
ATOM     14  C   UNL     1      30.800  -6.358 -21.922  0.00  0.00    +0.160 C 
ATOM     15  C   UNL     1      32.254  -6.752 -24.496  0.00  0.00    +0.130 C 
ATOM     16  C   UNL     1      31.369  -5.244 -22.725  0.00  0.00    +0.164 A 
ATOM     17  C   UNL     1      32.376  -4.231 -24.379  0.00  0.00    +0.238 A 
BRANCH  17  21
ATOM     18  F   UNL     1      34.337  -4.632 -25.690  0.00  0.00    -0.163 F 
ATOM     19  F   UNL     1      32.455  -4.476 -26.757  0.00  0.00    -0.163 F 
ATOM     20  F   UNL     1      33.367  -2.697 -25.903  0.00  0.00    -0.163 F 
ATOM     21  C   UNL     1      33.109  -4.019 -25.639  0.00  0.00    +0.452 C 
ENDBRANCH  17  21
ENDBRANCH   5  12
BRANCH   1  25
ATOM     22  F   UNL     1      32.709 -13.736 -25.790  0.00  0.00    -0.204 F 
ATOM     23  F   UNL     1      35.325 -16.336 -21.752  0.00  0.00    -0.202 F 
ATOM     24  F   UNL     1      35.039 -17.532 -24.194  0.00  0.00    -0.202 F 
ATOM     25  C   UNL     1      33.499 -13.763 -23.553  0.00  0.00    +0.006 C 
ATOM     26  C   UNL     1      33.351 -14.366 -24.797  0.00  0.00    +0.138 C 
ATOM     27  C   UNL     1      34.163 -14.421 -22.522  0.00  0.00    +0.030 C 
ATOM     28  C   UNL     1      34.685 -15.696 -22.740  0.00  0.00    +0.167 C 
ATOM     29  C   UNL     1      33.873 -15.641 -25.015  0.00  0.00    +0.061 C 
ATOM     30  C   UNL     1      34.540 -16.306 -23.986  0.00  0.00    +0.170 C 
ENDBRANCH   1  25
BRANCH   2  31
ATOM     31  N   UNL     1      34.970 -11.236 -24.188  0.00  0.00    +0.382 N 
ATOM     32  H   UNL     1      35.773 -11.824 -23.962  0.00  0.00    -0.089 HD
ATOM     33  H   UNL     1      35.281 -10.276 -24.330  0.00  0.00    -0.089 HD
ATOM     34  H   UNL     1      34.526 -11.581 -25.039  0.00  0.00    -0.089 HD
ENDBRANCH   2  31
TORSDOF 4
ENDMDL
MODEL 7
REMARK VINA RESULT:     -11.0      3.844     10.012
REMARK  Name = 11974440
REMARK  4 active torsions:
REMARK  status: ('A' for Active; 'I' for Inactive)
REMARK    1  A    between atoms: C_1  and  C_25
REMARK    2  A    between atoms: C_2  and  N_31
REMARK    3  A    between atoms: C_5  and  C_12
REMARK    4  A    between atoms: C_17  and  C_21
REMARK                            x       y       z     vdW  Elec       q    Type
REMARK                         _______ _______ _______ _____ _____    ______ ____
ROOT
ATOM      1  C   UNL     1      35.076 -21.321 -18.566  0.00  0.00    +0.009 C 
ATOM      2  C   UNL     1      33.824 -21.581 -19.443  0.00  0.00    -0.057 C 
ATOM      3  C   UNL     1      33.696 -20.499 -20.535  0.00  0.00    +0.009 C 
ATOM      4  C   UNL     1      36.355 -21.306 -19.437  0.00  0.00    +0.028 C 
ATOM      5  C   UNL     1      34.998 -20.202 -21.215  0.00  0.00    +0.025 C 
ATOM      6  C   UNL     1      36.194 -20.570 -20.734  0.00  0.00    -0.026 C 
ENDROOT
BRANCH   5  12
ATOM      7  O   UNL     1      34.769 -20.129 -23.525  0.00  0.00    -0.270 OA
ATOM      8  N   UNL     1      35.163 -18.097 -22.466  0.00  0.00    -0.267 N 
ATOM      9  N   UNL     1      34.112 -15.555 -22.302  0.00  0.00    -0.292 N 
ATOM     10  N   UNL     1      33.991 -15.201 -24.451  0.00  0.00    -0.132 NA
ATOM     11  N   UNL     1      33.404 -14.136 -23.790  0.00  0.00    -0.125 NA
ATOM     12  C   UNL     1      34.971 -19.475 -22.500  0.00  0.00    +0.245 C 
ATOM     13  C   UNL     1      35.482 -17.293 -21.269  0.00  0.00    +0.119 C 
ATOM     14  C   UNL     1      35.129 -17.342 -23.729  0.00  0.00    +0.160 C 
ATOM     15  C   UNL     1      34.404 -16.232 -21.057  0.00  0.00    +0.130 C 
ATOM     16  C   UNL     1      34.413 -16.054 -23.540  0.00  0.00    +0.164 A 
ATOM     17  C   UNL     1      33.487 -14.370 -22.499  0.00  0.00    +0.238 A 
BRANCH  17  21
ATOM     18  F   UNL     1      32.718 -12.222 -21.779  0.00  0.00    -0.163 F 
ATOM     19  F   UNL     1      31.819 -13.955 -20.836  0.00  0.00    -0.163 F 
ATOM     20  F   UNL     1      33.867 -13.402 -20.360  0.00  0.00    -0.163 F 
ATOM     21  C   UNL     1      32.988 -13.516 -21.407  0.00  0.00    +0.452 C 
ENDBRANCH  17  21
ENDBRANCH   5  12
BRANCH   1  25
ATOM     22  F   UNL     1      37.471 -21.572 -17.065  0.00  0.00    -0.204 F 
ATOM     23  F   UNL     1      33.304 -24.820 -15.651  0.00  0.00    -0.202 F 
ATOM     24  F   UNL     1      35.671 -24.956 -14.290  0.00  0.00    -0.202 F 
ATOM     25  C   UNL     1      35.239 -22.299 -17.412  0.00  0.00    +0.006 C 
ATOM     26  C   UNL     1      36.445 -22.364 -16.723  0.00  0.00    +0.138 C 
ATOM     27  C   UNL     1      34.176 -23.124 -17.056  0.00  0.00    +0.030 C 
ATOM     28  C   UNL     1      34.323 -24.022 -15.999  0.00  0.00    +0.167 C 
ATOM     29  C   UNL     1      36.591 -23.262 -15.666  0.00  0.00    +0.061 C 
ATOM     30  C   UNL     1      35.529 -24.091 -15.304  0.00  0.00    +0.170 C 
ENDBRANCH   1  25
BRANCH   2  31
ATOM     31  N   UNL     1      32.600 -21.603 -18.637  0.00  0.00    +0.382 N 
ATOM     32  H   UNL     1      32.539 -20.744 -18.089  0.00  0.00    -0.089 HD
ATOM     33  H   UNL     1      32.621 -22.406 -18.010  0.00  0.00    -0.089 HD
ATOM     34  H   UNL     1      31.789 -21.671 -19.252  0.00  0.00    -0.089 HD
ENDBRANCH   2  31
TORSDOF 4
ENDMDL
MODEL 8
REMARK VINA RESULT:     -10.9     10.409     16.033
REMARK  Name = 11974440
REMARK  4 active torsions:
REMARK  status: ('A' for Active; 'I' for Inactive)
REMARK    1  A    between atoms: C_1  and  C_25
REMARK    2  A    between atoms: C_2  and  N_31
REMARK    3  A    between atoms: C_5  and  C_12
REMARK    4  A    between atoms: C_17  and  C_21
REMARK                            x       y       z     vdW  Elec       q    Type
REMARK                         _______ _______ _______ _____ _____    ______ ____
ROOT
ATOM      1  C   UNL     1      33.331 -12.296 -22.281  0.00  0.00    +0.009 C 
ATOM      2  C   UNL     1      31.872 -12.246 -21.757  0.00  0.00    -0.057 C 
ATOM      3  C   UNL     1      31.613 -10.921 -21.010  0.00  0.00    +0.009 C 
ATOM      4  C   UNL     1      33.609 -11.103 -23.226  0.00  0.00    +0.028 C 
ATOM      5  C   UNL     1      32.155  -9.728 -21.738  0.00  0.00    +0.025 C 
ATOM      6  C   UNL     1      33.041  -9.802 -22.740  0.00  0.00    -0.026 C 
ENDROOT
BRANCH   5  12
ATOM      7  O   UNL     1      31.560  -8.150 -20.141  0.00  0.00    -0.270 OA
ATOM      8  N   UNL     1      31.396  -7.479 -22.361  0.00  0.00    -0.267 N 
ATOM      9  N   UNL     1      32.229  -5.449 -24.028  0.00  0.00    -0.292 N 
ATOM     10  N   UNL     1      31.567  -3.803 -22.759  0.00  0.00    -0.132 NA
ATOM     11  N   UNL     1      32.260  -3.283 -23.839  0.00  0.00    -0.125 NA
ATOM     12  C   UNL     1      31.675  -8.388 -21.345  0.00  0.00    +0.245 C 
ATOM     13  C   UNL     1      31.449  -7.752 -23.811  0.00  0.00    +0.119 C 
ATOM     14  C   UNL     1      30.928  -6.131 -22.002  0.00  0.00    +0.160 C 
ATOM     15  C   UNL     1      32.444  -6.806 -24.480  0.00  0.00    +0.130 C 
ATOM     16  C   UNL     1      31.558  -5.113 -22.884  0.00  0.00    +0.164 A 
ATOM     17  C   UNL     1      32.649  -4.290 -24.589  0.00  0.00    +0.238 A 
BRANCH  17  21
ATOM     18  F   UNL     1      34.599  -4.933 -25.818  0.00  0.00    -0.163 F 
ATOM     19  F   UNL     1      32.762  -4.688 -26.944  0.00  0.00    -0.163 F 
ATOM     20  F   UNL     1      33.801  -2.941 -26.173  0.00  0.00    -0.163 F 
ATOM     21  C   UNL     1      33.426  -4.218 -25.839  0.00  0.00    +0.452 C 
ENDBRANCH  17  21
ENDBRANCH   5  12
BRANCH   1  25
ATOM     22  F   UNL     1      34.780 -14.371 -20.998  0.00  0.00    -0.204 F 
ATOM     23  F   UNL     1      33.293 -15.229 -26.190  0.00  0.00    -0.202 F 
ATOM     24  F   UNL     1      34.693 -17.143 -24.831  0.00  0.00    -0.202 F 
ATOM     25  C   UNL     1      33.698 -13.604 -22.966  0.00  0.00    +0.006 C 
ATOM     26  C   UNL     1      34.411 -14.575 -22.270  0.00  0.00    +0.138 C 
ATOM     27  C   UNL     1      33.319 -13.819 -24.288  0.00  0.00    +0.030 C 
ATOM     28  C   UNL     1      33.655 -15.016 -24.918  0.00  0.00    +0.167 C 
ATOM     29  C   UNL     1      34.747 -15.773 -22.900  0.00  0.00    +0.061 C 
ATOM     30  C   UNL     1      34.368 -15.994 -24.225  0.00  0.00    +0.170 C 
ENDBRANCH   1  25
BRANCH   2  31
ATOM     31  N   UNL     1      31.585 -13.370 -20.861  0.00  0.00    +0.382 N 
ATOM     32  H   UNL     1      30.576 -13.469 -20.754  0.00  0.00    -0.089 HD
ATOM     33  H   UNL     1      32.009 -13.196 -19.951  0.00  0.00    -0.089 HD
ATOM     34  H   UNL     1      31.970 -14.228 -21.259  0.00  0.00    -0.089 HD
ENDBRANCH   2  31
TORSDOF 4
ENDMDL
MODEL 9
REMARK VINA RESULT:     -10.7      1.197      2.188
REMARK  Name = 11974440
REMARK  4 active torsions:
REMARK  status: ('A' for Active; 'I' for Inactive)
REMARK    1  A    between atoms: C_1  and  C_25
REMARK    2  A    between atoms: C_2  and  N_31
REMARK    3  A    between atoms: C_5  and  C_12
REMARK    4  A    between atoms: C_17  and  C_21
REMARK                            x       y       z     vdW  Elec       q    Type
REMARK                         _______ _______ _______ _____ _____    ______ ____
ROOT
ATOM      1  C   UNL     1      34.557 -20.804 -20.403  0.00  0.00    +0.009 C 
ATOM      2  C   UNL     1      33.189 -20.747 -19.676  0.00  0.00    -0.057 C 
ATOM      3  C   UNL     1      32.941 -22.049 -18.888  0.00  0.00    +0.009 C 
ATOM      4  C   UNL     1      35.702 -21.023 -19.386  0.00  0.00    +0.028 C 
ATOM      5  C   UNL     1      34.144 -22.499 -18.116  0.00  0.00    +0.025 C 
ATOM      6  C   UNL     1      35.384 -22.036 -18.326  0.00  0.00    -0.026 C 
ENDROOT
BRANCH   5  12
ATOM      7  O   UNL     1      32.986 -24.253 -17.127  0.00  0.00    -0.270 OA
ATOM      8  N   UNL     1      34.903 -23.537 -16.025  0.00  0.00    -0.267 N 
ATOM      9  N   UNL     1      37.256 -24.539 -14.998  0.00  0.00    -0.292 N 
ATOM     10  N   UNL     1      36.351 -26.145 -13.833  0.00  0.00    -0.132 NA
ATOM     11  N   UNL     1      37.728 -26.265 -13.763  0.00  0.00    -0.125 NA
ATOM     12  C   UNL     1      33.959 -23.502 -17.047  0.00  0.00    +0.245 C 
ATOM     13  C   UNL     1      36.036 -22.605 -15.856  0.00  0.00    +0.119 C 
ATOM     14  C   UNL     1      34.754 -24.532 -14.951  0.00  0.00    +0.160 C 
ATOM     15  C   UNL     1      37.351 -23.382 -15.863  0.00  0.00    +0.130 C 
ATOM     16  C   UNL     1      36.078 -25.099 -14.585  0.00  0.00    +0.164 A 
ATOM     17  C   UNL     1      38.253 -25.289 -14.471  0.00  0.00    +0.238 A 
BRANCH  17  21
ATOM     18  F   UNL     1      39.945 -23.865 -15.382  0.00  0.00    -0.163 F 
ATOM     19  F   UNL     1      40.421 -24.902 -13.538  0.00  0.00    -0.163 F 
ATOM     20  F   UNL     1      40.317 -26.007 -15.408  0.00  0.00    -0.163 F 
ATOM     21  C   UNL     1      39.685 -25.023 -14.691  0.00  0.00    +0.452 C 
ENDBRANCH  17  21
ENDBRANCH   5  12
BRANCH   1  25
ATOM     22  F   UNL     1      34.982 -20.955 -23.204  0.00  0.00    -0.204 F 
ATOM     23  F   UNL     1      35.261 -15.996 -20.917  0.00  0.00    -0.202 F 
ATOM     24  F   UNL     1      35.649 -16.288 -23.607  0.00  0.00    -0.202 F 
ATOM     25  C   UNL     1      34.850 -19.588 -21.269  0.00  0.00    +0.006 C 
ATOM     26  C   UNL     1      35.047 -19.743 -22.637  0.00  0.00    +0.138 C 
ATOM     27  C   UNL     1      34.921 -18.328 -20.683  0.00  0.00    +0.030 C 
ATOM     28  C   UNL     1      35.190 -17.212 -21.474  0.00  0.00    +0.167 C 
ATOM     29  C   UNL     1      35.316 -18.626 -23.429  0.00  0.00    +0.061 C 
ATOM     30  C   UNL     1      35.387 -17.360 -22.847  0.00  0.00    +0.170 C 
ENDBRANCH   1  25
BRANCH   2  31
ATOM     31  N   UNL     1      32.088 -20.535 -20.620  0.00  0.00    +0.382 N 
ATOM     32  H   UNL     1      31.203 -20.517 -20.112  0.00  0.00    -0.089 HD
ATOM     33  H   UNL     1      32.073 -21.294 -21.300  0.00  0.00    -0.089 HD
ATOM     34  H   UNL     1      32.220 -19.646 -21.103  0.00  0.00    -0.089 HD
ENDBRANCH   2  31
TORSDOF 4
ENDMDL
