MODEL 1
REMARK VINA RESULT:     -12.3      0.000      0.000
REMARK  Name = 6852141
REMARK  6 active torsions:
REMARK  status: ('A' for Active; 'I' for Inactive)
REMARK    1  A    between atoms: C_3  and  N_18
REMARK    2  A    between atoms: C_7  and  C_31
REMARK    3  A    between atoms: C_9  and  C_13
REMARK    4  A    between atoms: C_19  and  C_21
REMARK    5  A    between atoms: C_24  and  O_28
REMARK    6  A    between atoms: C_31  and  O_32
REMARK                            x       y       z     vdW  Elec       q    Type
REMARK                         _______ _______ _______ _____ _____    ______ ____
ROOT
ATOM      1  C   UNL     1      31.839 -24.039 -15.124  0.00  0.00    +0.014 C 
ATOM      2  C   UNL     1      31.669 -24.849 -13.976  0.00  0.00    +0.001 C 
ATOM      3  C   UNL     1      33.123 -23.573 -15.452  0.00  0.00    +0.051 C 
ATOM      4  C   UNL     1      30.721 -23.719 -15.910  0.00  0.00    +0.004 C 
ATOM      5  C   UNL     1      32.788 -25.170 -13.189  0.00  0.00    +0.007 C 
ATOM      6  C   UNL     1      34.223 -23.903 -14.659  0.00  0.00    +0.021 C 
ATOM      7  C   UNL     1      34.056 -24.699 -13.530  0.00  0.00    +0.077 C 
ATOM      8  C   UNL     1      30.385 -25.314 -13.648  0.00  0.00    +0.000 C 
ATOM      9  C   UNL     1      29.452 -24.190 -15.569  0.00  0.00    +0.031 C 
ATOM     10  C   UNL     1      29.285 -24.987 -14.440  0.00  0.00    +0.003 C 
ENDROOT
BRANCH   9  13
ATOM     11  N   UNL     1      27.821 -22.544 -16.461  0.00  0.00    -0.343 N 
ATOM     12  N   UNL     1      27.696 -24.789 -17.097  0.00  0.00    -0.285 NA
ATOM     13  C   UNL     1      28.305 -23.849 -16.394  0.00  0.00    +0.117 C 
ATOM     14  H   UNL     1      27.043 -22.335 -17.026  0.00  0.00    +0.144 HD
ATOM     15  H   UNL     1      28.259 -21.830 -15.942  0.00  0.00    +0.144 HD
ATOM     16  H   UNL     1      26.919 -24.560 -17.656  0.00  0.00    +0.188 HD
ENDBRANCH   9  13
BRANCH   3  18
ATOM     17  O   UNL     1      33.731 -24.329 -18.288  0.00  0.00    -0.270 OA
ATOM     18  N   UNL     1      33.352 -22.767 -16.574  0.00  0.00    -0.280 N 
ATOM     19  C   UNL     1      33.633 -23.177 -17.880  0.00  0.00    +0.249 C 
ATOM     20  H   UNL     1      33.310 -21.796 -16.424  0.00  0.00    +0.155 HD
BRANCH  19  21
ATOM     21  C   UNL     1      33.858 -22.077 -18.854  0.00  0.00    +0.053 C 
ATOM     22  C   UNL     1      35.129 -21.577 -19.055  0.00  0.00    +0.016 C 
ATOM     23  C   UNL     1      32.761 -21.587 -19.534  0.00  0.00    +0.004 C 
ATOM     24  C   UNL     1      35.310 -20.544 -19.975  0.00  0.00    +0.130 C 
ATOM     25  C   UNL     1      36.307 -22.120 -18.310  0.00  0.00    +0.034 C 
ATOM     26  C   UNL     1      32.943 -20.554 -20.454  0.00  0.00    +0.003 C 
ATOM     27  C   UNL     1      34.217 -20.034 -20.674  0.00  0.00    +0.036 C 
BRANCH  24  28
ATOM     28  O   UNL     1      36.548 -20.023 -20.205  0.00  0.00    -0.506 OA
ATOM     29  H   UNL     1      36.676 -19.410 -20.903  0.00  0.00    +0.292 HD
ENDBRANCH  24  28
ENDBRANCH  19  21
ENDBRANCH   3  18
BRANCH   7  31
ATOM     30  O   UNL     1      36.342 -25.258 -13.144  0.00  0.00    -0.245 OA
ATOM     31  C   UNL     1      35.205 -25.040 -12.705  0.00  0.00    +0.341 C 
BRANCH  31  32
ATOM     32  O   UNL     1      34.874 -25.091 -11.378  0.00  0.00    -0.441 OA
ATOM     33  C   UNL     1      35.840 -24.585 -10.451  0.00  0.00    +0.256 C 
ENDBRANCH  31  32
ENDBRANCH   7  31
TORSDOF 6
ENDMDL
MODEL 2
REMARK VINA RESULT:     -12.1      1.004      1.508
REMARK  Name = 6852141
REMARK  6 active torsions:
REMARK  status: ('A' for Active; 'I' for Inactive)
REMARK    1  A    between atoms: C_3  and  N_18
REMARK    2  A    between atoms: C_7  and  C_31
REMARK    3  A    between atoms: C_9  and  C_13
REMARK    4  A    between atoms: C_19  and  C_21
REMARK    5  A    between atoms: C_24  and  O_28
REMARK    6  A    between atoms: C_31  and  O_32
REMARK                            x       y       z     vdW  Elec       q    Type
REMARK                         _______ _______ _______ _____ _____    ______ ____
ROOT
ATOM      1  C   UNL     1      32.477 -23.819 -15.170  0.00  0.00    +0.014 C 
ATOM      2  C   UNL     1      32.398 -24.669 -14.042  0.00  0.00    +0.001 C 
ATOM      3  C   UNL     1      33.739 -23.487 -15.691  0.00  0.00    +0.051 C 
ATOM      4  C   UNL     1      31.295 -23.325 -15.743  0.00  0.00    +0.004 C 
ATOM      5  C   UNL     1      33.580 -25.163 -13.468  0.00  0.00    +0.007 C 
ATOM      6  C   UNL     1      34.904 -23.987 -15.109  0.00  0.00    +0.021 C 
ATOM      7  C   UNL     1      34.825 -24.823 -13.999  0.00  0.00    +0.077 C 
ATOM      8  C   UNL     1      31.136 -25.001 -13.519  0.00  0.00    +0.000 C 
ATOM      9  C   UNL     1      30.050 -23.665 -15.211  0.00  0.00    +0.031 C 
ATOM     10  C   UNL     1      29.971 -24.502 -14.102  0.00  0.00    +0.003 C 
ENDROOT
BRANCH   9  13
ATOM     11  N   UNL     1      28.417 -23.567 -17.079  0.00  0.00    -0.343 N 
ATOM     12  N   UNL     1      28.105 -22.253 -15.172  0.00  0.00    -0.285 NA
ATOM     13  C   UNL     1      28.835 -23.146 -15.818  0.00  0.00    +0.117 C 
ATOM     14  H   UNL     1      27.591 -23.203 -17.471  0.00  0.00    +0.144 HD
ATOM     15  H   UNL     1      28.949 -24.229 -17.578  0.00  0.00    +0.144 HD
ATOM     16  H   UNL     1      27.283 -21.901 -15.580  0.00  0.00    +0.188 HD
ENDBRANCH   9  13
BRANCH   3  18
ATOM     17  O   UNL     1      33.777 -24.141 -18.616  0.00  0.00    -0.270 OA
ATOM     18  N   UNL     1      33.880 -22.649 -16.804  0.00  0.00    -0.280 N 
ATOM     19  C   UNL     1      33.891 -23.011 -18.154  0.00  0.00    +0.249 C 
ATOM     20  H   UNL     1      33.985 -21.689 -16.612  0.00  0.00    +0.155 HD
BRANCH  19  21
ATOM     21  C   UNL     1      34.090 -21.889 -19.109  0.00  0.00    +0.053 C 
ATOM     22  C   UNL     1      35.351 -21.367 -19.313  0.00  0.00    +0.016 C 
ATOM     23  C   UNL     1      32.979 -21.403 -19.768  0.00  0.00    +0.004 C 
ATOM     24  C   UNL     1      35.508 -20.314 -20.215  0.00  0.00    +0.130 C 
ATOM     25  C   UNL     1      36.545 -21.906 -18.591  0.00  0.00    +0.034 C 
ATOM     26  C   UNL     1      33.136 -20.350 -20.670  0.00  0.00    +0.003 C 
ATOM     27  C   UNL     1      34.400 -19.807 -20.893  0.00  0.00    +0.036 C 
BRANCH  24  28
ATOM     28  O   UNL     1      36.736 -19.770 -20.448  0.00  0.00    -0.506 OA
ATOM     29  H   UNL     1      37.049 -19.680 -21.327  0.00  0.00    +0.292 HD
ENDBRANCH  24  28
ENDBRANCH  19  21
ENDBRANCH   3  18
BRANCH   7  31
ATOM     30  O   UNL     1      36.232 -25.436 -12.173  0.00  0.00    -0.245 OA
ATOM     31  C   UNL     1      36.041 -25.343 -13.393  0.00  0.00    +0.341 C 
BRANCH  31  32
ATOM     32  O   UNL     1      36.954 -25.720 -14.341  0.00  0.00    -0.441 OA
ATOM     33  C   UNL     1      36.846 -27.055 -14.847  0.00  0.00    +0.256 C 
ENDBRANCH  31  32
ENDBRANCH   7  31
TORSDOF 6
ENDMDL
MODEL 3
REMARK VINA RESULT:     -12.0      2.529      5.289
REMARK  Name = 6852141
REMARK  6 active torsions:
REMARK  status: ('A' for Active; 'I' for Inactive)
REMARK    1  A    between atoms: C_3  and  N_18
REMARK    2  A    between atoms: C_7  and  C_31
REMARK    3  A    between atoms: C_9  and  C_13
REMARK    4  A    between atoms: C_19  and  C_21
REMARK    5  A    between atoms: C_24  and  O_28
REMARK    6  A    between atoms: C_31  and  O_32
REMARK                            x       y       z     vdW  Elec       q    Type
REMARK                         _______ _______ _______ _____ _____    ______ ____
ROOT
ATOM      1  C   UNL     1      32.143 -23.708 -15.302  0.00  0.00    +0.014 C 
ATOM      2  C   UNL     1      31.112 -24.318 -14.550  0.00  0.00    +0.001 C 
ATOM      3  C   UNL     1      31.817 -23.010 -16.476  0.00  0.00    +0.051 C 
ATOM      4  C   UNL     1      33.471 -23.814 -14.858  0.00  0.00    +0.004 C 
ATOM      5  C   UNL     1      29.783 -24.212 -14.993  0.00  0.00    +0.007 C 
ATOM      6  C   UNL     1      30.491 -22.914 -16.901  0.00  0.00    +0.021 C 
ATOM      7  C   UNL     1      29.477 -23.515 -16.162  0.00  0.00    +0.077 C 
ATOM      8  C   UNL     1      31.438 -25.017 -13.376  0.00  0.00    +0.000 C 
ATOM      9  C   UNL     1      33.778 -24.512 -13.690  0.00  0.00    +0.031 C 
ATOM     10  C   UNL     1      32.763 -25.111 -12.950  0.00  0.00    +0.003 C 
ENDROOT
BRANCH   9  13
ATOM     11  N   UNL     1      35.804 -23.534 -12.639  0.00  0.00    -0.343 N 
ATOM     12  N   UNL     1      35.826 -25.739 -13.414  0.00  0.00    -0.285 NA
ATOM     13  C   UNL     1      35.158 -24.611 -13.244  0.00  0.00    +0.117 C 
ATOM     14  H   UNL     1      36.739 -23.623 -12.345  0.00  0.00    +0.144 HD
ATOM     15  H   UNL     1      35.324 -22.684 -12.507  0.00  0.00    +0.144 HD
ATOM     16  H   UNL     1      36.760 -25.808 -13.113  0.00  0.00    +0.188 HD
ENDBRANCH   9  13
BRANCH   3  18
ATOM     17  O   UNL     1      33.517 -24.110 -18.686  0.00  0.00    -0.270 OA
ATOM     18  N   UNL     1      32.795 -22.387 -17.262  0.00  0.00    -0.280 N 
ATOM     19  C   UNL     1      33.561 -22.953 -18.284  0.00  0.00    +0.249 C 
ATOM     20  H   UNL     1      32.963 -21.437 -17.070  0.00  0.00    +0.155 HD
BRANCH  19  21
ATOM     21  C   UNL     1      34.546 -22.038 -18.918  0.00  0.00    +0.053 C 
ATOM     22  C   UNL     1      34.124 -21.078 -19.815  0.00  0.00    +0.016 C 
ATOM     23  C   UNL     1      35.875 -22.187 -18.574  0.00  0.00    +0.004 C 
ATOM     24  C   UNL     1      35.071 -20.232 -20.394  0.00  0.00    +0.130 C 
ATOM     25  C   UNL     1      32.680 -20.929 -20.176  0.00  0.00    +0.034 C 
ATOM     26  C   UNL     1      36.821 -21.341 -19.153  0.00  0.00    +0.003 C 
ATOM     27  C   UNL     1      36.418 -20.364 -20.062  0.00  0.00    +0.036 C 
BRANCH  24  28
ATOM     28  O   UNL     1      34.697 -19.270 -21.284  0.00  0.00    -0.506 OA
ATOM     29  H   UNL     1      35.275 -19.026 -21.980  0.00  0.00    +0.292 HD
ENDBRANCH  24  28
ENDBRANCH  19  21
ENDBRANCH   3  18
BRANCH   7  31
ATOM     30  O   UNL     1      27.455 -24.343 -17.120  0.00  0.00    -0.245 OA
ATOM     31  C   UNL     1      28.095 -23.414 -16.608  0.00  0.00    +0.341 C 
BRANCH  31  32
ATOM     32  O   UNL     1      27.587 -22.162 -16.392  0.00  0.00    -0.441 OA
ATOM     33  C   UNL     1      26.314 -21.871 -16.980  0.00  0.00    +0.256 C 
ENDBRANCH  31  32
ENDBRANCH   7  31
TORSDOF 6
ENDMDL
MODEL 4
REMARK VINA RESULT:     -11.8      2.461      4.999
REMARK  Name = 6852141
REMARK  6 active torsions:
REMARK  status: ('A' for Active; 'I' for Inactive)
REMARK    1  A    between atoms: C_3  and  N_18
REMARK    2  A    between atoms: C_7  and  C_31
REMARK    3  A    between atoms: C_9  and  C_13
REMARK    4  A    between atoms: C_19  and  C_21
REMARK    5  A    between atoms: C_24  and  O_28
REMARK    6  A    between atoms: C_31  and  O_32
REMARK                            x       y       z     vdW  Elec       q    Type
REMARK                         _______ _______ _______ _____ _____    ______ ____
ROOT
ATOM      1  C   UNL     1      33.290 -23.690 -15.160  0.00  0.00    +0.014 C 
ATOM      2  C   UNL     1      32.743 -24.494 -14.132  0.00  0.00    +0.001 C 
ATOM      3  C   UNL     1      32.446 -23.199 -16.170  0.00  0.00    +0.051 C 
ATOM      4  C   UNL     1      34.663 -23.401 -15.148  0.00  0.00    +0.004 C 
ATOM      5  C   UNL     1      31.368 -24.784 -14.143  0.00  0.00    +0.007 C 
ATOM      6  C   UNL     1      31.083 -23.496 -16.165  0.00  0.00    +0.021 C 
ATOM      7  C   UNL     1      30.545 -24.287 -15.154  0.00  0.00    +0.077 C 
ATOM      8  C   UNL     1      33.587 -24.986 -13.122  0.00  0.00    +0.000 C 
ATOM      9  C   UNL     1      35.487 -23.897 -14.137  0.00  0.00    +0.031 C 
ATOM     10  C   UNL     1      34.949 -24.688 -13.126  0.00  0.00    +0.003 C 
ENDROOT
BRANCH   9  13
ATOM     11  N   UNL     1      37.628 -23.499 -15.329  0.00  0.00    -0.343 N 
ATOM     12  N   UNL     1      37.540 -23.387 -12.996  0.00  0.00    -0.285 NA
ATOM     13  C   UNL     1      36.907 -23.587 -14.139  0.00  0.00    +0.117 C 
ATOM     14  H   UNL     1      38.589 -23.288 -15.308  0.00  0.00    +0.144 HD
ATOM     15  H   UNL     1      37.175 -23.648 -16.191  0.00  0.00    +0.144 HD
ATOM     16  H   UNL     1      38.501 -23.177 -12.996  0.00  0.00    +0.188 HD
ENDBRANCH   9  13
BRANCH   3  18
ATOM     17  O   UNL     1      33.772 -23.969 -18.746  0.00  0.00    -0.270 OA
ATOM     18  N   UNL     1      32.930 -22.400 -17.213  0.00  0.00    -0.280 N 
ATOM     19  C   UNL     1      33.543 -22.816 -18.398  0.00  0.00    +0.249 C 
ATOM     20  H   UNL     1      32.827 -21.428 -17.097  0.00  0.00    +0.155 HD
BRANCH  19  21
ATOM     21  C   UNL     1      33.979 -21.721 -19.303  0.00  0.00    +0.053 C 
ATOM     22  C   UNL     1      35.301 -21.328 -19.333  0.00  0.00    +0.016 C 
ATOM     23  C   UNL     1      33.019 -21.125 -20.098  0.00  0.00    +0.004 C 
ATOM     24  C   UNL     1      35.681 -20.297 -20.192  0.00  0.00    +0.130 C 
ATOM     25  C   UNL     1      36.329 -21.984 -18.465  0.00  0.00    +0.034 C 
ATOM     26  C   UNL     1      33.399 -20.094 -20.958  0.00  0.00    +0.003 C 
ATOM     27  C   UNL     1      34.730 -19.681 -21.005  0.00  0.00    +0.036 C 
BRANCH  24  28
ATOM     28  O   UNL     1      36.977 -19.880 -20.253  0.00  0.00    -0.506 OA
ATOM     29  H   UNL     1      37.206 -19.135 -20.774  0.00  0.00    +0.292 HD
ENDBRANCH  24  28
ENDBRANCH  19  21
ENDBRANCH   3  18
BRANCH   7  31
ATOM     30  O   UNL     1      28.591 -25.441 -14.419  0.00  0.00    -0.245 OA
ATOM     31  C   UNL     1      29.123 -24.596 -15.152  0.00  0.00    +0.341 C 
BRANCH  31  32
ATOM     32  O   UNL     1      28.442 -23.836 -16.063  0.00  0.00    -0.441 OA
ATOM     33  C   UNL     1      27.527 -22.866 -15.541  0.00  0.00    +0.256 C 
ENDBRANCH  31  32
ENDBRANCH   7  31
TORSDOF 6
ENDMDL
MODEL 5
REMARK VINA RESULT:     -10.8      1.235      2.019
REMARK  Name = 6852141
REMARK  6 active torsions:
REMARK  status: ('A' for Active; 'I' for Inactive)
REMARK    1  A    between atoms: C_3  and  N_18
REMARK    2  A    between atoms: C_7  and  C_31
REMARK    3  A    between atoms: C_9  and  C_13
REMARK    4  A    between atoms: C_19  and  C_21
REMARK    5  A    between atoms: C_24  and  O_28
REMARK    6  A    between atoms: C_31  and  O_32
REMARK                            x       y       z     vdW  Elec       q    Type
REMARK                         _______ _______ _______ _____ _____    ______ ____
ROOT
ATOM      1  C   UNL     1      32.864 -23.895 -14.661  0.00  0.00    +0.014 C 
ATOM      2  C   UNL     1      32.613 -24.624 -13.474  0.00  0.00    +0.001 C 
ATOM      3  C   UNL     1      34.183 -23.534 -14.980  0.00  0.00    +0.051 C 
ATOM      4  C   UNL     1      31.788 -23.549 -15.494  0.00  0.00    +0.004 C 
ATOM      5  C   UNL     1      33.689 -24.971 -12.640  0.00  0.00    +0.007 C 
ATOM      6  C   UNL     1      35.240 -23.888 -14.140  0.00  0.00    +0.021 C 
ATOM      7  C   UNL     1      34.993 -24.604 -12.973  0.00  0.00    +0.077 C 
ATOM      8  C   UNL     1      31.294 -24.984 -13.155  0.00  0.00    +0.000 C 
ATOM      9  C   UNL     1      30.483 -23.915 -15.161  0.00  0.00    +0.031 C 
ATOM     10  C   UNL     1      30.237 -24.632 -13.994  0.00  0.00    +0.003 C 
ENDROOT
BRANCH   9  13
ATOM     11  N   UNL     1      28.336 -24.435 -16.296  0.00  0.00    -0.343 N 
ATOM     12  N   UNL     1      29.358 -22.356 -16.605  0.00  0.00    -0.285 NA
ATOM     13  C   UNL     1      29.380 -23.549 -16.036  0.00  0.00    +0.117 C 
ATOM     14  H   UNL     1      27.600 -24.167 -16.891  0.00  0.00    +0.144 HD
ATOM     15  H   UNL     1      28.337 -25.330 -15.884  0.00  0.00    +0.144 HD
ATOM     16  H   UNL     1      28.613 -22.107 -17.197  0.00  0.00    +0.188 HD
ENDBRANCH   9  13
BRANCH   3  18
ATOM     17  O   UNL     1      33.815 -24.255 -17.866  0.00  0.00    -0.270 OA
ATOM     18  N   UNL     1      34.492 -22.812 -16.140  0.00  0.00    -0.280 N 
ATOM     19  C   UNL     1      34.297 -23.201 -17.468  0.00  0.00    +0.249 C 
ATOM     20  H   UNL     1      34.895 -21.925 -16.002  0.00  0.00    +0.155 HD
BRANCH  19  21
ATOM     21  C   UNL     1      34.757 -22.221 -18.487  0.00  0.00    +0.053 C 
ATOM     22  C   UNL     1      33.839 -21.531 -19.252  0.00  0.00    +0.016 C 
ATOM     23  C   UNL     1      36.118 -22.036 -18.631  0.00  0.00    +0.004 C 
ATOM     24  C   UNL     1      34.300 -20.618 -20.200  0.00  0.00    +0.130 C 
ATOM     25  C   UNL     1      32.367 -21.743 -19.083  0.00  0.00    +0.034 C 
ATOM     26  C   UNL     1      36.579 -21.123 -19.579  0.00  0.00    +0.003 C 
ATOM     27  C   UNL     1      35.669 -20.414 -20.363  0.00  0.00    +0.036 C 
BRANCH  24  28
ATOM     28  O   UNL     1      33.426 -19.915 -20.975  0.00  0.00    -0.506 OA
ATOM     29  H   UNL     1      32.669 -19.521 -20.588  0.00  0.00    +0.292 HD
ENDBRANCH  24  28
ENDBRANCH  19  21
ENDBRANCH   3  18
BRANCH   7  31
ATOM     30  O   UNL     1      35.974 -25.607 -11.043  0.00  0.00    -0.245 OA
ATOM     31  C   UNL     1      36.097 -24.971 -12.099  0.00  0.00    +0.341 C 
BRANCH  31  32
ATOM     32  O   UNL     1      37.295 -24.526 -12.588  0.00  0.00    -0.441 OA
ATOM     33  C   UNL     1      38.325 -25.505 -12.766  0.00  0.00    +0.256 C 
ENDBRANCH  31  32
ENDBRANCH   7  31
TORSDOF 6
ENDMDL
MODEL 6
REMARK VINA RESULT:     -10.6      2.580      7.280
REMARK  Name = 6852141
REMARK  6 active torsions:
REMARK  status: ('A' for Active; 'I' for Inactive)
REMARK    1  A    between atoms: C_3  and  N_18
REMARK    2  A    between atoms: C_7  and  C_31
REMARK    3  A    between atoms: C_9  and  C_13
REMARK    4  A    between atoms: C_19  and  C_21
REMARK    5  A    between atoms: C_24  and  O_28
REMARK    6  A    between atoms: C_31  and  O_32
REMARK                            x       y       z     vdW  Elec       q    Type
REMARK                         _______ _______ _______ _____ _____    ______ ____
ROOT
ATOM      1  C   UNL     1      35.252 -23.444 -15.790  0.00  0.00    +0.014 C 
ATOM      2  C   UNL     1      36.565 -23.004 -16.081  0.00  0.00    +0.001 C 
ATOM      3  C   UNL     1      34.208 -23.119 -16.672  0.00  0.00    +0.051 C 
ATOM      4  C   UNL     1      35.021 -24.195 -14.626  0.00  0.00    +0.004 C 
ATOM      5  C   UNL     1      36.796 -22.253 -17.245  0.00  0.00    +0.007 C 
ATOM      6  C   UNL     1      34.456 -22.373 -17.824  0.00  0.00    +0.021 C 
ATOM      7  C   UNL     1      35.747 -21.940 -18.110  0.00  0.00    +0.077 C 
ATOM      8  C   UNL     1      37.609 -23.328 -15.199  0.00  0.00    +0.000 C 
ATOM      9  C   UNL     1      36.070 -24.508 -13.762  0.00  0.00    +0.031 C 
ATOM     10  C   UNL     1      37.362 -24.075 -14.048  0.00  0.00    +0.003 C 
ENDROOT
BRANCH   9  13
ATOM     11  N   UNL     1      36.727 -26.237 -12.104  0.00  0.00    -0.343 N 
ATOM     12  N   UNL     1      34.695 -25.104 -11.882  0.00  0.00    -0.285 NA
ATOM     13  C   UNL     1      35.814 -25.287 -12.561  0.00  0.00    +0.117 C 
ATOM     14  H   UNL     1      36.534 -26.753 -11.290  0.00  0.00    +0.144 HD
ATOM     15  H   UNL     1      37.565 -26.390 -12.598  0.00  0.00    +0.144 HD
ATOM     16  H   UNL     1      34.520 -25.630 -11.070  0.00  0.00    +0.188 HD
ENDBRANCH   9  13
BRANCH   3  18
ATOM     17  O   UNL     1      32.304 -22.350 -14.488  0.00  0.00    -0.270 OA
ATOM     18  N   UNL     1      32.888 -23.526 -16.436  0.00  0.00    -0.280 N 
ATOM     19  C   UNL     1      32.044 -23.132 -15.395  0.00  0.00    +0.249 C 
ATOM     20  H   UNL     1      32.512 -24.167 -17.081  0.00  0.00    +0.155 HD
BRANCH  19  21
ATOM     21  C   UNL     1      30.699 -23.765 -15.397  0.00  0.00    +0.053 C 
ATOM     22  C   UNL     1      30.443 -24.855 -14.591  0.00  0.00    +0.016 C 
ATOM     23  C   UNL     1      29.736 -23.224 -16.226  0.00  0.00    +0.004 C 
ATOM     24  C   UNL     1      29.171 -25.429 -14.614  0.00  0.00    +0.130 C 
ATOM     25  C   UNL     1      31.497 -25.429 -13.698  0.00  0.00    +0.034 C 
ATOM     26  C   UNL     1      28.465 -23.798 -16.250  0.00  0.00    +0.003 C 
ATOM     27  C   UNL     1      28.183 -24.900 -15.443  0.00  0.00    +0.036 C 
BRANCH  24  28
ATOM     28  O   UNL     1      28.876 -26.506 -13.832  0.00  0.00    -0.506 OA
ATOM     29  H   UNL     1      29.464 -27.236 -13.799  0.00  0.00    +0.292 HD
ENDBRANCH  24  28
ENDBRANCH  19  21
ENDBRANCH   3  18
BRANCH   7  31
ATOM     30  O   UNL     1      37.009 -20.461 -19.492  0.00  0.00    -0.245 OA
ATOM     31  C   UNL     1      36.003 -21.161 -19.312  0.00  0.00    +0.341 C 
BRANCH  31  32
ATOM     32  O   UNL     1      34.993 -21.297 -20.224  0.00  0.00    -0.441 OA
ATOM     33  C   UNL     1      34.509 -20.097 -20.837  0.00  0.00    +0.256 C 
ENDBRANCH  31  32
ENDBRANCH   7  31
TORSDOF 6
ENDMDL
MODEL 7
REMARK VINA RESULT:     -10.4      2.226      6.719
REMARK  Name = 6852141
REMARK  6 active torsions:
REMARK  status: ('A' for Active; 'I' for Inactive)
REMARK    1  A    between atoms: C_3  and  N_18
REMARK    2  A    between atoms: C_7  and  C_31
REMARK    3  A    between atoms: C_9  and  C_13
REMARK    4  A    between atoms: C_19  and  C_21
REMARK    5  A    between atoms: C_24  and  O_28
REMARK    6  A    between atoms: C_31  and  O_32
REMARK                            x       y       z     vdW  Elec       q    Type
REMARK                         _______ _______ _______ _____ _____    ______ ____
ROOT
ATOM      1  C   UNL     1      33.182 -23.348 -16.006  0.00  0.00    +0.014 C 
ATOM      2  C   UNL     1      32.325 -22.885 -17.033  0.00  0.00    +0.001 C 
ATOM      3  C   UNL     1      34.573 -23.253 -16.178  0.00  0.00    +0.051 C 
ATOM      4  C   UNL     1      32.623 -23.891 -14.839  0.00  0.00    +0.004 C 
ATOM      5  C   UNL     1      32.883 -22.341 -18.201  0.00  0.00    +0.007 C 
ATOM      6  C   UNL     1      35.110 -22.709 -17.345  0.00  0.00    +0.021 C 
ATOM      7  C   UNL     1      34.267 -22.254 -18.355  0.00  0.00    +0.077 C 
ATOM      8  C   UNL     1      30.934 -22.980 -16.862  0.00  0.00    +0.000 C 
ATOM      9  C   UNL     1      31.239 -23.978 -14.685  0.00  0.00    +0.031 C 
ATOM     10  C   UNL     1      30.396 -23.522 -15.694  0.00  0.00    +0.003 C 
ENDROOT
BRANCH   9  13
ATOM     11  N   UNL     1      29.851 -25.665 -13.505  0.00  0.00    -0.343 N 
ATOM     12  N   UNL     1      30.944 -23.987 -12.299  0.00  0.00    -0.285 NA
ATOM     13  C   UNL     1      30.677 -24.543 -13.469  0.00  0.00    +0.117 C 
ATOM     14  H   UNL     1      29.482 -26.031 -12.670  0.00  0.00    +0.144 HD
ATOM     15  H   UNL     1      29.638 -26.091 -14.367  0.00  0.00    +0.144 HD
ATOM     16  H   UNL     1      30.564 -24.368 -11.475  0.00  0.00    +0.188 HD
ENDBRANCH   9  13
BRANCH   3  18
ATOM     17  O   UNL     1      35.413 -26.033 -15.434  0.00  0.00    -0.270 OA
ATOM     18  N   UNL     1      35.470 -23.696 -15.198  0.00  0.00    -0.280 N 
ATOM     19  C   UNL     1      35.825 -25.013 -14.894  0.00  0.00    +0.249 C 
ATOM     20  H   UNL     1      35.901 -22.995 -14.659  0.00  0.00    +0.155 HD
BRANCH  19  21
ATOM     21  C   UNL     1      36.788 -25.164 -13.771  0.00  0.00    +0.053 C 
ATOM     22  C   UNL     1      36.423 -24.806 -12.490  0.00  0.00    +0.016 C 
ATOM     23  C   UNL     1      38.039 -25.670 -14.063  0.00  0.00    +0.004 C 
ATOM     24  C   UNL     1      37.347 -24.960 -11.456  0.00  0.00    +0.130 C 
ATOM     25  C   UNL     1      35.062 -24.260 -12.191  0.00  0.00    +0.034 C 
ATOM     26  C   UNL     1      38.964 -25.823 -13.030  0.00  0.00    +0.003 C 
ATOM     27  C   UNL     1      38.617 -25.468 -11.727  0.00  0.00    +0.036 C 
BRANCH  24  28
ATOM     28  O   UNL     1      37.027 -24.619 -10.176  0.00  0.00    -0.506 OA
ATOM     29  H   UNL     1      36.951 -23.717  -9.936  0.00  0.00    +0.292 HD
ENDBRANCH  24  28
ENDBRANCH  19  21
ENDBRANCH   3  18
BRANCH   7  31
ATOM     30  O   UNL     1      35.977 -21.911 -19.982  0.00  0.00    -0.245 OA
ATOM     31  C   UNL     1      34.830 -21.688 -19.572  0.00  0.00    +0.341 C 
BRANCH  31  32
ATOM     32  O   UNL     1      33.933 -20.876 -20.211  0.00  0.00    -0.441 OA
ATOM     33  C   UNL     1      34.473 -19.835 -21.032  0.00  0.00    +0.256 C 
ENDBRANCH  31  32
ENDBRANCH   7  31
TORSDOF 6
ENDMDL
MODEL 8
REMARK VINA RESULT:     -10.0      2.507      7.820
REMARK  Name = 6852141
REMARK  6 active torsions:
REMARK  status: ('A' for Active; 'I' for Inactive)
REMARK    1  A    between atoms: C_3  and  N_18
REMARK    2  A    between atoms: C_7  and  C_31
REMARK    3  A    between atoms: C_9  and  C_13
REMARK    4  A    between atoms: C_19  and  C_21
REMARK    5  A    between atoms: C_24  and  O_28
REMARK    6  A    between atoms: C_31  and  O_32
REMARK                            x       y       z     vdW  Elec       q    Type
REMARK                         _______ _______ _______ _____ _____    ______ ____
ROOT
ATOM      1  C   UNL     1      35.038 -22.793 -16.860  0.00  0.00    +0.014 C 
ATOM      2  C   UNL     1      35.992 -22.095 -17.638  0.00  0.00    +0.001 C 
ATOM      3  C   UNL     1      33.703 -22.846 -17.295  0.00  0.00    +0.051 C 
ATOM      4  C   UNL     1      35.445 -23.415 -15.669  0.00  0.00    +0.004 C 
ATOM      5  C   UNL     1      35.585 -21.473 -18.829  0.00  0.00    +0.007 C 
ATOM      6  C   UNL     1      33.317 -22.223 -18.482  0.00  0.00    +0.021 C 
ATOM      7  C   UNL     1      34.256 -21.537 -19.247  0.00  0.00    +0.077 C 
ATOM      8  C   UNL     1      37.326 -22.041 -17.201  0.00  0.00    +0.000 C 
ATOM      9  C   UNL     1      36.774 -23.351 -15.251  0.00  0.00    +0.031 C 
ATOM     10  C   UNL     1      37.713 -22.666 -16.016  0.00  0.00    +0.003 C 
ENDROOT
BRANCH   9  13
ATOM     11  N   UNL     1      36.351 -24.010 -12.894  0.00  0.00    -0.343 N 
ATOM     12  N   UNL     1      38.357 -24.597 -13.939  0.00  0.00    -0.285 NA
ATOM     13  C   UNL     1      37.180 -24.002 -14.015  0.00  0.00    +0.117 C 
ATOM     14  H   UNL     1      36.645 -24.457 -12.068  0.00  0.00    +0.144 HD
ATOM     15  H   UNL     1      35.471 -23.569 -12.930  0.00  0.00    +0.144 HD
ATOM     16  H   UNL     1      38.633 -25.038 -13.104  0.00  0.00    +0.188 HD
ENDBRANCH   9  13
BRANCH   3  18
ATOM     17  O   UNL     1      30.786 -22.242 -16.970  0.00  0.00    -0.270 OA
ATOM     18  N   UNL     1      32.715 -23.520 -16.567  0.00  0.00    -0.280 N 
ATOM     19  C   UNL     1      31.362 -23.190 -16.450  0.00  0.00    +0.249 C 
ATOM     20  H   UNL     1      33.010 -24.322 -16.078  0.00  0.00    +0.155 HD
BRANCH  19  21
ATOM     21  C   UNL     1      30.565 -24.089 -15.574  0.00  0.00    +0.053 C 
ATOM     22  C   UNL     1      30.951 -24.307 -14.268  0.00  0.00    +0.016 C 
ATOM     23  C   UNL     1      29.443 -24.685 -16.116  0.00  0.00    +0.004 C 
ATOM     24  C   UNL     1      30.185 -25.156 -13.469  0.00  0.00    +0.130 C 
ATOM     25  C   UNL     1      32.170 -23.653 -13.696  0.00  0.00    +0.034 C 
ATOM     26  C   UNL     1      28.677 -25.533 -15.318  0.00  0.00    +0.003 C 
ATOM     27  C   UNL     1      29.048 -25.768 -13.994  0.00  0.00    +0.036 C 
BRANCH  24  28
ATOM     28  O   UNL     1      30.530 -25.397 -12.173  0.00  0.00    -0.506 OA
ATOM     29  H   UNL     1      31.288 -25.912 -11.978  0.00  0.00    +0.292 HD
ENDBRANCH  24  28
ENDBRANCH  19  21
ENDBRANCH   3  18
BRANCH   7  31
ATOM     30  O   UNL     1      32.675 -20.655 -20.801  0.00  0.00    -0.245 OA
ATOM     31  C   UNL     1      33.850 -20.886 -20.484  0.00  0.00    +0.341 C 
BRANCH  31  32
ATOM     32  O   UNL     1      34.930 -20.560 -21.258  0.00  0.00    -0.441 OA
ATOM     33  C   UNL     1      34.826 -19.366 -22.041  0.00  0.00    +0.256 C 
ENDBRANCH  31  32
ENDBRANCH   7  31
TORSDOF 6
ENDMDL
MODEL 9
REMARK VINA RESULT:      -9.5      2.467      6.382
REMARK  Name = 6852141
REMARK  6 active torsions:
REMARK  status: ('A' for Active; 'I' for Inactive)
REMARK    1  A    between atoms: C_3  and  N_18
REMARK    2  A    between atoms: C_7  and  C_31
REMARK    3  A    between atoms: C_9  and  C_13
REMARK    4  A    between atoms: C_19  and  C_21
REMARK    5  A    between atoms: C_24  and  O_28
REMARK    6  A    between atoms: C_31  and  O_32
REMARK                            x       y       z     vdW  Elec       q    Type
REMARK                         _______ _______ _______ _____ _____    ______ ____
ROOT
ATOM      1  C   UNL     1      32.753 -23.650 -16.006  0.00  0.00    +0.014 C 
ATOM      2  C   UNL     1      31.919 -22.998 -16.946  0.00  0.00    +0.001 C 
ATOM      3  C   UNL     1      34.146 -23.610 -16.181  0.00  0.00    +0.051 C 
ATOM      4  C   UNL     1      32.170 -24.322 -14.920  0.00  0.00    +0.004 C 
ATOM      5  C   UNL     1      32.502 -22.326 -18.032  0.00  0.00    +0.007 C 
ATOM      6  C   UNL     1      34.708 -22.936 -17.265  0.00  0.00    +0.021 C 
ATOM      7  C   UNL     1      33.888 -22.296 -18.190  0.00  0.00    +0.077 C 
ATOM      8  C   UNL     1      30.526 -23.039 -16.772  0.00  0.00    +0.000 C 
ATOM      9  C   UNL     1      30.784 -24.351 -14.763  0.00  0.00    +0.031 C 
ATOM     10  C   UNL     1      29.964 -23.711 -15.687  0.00  0.00    +0.003 C 
ENDROOT
BRANCH   9  13
ATOM     11  N   UNL     1      29.101 -25.899 -13.793  0.00  0.00    -0.343 N 
ATOM     12  N   UNL     1      30.698 -24.885 -12.421  0.00  0.00    -0.285 NA
ATOM     13  C   UNL     1      30.196 -25.051 -13.632  0.00  0.00    +0.117 C 
ATOM     14  H   UNL     1      28.719 -26.363 -13.014  0.00  0.00    +0.144 HD
ATOM     15  H   UNL     1      28.711 -26.034 -14.688  0.00  0.00    +0.144 HD
ATOM     16  H   UNL     1      30.302 -25.358 -11.654  0.00  0.00    +0.188 HD
ENDBRANCH   9  13
BRANCH   3  18
ATOM     17  O   UNL     1      36.403 -22.479 -14.564  0.00  0.00    -0.270 OA
ATOM     18  N   UNL     1      35.021 -24.237 -15.284  0.00  0.00    -0.280 N 
ATOM     19  C   UNL     1      36.061 -23.656 -14.554  0.00  0.00    +0.249 C 
ATOM     20  H   UNL     1      34.887 -25.203 -15.154  0.00  0.00    +0.155 HD
BRANCH  19  21
ATOM     21  C   UNL     1      36.838 -24.595 -13.703  0.00  0.00    +0.053 C 
ATOM     22  C   UNL     1      38.128 -24.941 -14.048  0.00  0.00    +0.016 C 
ATOM     23  C   UNL     1      36.222 -25.096 -12.573  0.00  0.00    +0.004 C 
ATOM     24  C   UNL     1      38.833 -25.824 -13.230  0.00  0.00    +0.130 C 
ATOM     25  C   UNL     1      38.781 -24.388 -15.276  0.00  0.00    +0.034 C 
ATOM     26  C   UNL     1      36.926 -25.979 -11.755  0.00  0.00    +0.003 C 
ATOM     27  C   UNL     1      38.231 -26.343 -12.084  0.00  0.00    +0.036 C 
BRANCH  24  28
ATOM     28  O   UNL     1      40.110 -26.191 -13.534  0.00  0.00    -0.506 OA
ATOM     29  H   UNL     1      40.627 -26.652 -12.903  0.00  0.00    +0.292 HD
ENDBRANCH  24  28
ENDBRANCH  19  21
ENDBRANCH   3  18
BRANCH   7  31
ATOM     30  O   UNL     1      33.843 -20.879 -20.108  0.00  0.00    -0.245 OA
ATOM     31  C   UNL     1      34.477 -21.595 -19.321  0.00  0.00    +0.341 C 
BRANCH  31  32
ATOM     32  O   UNL     1      35.823 -21.824 -19.409  0.00  0.00    -0.441 OA
ATOM     33  C   UNL     1      36.643 -20.719 -19.804  0.00  0.00    +0.256 C 
ENDBRANCH  31  32
ENDBRANCH   7  31
TORSDOF 6
ENDMDL
