MODEL 1
REMARK VINA RESULT:     -11.7      0.000      0.000
REMARK  Name = 448942
REMARK  8 active torsions:
REMARK  status: ('A' for Active; 'I' for Inactive)
REMARK    1  A    between atoms: C_2  and  C_20
REMARK    2  A    between atoms: C_3  and  C_6
REMARK    3  A    between atoms: C_7  and  C_13
REMARK    4  A    between atoms: N_19  and  C_22
REMARK    5  A    between atoms: C_22  and  C_23
REMARK    6  A    between atoms: C_22  and  C_29
REMARK    7  A    between atoms: C_29  and  C_31
REMARK    8  A    between atoms: C_31  and  O_32
REMARK                            x       y       z     vdW  Elec       q    Type
REMARK                         _______ _______ _______ _____ _____    ______ ____
ROOT
ATOM      1  S   UNL     1      32.663 -23.924 -16.067  0.00  0.00    -0.082 S 
ATOM      2  C   UNL     1      34.354 -23.912 -16.135  0.00  0.00    +0.083 C 
ATOM      3  C   UNL     1      33.838 -22.526 -17.874  0.00  0.00    +0.007 C 
ATOM      4  C   UNL     1      34.875 -23.148 -17.119  0.00  0.00    +0.012 C 
ATOM      5  C   UNL     1      32.587 -22.863 -17.409  0.00  0.00    +0.036 C 
ENDROOT
BRANCH   3   6
ATOM      6  C   UNL     1      33.995 -21.643 -18.999  0.00  0.00    +0.001 C 
ATOM      7  C   UNL     1      34.296 -19.930 -21.178  0.00  0.00    +0.000 C 
ATOM      8  C   UNL     1      35.267 -21.369 -19.497  0.00  0.00    +0.000 C 
ATOM      9  C   UNL     1      32.872 -21.062 -19.588  0.00  0.00    +0.000 C 
ATOM     10  C   UNL     1      35.418 -20.511 -20.587  0.00  0.00    +0.000 C 
ATOM     11  C   UNL     1      33.023 -20.205 -20.678  0.00  0.00    +0.000 C 
BRANCH   7  13
ATOM     12  N   UNL     1      34.754 -17.318 -24.488  0.00  0.00    -0.242 NA
ATOM     13  C   UNL     1      34.453 -19.040 -22.307  0.00  0.00    +0.003 C 
ATOM     14  C   UNL     1      35.080 -17.811 -22.143  0.00  0.00    +0.021 C 
ATOM     15  C   UNL     1      33.976 -19.410 -23.560  0.00  0.00    +0.021 C 
ATOM     16  C   UNL     1      35.206 -16.993 -23.255  0.00  0.00    +0.099 C 
ATOM     17  C   UNL     1      34.150 -18.521 -24.608  0.00  0.00    +0.099 C 
ENDBRANCH   7  13
ENDBRANCH   3   6
BRANCH   2  20
ATOM     18  O   UNL     1      35.158 -25.940 -15.211  0.00  0.00    -0.270 OA
ATOM     19  N   UNL     1      35.669 -23.995 -14.102  0.00  0.00    -0.298 N 
ATOM     20  C   UNL     1      35.086 -24.712 -15.143  0.00  0.00    +0.252 C 
ATOM     21  H   UNL     1      35.583 -23.014 -14.092  0.00  0.00    +0.150 HD
BRANCH  19  22
ATOM     22  C   UNL     1      36.396 -24.646 -13.034  0.00  0.00    +0.105 C 
BRANCH  22  23
ATOM     23  C   UNL     1      37.788 -25.022 -13.503  0.00  0.00    -0.004 C 
ATOM     24  C   UNL     1      38.493 -25.987 -12.808  0.00  0.00    -0.003 C 
ATOM     25  C   UNL     1      38.317 -24.392 -14.613  0.00  0.00    -0.003 C 
ATOM     26  C   UNL     1      39.773 -26.334 -13.239  0.00  0.00    -0.000 C 
ATOM     27  C   UNL     1      39.597 -24.737 -15.045  0.00  0.00    -0.000 C 
ATOM     28  C   UNL     1      40.326 -25.708 -14.357  0.00  0.00    -0.000 C 
ENDBRANCH  22  23
BRANCH  22  29
ATOM     29  C   UNL     1      36.389 -23.764 -11.772  0.00  0.00    +0.133 C 
BRANCH  29  31
ATOM     30  O   UNL     1      36.243 -24.278  -9.393  0.00  0.00    -0.250 OA
ATOM     31  C   UNL     1      35.876 -24.482 -10.542  0.00  0.00    +0.316 C 
BRANCH  31  32
ATOM     32  O   UNL     1      34.952 -25.425 -10.865  0.00  0.00    -0.480 OA
ATOM     33  H   UNL     1      35.182 -26.129 -11.438  0.00  0.00    +0.295 HD
ENDBRANCH  31  32
ENDBRANCH  29  31
ENDBRANCH  22  29
ENDBRANCH  19  22
ENDBRANCH   2  20
TORSDOF 8
ENDMDL
MODEL 2
REMARK VINA RESULT:     -11.4      2.139      3.287
REMARK  Name = 448942
REMARK  8 active torsions:
REMARK  status: ('A' for Active; 'I' for Inactive)
REMARK    1  A    between atoms: C_2  and  C_20
REMARK    2  A    between atoms: C_3  and  C_6
REMARK    3  A    between atoms: C_7  and  C_13
REMARK    4  A    between atoms: N_19  and  C_22
REMARK    5  A    between atoms: C_22  and  C_23
REMARK    6  A    between atoms: C_22  and  C_29
REMARK    7  A    between atoms: C_29  and  C_31
REMARK    8  A    between atoms: C_31  and  O_32
REMARK                            x       y       z     vdW  Elec       q    Type
REMARK                         _______ _______ _______ _____ _____    ______ ____
ROOT
ATOM      1  S   UNL     1      34.860 -23.637 -16.696  0.00  0.00    -0.082 S 
ATOM      2  C   UNL     1      36.280 -22.729 -16.540  0.00  0.00    +0.083 C 
ATOM      3  C   UNL     1      35.366 -21.790 -18.409  0.00  0.00    +0.007 C 
ATOM      4  C   UNL     1      36.455 -21.784 -17.489  0.00  0.00    +0.012 C 
ATOM      5  C   UNL     1      34.429 -22.748 -18.096  0.00  0.00    +0.036 C 
ENDROOT
BRANCH   3   6
ATOM      6  C   UNL     1      35.193 -20.934 -19.552  0.00  0.00    +0.001 C 
ATOM      7  C   UNL     1      34.854 -19.275 -21.767  0.00  0.00    +0.000 C 
ATOM      8  C   UNL     1      36.286 -20.257 -20.087  0.00  0.00    +0.000 C 
ATOM      9  C   UNL     1      33.928 -20.784 -20.122  0.00  0.00    +0.000 C 
ATOM     10  C   UNL     1      36.118 -19.426 -21.195  0.00  0.00    +0.000 C 
ATOM     11  C   UNL     1      33.760 -19.953 -21.230  0.00  0.00    +0.000 C 
BRANCH   7  13
ATOM     12  N   UNL     1      34.337 -16.745 -25.131  0.00  0.00    -0.242 NA
ATOM     13  C   UNL     1      34.678 -18.413 -22.914  0.00  0.00    +0.003 C 
ATOM     14  C   UNL     1      35.192 -17.121 -22.901  0.00  0.00    +0.021 C 
ATOM     15  C   UNL     1      33.994 -18.871 -24.035  0.00  0.00    +0.021 C 
ATOM     16  C   UNL     1      34.997 -16.334 -24.025  0.00  0.00    +0.099 C 
ATOM     17  C   UNL     1      33.852 -18.006 -25.107  0.00  0.00    +0.099 C 
ENDBRANCH   7  13
ENDBRANCH   3   6
BRANCH   2  20
ATOM     18  O   UNL     1      37.893 -22.189 -14.891  0.00  0.00    -0.270 OA
ATOM     19  N   UNL     1      37.177 -24.369 -14.999  0.00  0.00    -0.298 N 
ATOM     20  C   UNL     1      37.173 -23.041 -15.416  0.00  0.00    +0.252 C 
ATOM     21  H   UNL     1      36.584 -25.012 -15.451  0.00  0.00    +0.150 HD
BRANCH  19  22
ATOM     22  C   UNL     1      38.027 -24.835 -13.925  0.00  0.00    +0.105 C 
BRANCH  22  23
ATOM     23  C   UNL     1      37.322 -24.669 -12.592  0.00  0.00    -0.004 C 
ATOM     24  C   UNL     1      37.696 -23.632 -11.759  0.00  0.00    -0.003 C 
ATOM     25  C   UNL     1      36.323 -25.559 -12.244  0.00  0.00    -0.003 C 
ATOM     26  C   UNL     1      37.048 -23.479 -10.533  0.00  0.00    -0.000 C 
ATOM     27  C   UNL     1      35.675 -25.406 -11.019  0.00  0.00    -0.000 C 
ATOM     28  C   UNL     1      36.038 -24.367 -10.163  0.00  0.00    -0.000 C 
ENDBRANCH  22  23
BRANCH  22  29
ATOM     29  C   UNL     1      38.491 -26.276 -14.200  0.00  0.00    +0.133 C 
BRANCH  29  31
ATOM     30  O   UNL     1      40.830 -26.654 -13.622  0.00  0.00    -0.250 OA
ATOM     31  C   UNL     1      39.979 -26.388 -14.460  0.00  0.00    +0.316 C 
BRANCH  31  32
ATOM     32  O   UNL     1      40.278 -26.128 -15.760  0.00  0.00    -0.480 OA
ATOM     33  H   UNL     1      40.965 -26.601 -16.186  0.00  0.00    +0.295 HD
ENDBRANCH  31  32
ENDBRANCH  29  31
ENDBRANCH  22  29
ENDBRANCH  19  22
ENDBRANCH   2  20
TORSDOF 8
ENDMDL
MODEL 3
REMARK VINA RESULT:     -11.3      2.376      4.162
REMARK  Name = 448942
REMARK  8 active torsions:
REMARK  status: ('A' for Active; 'I' for Inactive)
REMARK    1  A    between atoms: C_2  and  C_20
REMARK    2  A    between atoms: C_3  and  C_6
REMARK    3  A    between atoms: C_7  and  C_13
REMARK    4  A    between atoms: N_19  and  C_22
REMARK    5  A    between atoms: C_22  and  C_23
REMARK    6  A    between atoms: C_22  and  C_29
REMARK    7  A    between atoms: C_29  and  C_31
REMARK    8  A    between atoms: C_31  and  O_32
REMARK                            x       y       z     vdW  Elec       q    Type
REMARK                         _______ _______ _______ _____ _____    ______ ____
ROOT
ATOM      1  S   UNL     1      37.186 -22.790 -16.214  0.00  0.00    -0.082 S 
ATOM      2  C   UNL     1      35.510 -23.016 -16.291  0.00  0.00    +0.083 C 
ATOM      3  C   UNL     1      35.855 -21.689 -18.117  0.00  0.00    +0.007 C 
ATOM      4  C   UNL     1      34.903 -22.397 -17.327  0.00  0.00    +0.012 C 
ATOM      5  C   UNL     1      37.134 -21.818 -17.623  0.00  0.00    +0.036 C 
ENDROOT
BRANCH   3   6
ATOM      6  C   UNL     1      35.595 -20.910 -19.298  0.00  0.00    +0.001 C 
ATOM      7  C   UNL     1      35.088 -19.400 -21.586  0.00  0.00    +0.000 C 
ATOM      8  C   UNL     1      36.624 -20.183 -19.892  0.00  0.00    +0.000 C 
ATOM      9  C   UNL     1      34.312 -20.884 -19.845  0.00  0.00    +0.000 C 
ATOM     10  C   UNL     1      36.371 -19.427 -21.037  0.00  0.00    +0.000 C 
ATOM     11  C   UNL     1      34.060 -20.128 -20.989  0.00  0.00    +0.000 C 
BRANCH   7  13
ATOM     12  N   UNL     1      34.317 -17.097 -25.063  0.00  0.00    -0.242 NA
ATOM     13  C   UNL     1      34.826 -18.616 -22.772  0.00  0.00    +0.003 C 
ATOM     14  C   UNL     1      35.275 -17.302 -22.853  0.00  0.00    +0.021 C 
ATOM     15  C   UNL     1      34.122 -19.170 -23.836  0.00  0.00    +0.021 C 
ATOM     16  C   UNL     1      34.998 -16.591 -24.009  0.00  0.00    +0.099 C 
ATOM     17  C   UNL     1      33.896 -18.376 -24.948  0.00  0.00    +0.099 C 
ENDBRANCH   7  13
ENDBRANCH   3   6
BRANCH   2  20
ATOM     18  O   UNL     1      34.990 -25.072 -15.235  0.00  0.00    -0.270 OA
ATOM     19  N   UNL     1      34.126 -23.156 -14.308  0.00  0.00    -0.298 N 
ATOM     20  C   UNL     1      34.881 -23.845 -15.254  0.00  0.00    +0.252 C 
ATOM     21  H   UNL     1      34.070 -22.175 -14.366  0.00  0.00    +0.150 HD
BRANCH  19  22
ATOM     22  C   UNL     1      33.422 -23.837 -13.243  0.00  0.00    +0.105 C 
BRANCH  22  23
ATOM     23  C   UNL     1      32.022 -24.206 -13.696  0.00  0.00    -0.004 C 
ATOM     24  C   UNL     1      31.544 -25.476 -13.432  0.00  0.00    -0.003 C 
ATOM     25  C   UNL     1      31.260 -23.263 -14.360  0.00  0.00    -0.003 C 
ATOM     26  C   UNL     1      30.257 -25.816 -13.848  0.00  0.00    -0.000 C 
ATOM     27  C   UNL     1      29.973 -23.603 -14.776  0.00  0.00    -0.000 C 
ATOM     28  C   UNL     1      29.472 -24.880 -14.521  0.00  0.00    -0.000 C 
ENDBRANCH  22  23
BRANCH  22  29
ATOM     29  C   UNL     1      34.244 -25.038 -12.745  0.00  0.00    +0.133 C 
BRANCH  29  31
ATOM     30  O   UNL     1      35.358 -25.378 -10.602  0.00  0.00    -0.250 OA
ATOM     31  C   UNL     1      35.174 -24.695 -11.599  0.00  0.00    +0.316 C 
BRANCH  31  32
ATOM     32  O   UNL     1      35.781 -23.495 -11.795  0.00  0.00    -0.480 OA
ATOM     33  H   UNL     1      36.697 -23.400 -11.622  0.00  0.00    +0.295 HD
ENDBRANCH  31  32
ENDBRANCH  29  31
ENDBRANCH  22  29
ENDBRANCH  19  22
ENDBRANCH   2  20
TORSDOF 8
ENDMDL
MODEL 4
REMARK VINA RESULT:     -11.0      2.907      4.645
REMARK  Name = 448942
REMARK  8 active torsions:
REMARK  status: ('A' for Active; 'I' for Inactive)
REMARK    1  A    between atoms: C_2  and  C_20
REMARK    2  A    between atoms: C_3  and  C_6
REMARK    3  A    between atoms: C_7  and  C_13
REMARK    4  A    between atoms: N_19  and  C_22
REMARK    5  A    between atoms: C_22  and  C_23
REMARK    6  A    between atoms: C_22  and  C_29
REMARK    7  A    between atoms: C_29  and  C_31
REMARK    8  A    between atoms: C_31  and  O_32
REMARK                            x       y       z     vdW  Elec       q    Type
REMARK                         _______ _______ _______ _____ _____    ______ ____
ROOT
ATOM      1  S   UNL     1      36.837 -21.557 -19.417  0.00  0.00    -0.082 S 
ATOM      2  C   UNL     1      35.149 -21.642 -19.311  0.00  0.00    +0.083 C 
ATOM      3  C   UNL     1      35.412 -19.792 -20.624  0.00  0.00    +0.007 C 
ATOM      4  C   UNL     1      34.492 -20.669 -19.980  0.00  0.00    +0.012 C 
ATOM      5  C   UNL     1      36.720 -20.158 -20.399  0.00  0.00    +0.036 C 
ENDROOT
BRANCH   3   6
ATOM      6  C   UNL     1      35.096 -18.641 -21.426  0.00  0.00    +0.001 C 
ATOM      7  C   UNL     1      34.482 -16.411 -22.984  0.00  0.00    +0.000 C 
ATOM      8  C   UNL     1      35.090 -17.372 -20.851  0.00  0.00    +0.000 C 
ATOM      9  C   UNL     1      34.795 -18.798 -22.779  0.00  0.00    +0.000 C 
ATOM     10  C   UNL     1      34.783 -16.256 -21.630  0.00  0.00    +0.000 C 
ATOM     11  C   UNL     1      34.488 -17.682 -23.557  0.00  0.00    +0.000 C 
BRANCH   7  13
ATOM     12  N   UNL     1      33.541 -13.018 -25.348  0.00  0.00    -0.242 NA
ATOM     13  C   UNL     1      34.162 -15.255 -23.790  0.00  0.00    +0.003 C 
ATOM     14  C   UNL     1      34.310 -13.976 -23.266  0.00  0.00    +0.021 C 
ATOM     15  C   UNL     1      33.703 -15.417 -25.093  0.00  0.00    +0.021 C 
ATOM     16  C   UNL     1      33.989 -12.900 -24.078  0.00  0.00    +0.099 C 
ATOM     17  C   UNL     1      33.409 -14.277 -25.823  0.00  0.00    +0.099 C 
ENDBRANCH   7  13
ENDBRANCH   3   6
BRANCH   2  20
ATOM     18  O   UNL     1      33.865 -23.613 -19.035  0.00  0.00    -0.270 OA
ATOM     19  N   UNL     1      34.829 -22.704 -17.159  0.00  0.00    -0.298 N 
ATOM     20  C   UNL     1      34.565 -22.736 -18.525  0.00  0.00    +0.252 C 
ATOM     21  H   UNL     1      35.395 -21.983 -16.799  0.00  0.00    +0.150 HD
BRANCH  19  22
ATOM     22  C   UNL     1      34.297 -23.697 -16.250  0.00  0.00    +0.105 C 
BRANCH  22  23
ATOM     23  C   UNL     1      35.399 -24.224 -15.351  0.00  0.00    -0.004 C 
ATOM     24  C   UNL     1      36.609 -23.556 -15.308  0.00  0.00    -0.003 C 
ATOM     25  C   UNL     1      35.167 -25.359 -14.597  0.00  0.00    -0.003 C 
ATOM     26  C   UNL     1      37.623 -24.041 -14.481  0.00  0.00    -0.000 C 
ATOM     27  C   UNL     1      36.180 -25.844 -13.771  0.00  0.00    -0.000 C 
ATOM     28  C   UNL     1      37.408 -25.186 -13.714  0.00  0.00    -0.000 C 
ENDBRANCH  22  23
BRANCH  22  29
ATOM     29  C   UNL     1      33.096 -23.123 -15.479  0.00  0.00    +0.133 C 
BRANCH  29  31
ATOM     30  O   UNL     1      30.947 -24.260 -15.671  0.00  0.00    -0.250 OA
ATOM     31  C   UNL     1      31.761 -23.460 -16.111  0.00  0.00    +0.316 C 
BRANCH  31  32
ATOM     32  O   UNL     1      31.572 -22.775 -17.270  0.00  0.00    -0.480 OA
ATOM     33  H   UNL     1      32.289 -22.646 -17.859  0.00  0.00    +0.295 HD
ENDBRANCH  31  32
ENDBRANCH  29  31
ENDBRANCH  22  29
ENDBRANCH  19  22
ENDBRANCH   2  20
TORSDOF 8
ENDMDL
MODEL 5
REMARK VINA RESULT:     -10.4      7.854     11.847
REMARK  Name = 448942
REMARK  8 active torsions:
REMARK  status: ('A' for Active; 'I' for Inactive)
REMARK    1  A    between atoms: C_2  and  C_20
REMARK    2  A    between atoms: C_3  and  C_6
REMARK    3  A    between atoms: C_7  and  C_13
REMARK    4  A    between atoms: N_19  and  C_22
REMARK    5  A    between atoms: C_22  and  C_23
REMARK    6  A    between atoms: C_22  and  C_29
REMARK    7  A    between atoms: C_29  and  C_31
REMARK    8  A    between atoms: C_31  and  O_32
REMARK                            x       y       z     vdW  Elec       q    Type
REMARK                         _______ _______ _______ _____ _____    ______ ____
ROOT
ATOM      1  S   UNL     1      33.270 -15.013 -20.598  0.00  0.00    -0.082 S 
ATOM      2  C   UNL     1      34.091 -14.750 -22.055  0.00  0.00    +0.083 C 
ATOM      3  C   UNL     1      33.109 -12.714 -21.734  0.00  0.00    +0.007 C 
ATOM      4  C   UNL     1      33.943 -13.511 -22.571  0.00  0.00    +0.012 C 
ATOM      5  C   UNL     1      32.674 -13.408 -20.627  0.00  0.00    +0.036 C 
ENDROOT
BRANCH   3   6
ATOM      6  C   UNL     1      32.719 -11.346 -21.947  0.00  0.00    +0.001 C 
ATOM      7  C   UNL     1      31.964  -8.694 -22.358  0.00  0.00    +0.000 C 
ATOM      8  C   UNL     1      33.068 -10.699 -23.131  0.00  0.00    +0.000 C 
ATOM      9  C   UNL     1      31.993 -10.670 -20.967  0.00  0.00    +0.000 C 
ATOM     10  C   UNL     1      32.692  -9.372 -23.337  0.00  0.00    +0.000 C 
ATOM     11  C   UNL     1      31.616  -9.342 -21.174  0.00  0.00    +0.000 C 
BRANCH   7  13
ATOM     12  N   UNL     1      30.824  -4.657 -22.983  0.00  0.00    -0.242 NA
ATOM     13  C   UNL     1      31.575  -7.318 -22.571  0.00  0.00    +0.003 C 
ATOM     14  C   UNL     1      31.535  -6.795 -23.859  0.00  0.00    +0.021 C 
ATOM     15  C   UNL     1      31.240  -6.511 -21.489  0.00  0.00    +0.021 C 
ATOM     16  C   UNL     1      31.157  -5.471 -24.011  0.00  0.00    +0.099 C 
ATOM     17  C   UNL     1      30.875  -5.200 -21.746  0.00  0.00    +0.099 C 
ENDBRANCH   7  13
ENDBRANCH   3   6
BRANCH   2  20
ATOM     18  O   UNL     1      35.813 -15.683 -23.388  0.00  0.00    -0.270 OA
ATOM     19  N   UNL     1      34.459 -17.137 -22.236  0.00  0.00    -0.298 N 
ATOM     20  C   UNL     1      34.871 -15.863 -22.614  0.00  0.00    +0.252 C 
ATOM     21  H   UNL     1      33.700 -17.229 -21.615  0.00  0.00    +0.150 HD
BRANCH  19  22
ATOM     22  C   UNL     1      35.109 -18.333 -22.728  0.00  0.00    +0.105 C 
BRANCH  22  23
ATOM     23  C   UNL     1      35.542 -19.207 -21.567  0.00  0.00    -0.004 C 
ATOM     24  C   UNL     1      34.651 -20.131 -21.054  0.00  0.00    -0.003 C 
ATOM     25  C   UNL     1      36.815 -19.058 -21.051  0.00  0.00    -0.003 C 
ATOM     26  C   UNL     1      35.049 -20.935 -19.986  0.00  0.00    -0.000 C 
ATOM     27  C   UNL     1      37.213 -19.862 -19.983  0.00  0.00    -0.000 C 
ATOM     28  C   UNL     1      36.329 -20.800 -19.450  0.00  0.00    -0.000 C 
ENDBRANCH  22  23
BRANCH  22  29
ATOM     29  C   UNL     1      34.200 -19.055 -23.738  0.00  0.00    +0.133 C 
BRANCH  29  31
ATOM     30  O   UNL     1      32.480 -18.191 -25.235  0.00  0.00    -0.250 OA
ATOM     31  C   UNL     1      33.616 -18.133 -24.787  0.00  0.00    +0.316 C 
BRANCH  31  32
ATOM     32  O   UNL     1      34.530 -17.219 -25.209  0.00  0.00    -0.480 OA
ATOM     33  H   UNL     1      34.244 -16.421 -25.608  0.00  0.00    +0.295 HD
ENDBRANCH  31  32
ENDBRANCH  29  31
ENDBRANCH  22  29
ENDBRANCH  19  22
ENDBRANCH   2  20
TORSDOF 8
ENDMDL
MODEL 6
REMARK VINA RESULT:     -10.0     10.515     16.891
REMARK  Name = 448942
REMARK  8 active torsions:
REMARK  status: ('A' for Active; 'I' for Inactive)
REMARK    1  A    between atoms: C_2  and  C_20
REMARK    2  A    between atoms: C_3  and  C_6
REMARK    3  A    between atoms: C_7  and  C_13
REMARK    4  A    between atoms: N_19  and  C_22
REMARK    5  A    between atoms: C_22  and  C_23
REMARK    6  A    between atoms: C_22  and  C_29
REMARK    7  A    between atoms: C_29  and  C_31
REMARK    8  A    between atoms: C_31  and  O_32
REMARK                            x       y       z     vdW  Elec       q    Type
REMARK                         _______ _______ _______ _____ _____    ______ ____
ROOT
ATOM      1  S   UNL     1      32.089  -9.397 -22.717  0.00  0.00    -0.082 S 
ATOM      2  C   UNL     1      33.656  -9.304 -23.351  0.00  0.00    +0.083 C 
ATOM      3  C   UNL     1      33.405 -11.564 -23.139  0.00  0.00    +0.007 C 
ATOM      4  C   UNL     1      34.263 -10.497 -23.536  0.00  0.00    +0.012 C 
ATOM      5  C   UNL     1      32.193 -11.106 -22.674  0.00  0.00    +0.036 C 
ENDROOT
BRANCH   3   6
ATOM      6  C   UNL     1      33.695 -12.972 -23.185  0.00  0.00    +0.001 C 
ATOM      7  C   UNL     1      34.255 -15.701 -23.271  0.00  0.00    +0.000 C 
ATOM      8  C   UNL     1      33.416 -13.702 -24.338  0.00  0.00    +0.000 C 
ATOM      9  C   UNL     1      34.254 -13.603 -22.074  0.00  0.00    +0.000 C 
ATOM     10  C   UNL     1      33.695 -15.068 -24.382  0.00  0.00    +0.000 C 
ATOM     11  C   UNL     1      34.534 -14.969 -22.118  0.00  0.00    +0.000 C 
BRANCH   7  13
ATOM     12  N   UNL     1      35.106 -19.854 -23.404  0.00  0.00    -0.242 NA
ATOM     13  C   UNL     1      34.544 -17.117 -23.316  0.00  0.00    +0.003 C 
ATOM     14  C   UNL     1      35.366 -17.692 -22.353  0.00  0.00    +0.021 C 
ATOM     15  C   UNL     1      34.004 -17.909 -24.324  0.00  0.00    +0.021 C 
ATOM     16  C   UNL     1      35.613 -19.053 -22.440  0.00  0.00    +0.099 C 
ATOM     17  C   UNL     1      34.312 -19.260 -24.323  0.00  0.00    +0.099 C 
ENDBRANCH   7  13
ENDBRANCH   3   6
BRANCH   2  20
ATOM     18  O   UNL     1      35.334  -7.633 -23.288  0.00  0.00    -0.270 OA
ATOM     19  N   UNL     1      33.345  -7.099 -24.305  0.00  0.00    -0.298 N 
ATOM     20  C   UNL     1      34.201  -7.970 -23.638  0.00  0.00    +0.252 C 
ATOM     21  H   UNL     1      32.449  -7.416 -24.564  0.00  0.00    +0.150 HD
BRANCH  19  22
ATOM     22  C   UNL     1      33.729  -5.742 -24.629  0.00  0.00    +0.105 C 
BRANCH  22  23
ATOM     23  C   UNL     1      33.769  -5.557 -26.134  0.00  0.00    -0.004 C 
ATOM     24  C   UNL     1      34.388  -6.518 -26.912  0.00  0.00    -0.003 C 
ATOM     25  C   UNL     1      33.187  -4.433 -26.690  0.00  0.00    -0.003 C 
ATOM     26  C   UNL     1      34.426  -6.348 -28.296  0.00  0.00    -0.000 C 
ATOM     27  C   UNL     1      33.225  -4.263 -28.073  0.00  0.00    -0.000 C 
ATOM     28  C   UNL     1      33.846  -5.220 -28.877  0.00  0.00    -0.000 C 
ENDBRANCH  22  23
BRANCH  22  29
ATOM     29  C   UNL     1      32.806  -4.742 -23.910  0.00  0.00    +0.133 C 
BRANCH  29  31
ATOM     30  O   UNL     1      32.687  -5.537 -21.608  0.00  0.00    -0.250 OA
ATOM     31  C   UNL     1      32.139  -5.320 -22.680  0.00  0.00    +0.316 C 
BRANCH  31  32
ATOM     32  O   UNL     1      30.829  -5.602 -22.910  0.00  0.00    -0.480 OA
ATOM     33  H   UNL     1      30.240  -4.917 -23.158  0.00  0.00    +0.295 HD
ENDBRANCH  31  32
ENDBRANCH  29  31
ENDBRANCH  22  29
ENDBRANCH  19  22
ENDBRANCH   2  20
TORSDOF 8
ENDMDL
MODEL 7
REMARK VINA RESULT:      -9.7     11.029     17.091
REMARK  Name = 448942
REMARK  8 active torsions:
REMARK  status: ('A' for Active; 'I' for Inactive)
REMARK    1  A    between atoms: C_2  and  C_20
REMARK    2  A    between atoms: C_3  and  C_6
REMARK    3  A    between atoms: C_7  and  C_13
REMARK    4  A    between atoms: N_19  and  C_22
REMARK    5  A    between atoms: C_22  and  C_23
REMARK    6  A    between atoms: C_22  and  C_29
REMARK    7  A    between atoms: C_29  and  C_31
REMARK    8  A    between atoms: C_31  and  O_32
REMARK                            x       y       z     vdW  Elec       q    Type
REMARK                         _______ _______ _______ _____ _____    ______ ____
ROOT
ATOM      1  S   UNL     1      31.513  -8.934 -21.490  0.00  0.00    -0.082 S 
ATOM      2  C   UNL     1      32.052  -8.981 -23.094  0.00  0.00    +0.083 C 
ATOM      3  C   UNL     1      32.631 -11.071 -22.378  0.00  0.00    +0.007 C 
ATOM      4  C   UNL     1      32.624 -10.148 -23.464  0.00  0.00    +0.012 C 
ATOM      5  C   UNL     1      32.058 -10.540 -21.245  0.00  0.00    +0.036 C 
ENDROOT
BRANCH   3   6
ATOM      6  C   UNL     1      33.153 -12.411 -22.383  0.00  0.00    +0.001 C 
ATOM      7  C   UNL     1      34.167 -15.008 -22.393  0.00  0.00    +0.000 C 
ATOM      8  C   UNL     1      33.053 -13.200 -21.239  0.00  0.00    +0.000 C 
ATOM      9  C   UNL     1      33.758 -12.917 -23.532  0.00  0.00    +0.000 C 
ATOM     10  C   UNL     1      33.561 -14.500 -21.243  0.00  0.00    +0.000 C 
ATOM     11  C   UNL     1      34.266 -14.216 -23.536  0.00  0.00    +0.000 C 
BRANCH   7  13
ATOM     12  N   UNL     1      35.716 -18.956 -22.403  0.00  0.00    -0.242 NA
ATOM     13  C   UNL     1      34.694 -16.354 -22.396  0.00  0.00    +0.003 C 
ATOM     14  C   UNL     1      35.192 -16.912 -21.224  0.00  0.00    +0.021 C 
ATOM     15  C   UNL     1      34.707 -17.097 -23.572  0.00  0.00    +0.021 C 
ATOM     16  C   UNL     1      35.687 -18.205 -21.279  0.00  0.00    +0.099 C 
ATOM     17  C   UNL     1      35.224 -18.381 -23.523  0.00  0.00    +0.099 C 
ENDBRANCH   7  13
ENDBRANCH   3   6
BRANCH   2  20
ATOM     18  O   UNL     1      30.984  -7.720 -24.792  0.00  0.00    -0.270 OA
ATOM     19  N   UNL     1      32.730  -6.730 -23.675  0.00  0.00    -0.298 N 
ATOM     20  C   UNL     1      31.853  -7.783 -23.920  0.00  0.00    +0.252 C 
ATOM     21  H   UNL     1      33.407  -6.828 -22.968  0.00  0.00    +0.150 HD
BRANCH  19  22
ATOM     22  C   UNL     1      32.678  -5.496 -24.429  0.00  0.00    +0.105 C 
BRANCH  22  23
ATOM     23  C   UNL     1      32.207  -4.361 -23.540  0.00  0.00    -0.004 C 
ATOM     24  C   UNL     1      32.087  -4.579 -22.180  0.00  0.00    -0.003 C 
ATOM     25  C   UNL     1      31.910  -3.138 -24.111  0.00  0.00    -0.003 C 
ATOM     26  C   UNL     1      31.653  -3.535 -21.362  0.00  0.00    -0.000 C 
ATOM     27  C   UNL     1      31.476  -2.095 -23.293  0.00  0.00    -0.000 C 
ATOM     28  C   UNL     1      31.347  -2.294 -21.918  0.00  0.00    -0.000 C 
ENDBRANCH  22  23
BRANCH  22  29
ATOM     29  C   UNL     1      34.035  -5.228 -25.103  0.00  0.00    +0.133 C 
BRANCH  29  31
ATOM     30  O   UNL     1      35.708  -6.583 -23.958  0.00  0.00    -0.250 OA
ATOM     31  C   UNL     1      35.019  -6.368 -24.946  0.00  0.00    +0.316 C 
BRANCH  31  32
ATOM     32  O   UNL     1      35.074  -7.135 -26.067  0.00  0.00    -0.480 OA
ATOM     33  H   UNL     1      35.700  -6.942 -26.736  0.00  0.00    +0.295 HD
ENDBRANCH  31  32
ENDBRANCH  29  31
ENDBRANCH  22  29
ENDBRANCH  19  22
ENDBRANCH   2  20
TORSDOF 8
ENDMDL
MODEL 8
REMARK VINA RESULT:      -9.4      8.803     14.398
REMARK  Name = 448942
REMARK  8 active torsions:
REMARK  status: ('A' for Active; 'I' for Inactive)
REMARK    1  A    between atoms: C_2  and  C_20
REMARK    2  A    between atoms: C_3  and  C_6
REMARK    3  A    between atoms: C_7  and  C_13
REMARK    4  A    between atoms: N_19  and  C_22
REMARK    5  A    between atoms: C_22  and  C_23
REMARK    6  A    between atoms: C_22  and  C_29
REMARK    7  A    between atoms: C_29  and  C_31
REMARK    8  A    between atoms: C_31  and  O_32
REMARK                            x       y       z     vdW  Elec       q    Type
REMARK                         _______ _______ _______ _____ _____    ______ ____
ROOT
ATOM      1  S   UNL     1      33.570 -13.329 -25.281  0.00  0.00    -0.082 S 
ATOM      2  C   UNL     1      33.847 -12.675 -23.744  0.00  0.00    +0.083 C 
ATOM      3  C   UNL     1      34.236 -14.890 -23.351  0.00  0.00    +0.007 C 
ATOM      4  C   UNL     1      34.191 -13.577 -22.800  0.00  0.00    +0.012 C 
ATOM      5  C   UNL     1      33.918 -14.899 -24.691  0.00  0.00    +0.036 C 
ENDROOT
BRANCH   3   6
ATOM      6  C   UNL     1      34.561 -16.110 -22.662  0.00  0.00    +0.001 C 
ATOM      7  C   UNL     1      35.190 -18.473 -21.323  0.00  0.00    +0.000 C 
ATOM      8  C   UNL     1      34.665 -17.304 -23.372  0.00  0.00    +0.000 C 
ATOM      9  C   UNL     1      34.771 -16.094 -21.283  0.00  0.00    +0.000 C 
ATOM     10  C   UNL     1      34.979 -18.487 -22.703  0.00  0.00    +0.000 C 
ATOM     11  C   UNL     1      35.085 -17.277 -20.614  0.00  0.00    +0.000 C 
BRANCH   7  13
ATOM     12  N   UNL     1      36.141 -22.070 -19.286  0.00  0.00    -0.242 NA
ATOM     13  C   UNL     1      35.515 -19.700 -20.630  0.00  0.00    +0.003 C 
ATOM     14  C   UNL     1      34.522 -20.638 -20.370  0.00  0.00    +0.021 C 
ATOM     15  C   UNL     1      36.820 -19.945 -20.217  0.00  0.00    +0.021 C 
ATOM     16  C   UNL     1      34.883 -21.797 -19.702  0.00  0.00    +0.099 C 
ATOM     17  C   UNL     1      37.079 -21.134 -19.555  0.00  0.00    +0.099 C 
ENDBRANCH   7  13
ENDBRANCH   3   6
BRANCH   2  20
ATOM     18  O   UNL     1      34.656 -10.452 -23.608  0.00  0.00    -0.270 OA
ATOM     19  N   UNL     1      32.395 -10.775 -23.358  0.00  0.00    -0.298 N 
ATOM     20  C   UNL     1      33.694 -11.223 -23.580  0.00  0.00    +0.252 C 
ATOM     21  H   UNL     1      31.661 -11.431 -23.344  0.00  0.00    +0.150 HD
BRANCH  19  22
ATOM     22  C   UNL     1      32.090  -9.377 -23.147  0.00  0.00    +0.105 C 
BRANCH  22  23
ATOM     23  C   UNL     1      32.030  -9.074 -21.662  0.00  0.00    -0.004 C 
ATOM     24  C   UNL     1      31.544 -10.039 -20.799  0.00  0.00    -0.003 C 
ATOM     25  C   UNL     1      32.462  -7.842 -21.208  0.00  0.00    -0.003 C 
ATOM     26  C   UNL     1      31.488  -9.762 -19.433  0.00  0.00    -0.000 C 
ATOM     27  C   UNL     1      32.406  -7.564 -19.843  0.00  0.00    -0.000 C 
ATOM     28  C   UNL     1      31.918  -8.524 -18.955  0.00  0.00    -0.000 C 
ENDBRANCH  22  23
BRANCH  22  29
ATOM     29  C   UNL     1      33.087  -8.493 -23.915  0.00  0.00    +0.133 C 
BRANCH  29  31
ATOM     30  O   UNL     1      31.229  -7.127 -24.709  0.00  0.00    -0.250 OA
ATOM     31  C   UNL     1      32.421  -7.404 -24.729  0.00  0.00    +0.316 C 
BRANCH  31  32
ATOM     32  O   UNL     1      33.314  -6.764 -25.530  0.00  0.00    -0.480 OA
ATOM     33  H   UNL     1      33.109  -5.919 -25.878  0.00  0.00    +0.295 HD
ENDBRANCH  31  32
ENDBRANCH  29  31
ENDBRANCH  22  29
ENDBRANCH  19  22
ENDBRANCH   2  20
TORSDOF 8
ENDMDL
MODEL 9
REMARK VINA RESULT:      -9.3      2.632      3.450
REMARK  Name = 448942
REMARK  8 active torsions:
REMARK  status: ('A' for Active; 'I' for Inactive)
REMARK    1  A    between atoms: C_2  and  C_20
REMARK    2  A    between atoms: C_3  and  C_6
REMARK    3  A    between atoms: C_7  and  C_13
REMARK    4  A    between atoms: N_19  and  C_22
REMARK    5  A    between atoms: C_22  and  C_23
REMARK    6  A    between atoms: C_22  and  C_29
REMARK    7  A    between atoms: C_29  and  C_31
REMARK    8  A    between atoms: C_31  and  O_32
REMARK                            x       y       z     vdW  Elec       q    Type
REMARK                         _______ _______ _______ _____ _____    ______ ____
ROOT
ATOM      1  S   UNL     1      37.485 -22.418 -16.230  0.00  0.00    -0.082 S 
ATOM      2  C   UNL     1      35.921 -23.027 -16.450  0.00  0.00    +0.083 C 
ATOM      3  C   UNL     1      36.072 -21.567 -18.200  0.00  0.00    +0.007 C 
ATOM      4  C   UNL     1      35.261 -22.517 -17.512  0.00  0.00    +0.012 C 
ATOM      5  C   UNL     1      37.306 -21.417 -17.608  0.00  0.00    +0.036 C 
ENDROOT
BRANCH   3   6
ATOM      6  C   UNL     1      35.720 -20.814 -19.373  0.00  0.00    +0.001 C 
ATOM      7  C   UNL     1      35.035 -19.355 -21.648  0.00  0.00    +0.000 C 
ATOM      8  C   UNL     1      36.679 -20.029 -20.010  0.00  0.00    +0.000 C 
ATOM      9  C   UNL     1      34.418 -20.872 -19.871  0.00  0.00    +0.000 C 
ATOM     10  C   UNL     1      36.337 -19.298 -21.148  0.00  0.00    +0.000 C 
ATOM     11  C   UNL     1      34.077 -20.140 -21.009  0.00  0.00    +0.000 C 
BRANCH   7  13
ATOM     12  N   UNL     1      33.993 -17.127 -25.103  0.00  0.00    -0.242 NA
ATOM     13  C   UNL     1      34.681 -18.596 -22.826  0.00  0.00    +0.003 C 
ATOM     14  C   UNL     1      35.067 -17.265 -22.942  0.00  0.00    +0.021 C 
ATOM     15  C   UNL     1      33.951 -19.193 -23.849  0.00  0.00    +0.021 C 
ATOM     16  C   UNL     1      34.702 -16.580 -24.090  0.00  0.00    +0.099 C 
ATOM     17  C   UNL     1      33.635 -18.422 -24.955  0.00  0.00    +0.099 C 
ENDBRANCH   7  13
ENDBRANCH   3   6
BRANCH   2  20
ATOM     18  O   UNL     1      35.500 -25.239 -15.716  0.00  0.00    -0.270 OA
ATOM     19  N   UNL     1      34.863 -23.523 -14.328  0.00  0.00    -0.298 N 
ATOM     20  C   UNL     1      35.434 -24.029 -15.493  0.00  0.00    +0.252 C 
ATOM     21  H   UNL     1      34.834 -22.548 -14.196  0.00  0.00    +0.150 HD
BRANCH  19  22
ATOM     22  C   UNL     1      34.311 -24.385 -13.305  0.00  0.00    +0.105 C 
BRANCH  22  23
ATOM     23  C   UNL     1      35.131 -24.277 -12.034  0.00  0.00    -0.004 C 
ATOM     24  C   UNL     1      36.250 -23.465 -12.023  0.00  0.00    -0.003 C 
ATOM     25  C   UNL     1      34.740 -24.994 -10.918  0.00  0.00    -0.003 C 
ATOM     26  C   UNL     1      37.004 -23.366 -10.854  0.00  0.00    -0.000 C 
ATOM     27  C   UNL     1      35.494 -24.895  -9.750  0.00  0.00    -0.000 C 
ATOM     28  C   UNL     1      36.627 -24.082  -9.718  0.00  0.00    -0.000 C 
ENDBRANCH  22  23
BRANCH  22  29
ATOM     29  C   UNL     1      32.817 -24.080 -13.103  0.00  0.00    +0.133 C 
BRANCH  29  31
ATOM     30  O   UNL     1      31.911 -24.065 -15.367  0.00  0.00    -0.250 OA
ATOM     31  C   UNL     1      32.157 -23.475 -14.324  0.00  0.00    +0.316 C 
BRANCH  31  32
ATOM     32  O   UNL     1      31.882 -22.156 -14.138  0.00  0.00    -0.480 OA
ATOM     33  H   UNL     1      31.141 -21.901 -13.627  0.00  0.00    +0.295 HD
ENDBRANCH  31  32
ENDBRANCH  29  31
ENDBRANCH  22  29
ENDBRANCH  19  22
ENDBRANCH   2  20
TORSDOF 8
ENDMDL
