MODEL 1
REMARK VINA RESULT:     -11.4      0.000      0.000
REMARK  Name = 11560787
REMARK  5 active torsions:
REMARK  status: ('A' for Active; 'I' for Inactive)
REMARK    1  A    between atoms: N_2  and  C_23
REMARK    2  A    between atoms: C_8  and  C_9
REMARK    3  A    between atoms: C_12  and  N_15
REMARK    4  A    between atoms: C_13  and  O_21
REMARK    5  A    between atoms: C_23  and  C_26
REMARK                            x       y       z     vdW  Elec       q    Type
REMARK                         _______ _______ _______ _____ _____    ______ ____
ROOT
ATOM      1  O   UNL     1      34.939 -16.748 -24.098  0.00  0.00    -0.270 OA
ATOM      2  N   UNL     1      35.083 -17.311 -21.853  0.00  0.00    -0.274 N 
ATOM      3  C   UNL     1      34.817 -16.993 -20.451  0.00  0.00    +0.094 C 
ATOM      4  C   UNL     1      34.897 -15.506 -20.167  0.00  0.00    +0.026 C 
ATOM      5  C   UNL     1      33.953 -14.774 -21.103  0.00  0.00    +0.033 C 
ATOM      6  C   UNL     1      34.281 -15.089 -22.531  0.00  0.00    +0.031 C 
ATOM      7  C   UNL     1      34.791 -16.449 -22.912  0.00  0.00    +0.245 C 
ATOM      8  C   UNL     1      34.160 -14.169 -23.501  0.00  0.00    +0.000 C 
ENDROOT
BRANCH   8   9
ATOM      9  C   UNL     1      33.680 -12.791 -23.319  0.00  0.00    +0.003 C 
ATOM     10  C   UNL     1      32.461 -12.570 -22.697  0.00  0.00    +0.038 C 
ATOM     11  C   UNL     1      34.456 -11.734 -23.772  0.00  0.00    +0.001 C 
ATOM     12  C   UNL     1      32.777 -10.191 -22.974  0.00  0.00    +0.084 C 
ATOM     13  C   UNL     1      32.007 -11.263 -22.523  0.00  0.00    +0.152 C 
ATOM     14  C   UNL     1      34.002 -10.427 -23.600  0.00  0.00    +0.018 C 
BRANCH  12  15
ATOM     15  N   UNL     1      32.340  -8.888 -22.812  0.00  0.00    -0.280 N 
ATOM     16  N   UNL     1      31.213  -7.001 -23.178  0.00  0.00    -0.255 NA
ATOM     17  C   UNL     1      32.751  -8.005 -21.848  0.00  0.00    +0.134 C 
ATOM     18  C   UNL     1      31.415  -8.235 -23.586  0.00  0.00    +0.220 C 
ATOM     19  C   UNL     1      32.042  -6.852 -22.095  0.00  0.00    +0.054 C 
ATOM     20  C   UNL     1      32.092  -5.578 -21.361  0.00  0.00    +0.049 C 
ENDBRANCH  12  15
BRANCH  13  21
ATOM     21  O   UNL     1      30.807 -11.058 -21.910  0.00  0.00    -0.470 OA
ATOM     22  C   UNL     1      30.786 -11.140 -20.487  0.00  0.00    +0.253 C 
ENDBRANCH  13  21
ENDBRANCH   8   9
BRANCH   2  23
ATOM     23  C   UNL     1      35.530 -18.671 -22.126  0.00  0.00    +0.098 C 
ATOM     24  C   UNL     1      37.060 -18.722 -22.085  0.00  0.00    +0.026 C 
BRANCH  23  26
ATOM     25  F   UNL     1      33.224 -22.357 -18.564  0.00  0.00    -0.204 F 
ATOM     26  C   UNL     1      34.908 -19.666 -21.165  0.00  0.00    -0.004 C 
ATOM     27  C   UNL     1      35.734 -20.436 -20.367  0.00  0.00    -0.000 C 
ATOM     28  C   UNL     1      33.531 -19.777 -21.111  0.00  0.00    -0.000 C 
ATOM     29  C   UNL     1      35.161 -21.351 -19.483  0.00  0.00    +0.029 C 
ATOM     30  C   UNL     1      32.959 -20.692 -20.226  0.00  0.00    +0.029 C 
ATOM     31  C   UNL     1      33.774 -21.478 -19.413  0.00  0.00    +0.140 C 
ENDBRANCH  23  26
ENDBRANCH   2  23
TORSDOF 5
ENDMDL
MODEL 2
REMARK VINA RESULT:     -11.2      1.422      2.109
REMARK  Name = 11560787
REMARK  5 active torsions:
REMARK  status: ('A' for Active; 'I' for Inactive)
REMARK    1  A    between atoms: N_2  and  C_23
REMARK    2  A    between atoms: C_8  and  C_9
REMARK    3  A    between atoms: C_12  and  N_15
REMARK    4  A    between atoms: C_13  and  O_21
REMARK    5  A    between atoms: C_23  and  C_26
REMARK                            x       y       z     vdW  Elec       q    Type
REMARK                         _______ _______ _______ _____ _____    ______ ____
ROOT
ATOM      1  O   UNL     1      35.505 -17.187 -20.336  0.00  0.00    -0.270 OA
ATOM      2  N   UNL     1      35.378 -18.263 -22.386  0.00  0.00    -0.274 N 
ATOM      3  C   UNL     1      35.116 -18.216 -23.824  0.00  0.00    +0.094 C 
ATOM      4  C   UNL     1      34.026 -17.225 -24.184  0.00  0.00    +0.026 C 
ATOM      5  C   UNL     1      34.396 -15.862 -23.630  0.00  0.00    +0.033 C 
ATOM      6  C   UNL     1      34.615 -15.938 -22.149  0.00  0.00    +0.031 C 
ATOM      7  C   UNL     1      35.208 -17.172 -21.531  0.00  0.00    +0.245 C 
ATOM      8  C   UNL     1      34.266 -14.932 -21.333  0.00  0.00    +0.000 C 
ENDROOT
BRANCH   8   9
ATOM      9  C   UNL     1      33.674 -13.654 -21.754  0.00  0.00    +0.003 C 
ATOM     10  C   UNL     1      32.685 -13.071 -20.976  0.00  0.00    +0.038 C 
ATOM     11  C   UNL     1      34.116 -13.051 -22.923  0.00  0.00    +0.001 C 
ATOM     12  C   UNL     1      32.560 -11.241 -22.549  0.00  0.00    +0.084 C 
ATOM     13  C   UNL     1      32.124 -11.858 -21.376  0.00  0.00    +0.152 C 
ATOM     14  C   UNL     1      33.556 -11.838 -23.322  0.00  0.00    +0.018 C 
BRANCH  12  15
ATOM     15  N   UNL     1      32.014 -10.038 -22.961  0.00  0.00    -0.280 N 
ATOM     16  N   UNL     1      30.514  -8.419 -23.261  0.00  0.00    -0.255 NA
ATOM     17  C   UNL     1      32.653  -9.050 -23.663  0.00  0.00    +0.134 C 
ATOM     18  C   UNL     1      30.730  -9.608 -22.745  0.00  0.00    +0.220 C 
ATOM     19  C   UNL     1      31.709  -8.065 -23.835  0.00  0.00    +0.054 C 
ATOM     20  C   UNL     1      31.856  -6.773 -24.523  0.00  0.00    +0.049 C 
ENDBRANCH  12  15
BRANCH  13  21
ATOM     21  O   UNL     1      31.153 -11.294 -20.603  0.00  0.00    -0.470 OA
ATOM     22  C   UNL     1      31.562 -10.728 -19.361  0.00  0.00    +0.253 C 
ENDBRANCH  13  21
ENDBRANCH   8   9
BRANCH   2  23
ATOM     23  C   UNL     1      35.997 -19.485 -21.889  0.00  0.00    +0.098 C 
ATOM     24  C   UNL     1      37.346 -19.149 -21.248  0.00  0.00    +0.026 C 
BRANCH  23  26
ATOM     25  F   UNL     1      32.614 -22.212 -18.325  0.00  0.00    -0.204 F 
ATOM     26  C   UNL     1      35.084 -20.221 -20.928  0.00  0.00    -0.004 C 
ATOM     27  C   UNL     1      33.719 -20.016 -21.007  0.00  0.00    -0.000 C 
ATOM     28  C   UNL     1      35.640 -21.078 -19.996  0.00  0.00    -0.000 C 
ATOM     29  C   UNL     1      32.879 -20.693 -20.122  0.00  0.00    +0.029 C 
ATOM     30  C   UNL     1      34.800 -21.755 -19.111  0.00  0.00    +0.029 C 
ATOM     31  C   UNL     1      33.421 -21.562 -19.174  0.00  0.00    +0.140 C 
ENDBRANCH  23  26
ENDBRANCH   2  23
TORSDOF 5
ENDMDL
MODEL 3
REMARK VINA RESULT:     -10.9      5.152     11.826
REMARK  Name = 11560787
REMARK  5 active torsions:
REMARK  status: ('A' for Active; 'I' for Inactive)
REMARK    1  A    between atoms: N_2  and  C_23
REMARK    2  A    between atoms: C_8  and  C_9
REMARK    3  A    between atoms: C_12  and  N_15
REMARK    4  A    between atoms: C_13  and  O_21
REMARK    5  A    between atoms: C_23  and  C_26
REMARK                            x       y       z     vdW  Elec       q    Type
REMARK                         _______ _______ _______ _____ _____    ______ ____
ROOT
ATOM      1  O   UNL     1      33.512 -20.007 -21.920  0.00  0.00    -0.270 OA
ATOM      2  N   UNL     1      35.601 -19.045 -22.223  0.00  0.00    -0.274 N 
ATOM      3  C   UNL     1      37.014 -18.952 -21.859  0.00  0.00    +0.094 C 
ATOM      4  C   UNL     1      37.250 -19.198 -20.382  0.00  0.00    +0.026 C 
ATOM      5  C   UNL     1      36.655 -20.542 -20.004  0.00  0.00    +0.033 C 
ATOM      6  C   UNL     1      35.198 -20.587 -20.352  0.00  0.00    +0.031 C 
ATOM      7  C   UNL     1      34.683 -19.866 -21.564  0.00  0.00    +0.245 C 
ATOM      8  C   UNL     1      34.311 -21.240 -19.584  0.00  0.00    +0.000 C 
ENDROOT
BRANCH   8   9
ATOM      9  C   UNL     1      34.628 -21.998 -18.365  0.00  0.00    +0.003 C 
ATOM     10  C   UNL     1      33.645 -22.774 -17.770  0.00  0.00    +0.038 C 
ATOM     11  C   UNL     1      35.907 -21.926 -17.831  0.00  0.00    +0.001 C 
ATOM     12  C   UNL     1      35.228 -23.430 -16.067  0.00  0.00    +0.084 C 
ATOM     13  C   UNL     1      33.947 -23.494 -16.614  0.00  0.00    +0.152 C 
ATOM     14  C   UNL     1      36.208 -22.646 -16.676  0.00  0.00    +0.018 C 
BRANCH  12  15
ATOM     15  N   UNL     1      35.544 -24.137 -14.919  0.00  0.00    -0.280 N 
ATOM     16  N   UNL     1      36.334 -25.764 -13.619  0.00  0.00    -0.255 NA
ATOM     17  C   UNL     1      35.282 -23.757 -13.629  0.00  0.00    +0.134 C 
ATOM     18  C   UNL     1      36.178 -25.351 -14.857  0.00  0.00    +0.220 C 
ATOM     19  C   UNL     1      35.778 -24.774 -12.848  0.00  0.00    +0.054 C 
ATOM     20  C   UNL     1      35.766 -24.885 -11.382  0.00  0.00    +0.049 C 
ENDBRANCH  12  15
BRANCH  13  21
ATOM     21  O   UNL     1      32.972 -24.254 -16.038  0.00  0.00    -0.470 OA
ATOM     22  C   UNL     1      31.782 -23.581 -15.634  0.00  0.00    +0.253 C 
ENDBRANCH  13  21
ENDBRANCH   8   9
BRANCH   2  23
ATOM     23  C   UNL     1      35.207 -18.348 -23.441  0.00  0.00    +0.098 C 
ATOM     24  C   UNL     1      34.080 -19.123 -24.130  0.00  0.00    +0.026 C 
BRANCH  23  26
ATOM     25  F   UNL     1      33.742 -13.024 -22.393  0.00  0.00    -0.204 F 
ATOM     26  C   UNL     1      34.812 -16.912 -23.158  0.00  0.00    -0.004 C 
ATOM     27  C   UNL     1      34.297 -16.142 -24.185  0.00  0.00    -0.000 C 
ATOM     28  C   UNL     1      34.977 -16.408 -21.882  0.00  0.00    -0.000 C 
ATOM     29  C   UNL     1      33.933 -14.821 -23.925  0.00  0.00    +0.029 C 
ATOM     30  C   UNL     1      34.613 -15.087 -21.622  0.00  0.00    +0.029 C 
ATOM     31  C   UNL     1      34.091 -14.293 -22.643  0.00  0.00    +0.140 C 
ENDBRANCH  23  26
ENDBRANCH   2  23
TORSDOF 5
ENDMDL
MODEL 4
REMARK VINA RESULT:     -10.5      5.083     11.697
REMARK  Name = 11560787
REMARK  5 active torsions:
REMARK  status: ('A' for Active; 'I' for Inactive)
REMARK    1  A    between atoms: N_2  and  C_23
REMARK    2  A    between atoms: C_8  and  C_9
REMARK    3  A    between atoms: C_12  and  N_15
REMARK    4  A    between atoms: C_13  and  O_21
REMARK    5  A    between atoms: C_23  and  C_26
REMARK                            x       y       z     vdW  Elec       q    Type
REMARK                         _______ _______ _______ _____ _____    ______ ____
ROOT
ATOM      1  O   UNL     1      33.301 -19.894 -22.224  0.00  0.00    -0.270 OA
ATOM      2  N   UNL     1      35.402 -18.940 -22.455  0.00  0.00    -0.274 N 
ATOM      3  C   UNL     1      36.804 -18.857 -22.048  0.00  0.00    +0.094 C 
ATOM      4  C   UNL     1      36.994 -19.117 -20.566  0.00  0.00    +0.026 C 
ATOM      5  C   UNL     1      36.382 -20.461 -20.218  0.00  0.00    +0.033 C 
ATOM      6  C   UNL     1      34.936 -20.496 -20.611  0.00  0.00    +0.031 C 
ATOM      7  C   UNL     1      34.461 -19.762 -21.831  0.00  0.00    +0.245 C 
ATOM      8  C   UNL     1      34.023 -21.151 -19.876  0.00  0.00    +0.000 C 
ENDROOT
BRANCH   8   9
ATOM      9  C   UNL     1      34.299 -21.921 -18.654  0.00  0.00    +0.003 C 
ATOM     10  C   UNL     1      35.582 -21.929 -18.129  0.00  0.00    +0.038 C 
ATOM     11  C   UNL     1      33.271 -22.627 -18.047  0.00  0.00    +0.001 C 
ATOM     12  C   UNL     1      34.819 -23.373 -16.349  0.00  0.00    +0.084 C 
ATOM     13  C   UNL     1      35.844 -22.659 -16.969  0.00  0.00    +0.152 C 
ATOM     14  C   UNL     1      33.532 -23.357 -16.888  0.00  0.00    +0.018 C 
BRANCH  12  15
ATOM     15  N   UNL     1      35.062 -24.104 -15.199  0.00  0.00    -0.280 N 
ATOM     16  N   UNL     1      35.639 -25.814 -13.893  0.00  0.00    -0.255 NA
ATOM     17  C   UNL     1      34.902 -23.671 -13.908  0.00  0.00    +0.134 C 
ATOM     18  C   UNL     1      35.507 -25.399 -15.134  0.00  0.00    +0.220 C 
ATOM     19  C   UNL     1      35.263 -24.741 -13.125  0.00  0.00    +0.054 C 
ATOM     20  C   UNL     1      35.281 -24.830 -11.656  0.00  0.00    +0.049 C 
ENDBRANCH  12  15
BRANCH  13  21
ATOM     21  O   UNL     1      37.109 -22.659 -16.462  0.00  0.00    -0.470 OA
ATOM     22  C   UNL     1      37.684 -21.390 -16.159  0.00  0.00    +0.253 C 
ENDBRANCH  13  21
ENDBRANCH   8   9
BRANCH   2  23
ATOM     23  C   UNL     1      35.049 -18.231 -23.679  0.00  0.00    +0.098 C 
ATOM     24  C   UNL     1      33.934 -18.989 -24.403  0.00  0.00    +0.026 C 
BRANCH  23  26
ATOM     25  F   UNL     1      33.613 -12.899 -22.635  0.00  0.00    -0.204 F 
ATOM     26  C   UNL     1      34.662 -16.793 -23.397  0.00  0.00    -0.004 C 
ATOM     27  C   UNL     1      34.916 -16.260 -22.147  0.00  0.00    -0.000 C 
ATOM     28  C   UNL     1      34.064 -16.049 -24.398  0.00  0.00    -0.000 C 
ATOM     29  C   UNL     1      34.560 -14.937 -21.888  0.00  0.00    +0.029 C 
ATOM     30  C   UNL     1      33.708 -14.726 -24.139  0.00  0.00    +0.029 C 
ATOM     31  C   UNL     1      33.955 -14.170 -22.884  0.00  0.00    +0.140 C 
ENDBRANCH  23  26
ENDBRANCH   2  23
TORSDOF 5
ENDMDL
MODEL 5
REMARK VINA RESULT:     -10.4      3.596     10.349
REMARK  Name = 11560787
REMARK  5 active torsions:
REMARK  status: ('A' for Active; 'I' for Inactive)
REMARK    1  A    between atoms: N_2  and  C_23
REMARK    2  A    between atoms: C_8  and  C_9
REMARK    3  A    between atoms: C_12  and  N_15
REMARK    4  A    between atoms: C_13  and  O_21
REMARK    5  A    between atoms: C_23  and  C_26
REMARK                            x       y       z     vdW  Elec       q    Type
REMARK                         _______ _______ _______ _____ _____    ______ ____
ROOT
ATOM      1  O   UNL     1      33.139 -11.230 -24.431  0.00  0.00    -0.270 OA
ATOM      2  N   UNL     1      31.965 -10.496 -22.571  0.00  0.00    -0.274 N 
ATOM      3  C   UNL     1      31.603 -10.652 -21.163  0.00  0.00    +0.094 C 
ATOM      4  C   UNL     1      31.524 -12.107 -20.741  0.00  0.00    +0.026 C 
ATOM      5  C   UNL     1      32.841 -12.787 -21.066  0.00  0.00    +0.033 C 
ATOM      6  C   UNL     1      33.160 -12.643 -22.523  0.00  0.00    +0.031 C 
ATOM      7  C   UNL     1      32.766 -11.401 -23.270  0.00  0.00    +0.245 C 
ATOM      8  C   UNL     1      33.773 -13.621 -23.209  0.00  0.00    +0.000 C 
ENDROOT
BRANCH   8   9
ATOM      9  C   UNL     1      34.229 -14.903 -22.651  0.00  0.00    +0.003 C 
ATOM     10  C   UNL     1      34.433 -15.981 -23.498  0.00  0.00    +0.038 C 
ATOM     11  C   UNL     1      34.450 -15.010 -21.285  0.00  0.00    +0.001 C 
ATOM     12  C   UNL     1      35.092 -17.318 -21.597  0.00  0.00    +0.084 C 
ATOM     13  C   UNL     1      34.867 -17.197 -22.967  0.00  0.00    +0.152 C 
ATOM     14  C   UNL     1      34.883 -16.225 -20.755  0.00  0.00    +0.018 C 
BRANCH  12  15
ATOM     15  N   UNL     1      35.521 -18.517 -21.054  0.00  0.00    -0.280 N 
ATOM     16  N   UNL     1      36.899 -20.070 -20.245  0.00  0.00    -0.255 NA
ATOM     17  C   UNL     1      34.735 -19.589 -20.719  0.00  0.00    +0.134 C 
ATOM     18  C   UNL     1      36.814 -18.858 -20.748  0.00  0.00    +0.220 C 
ATOM     19  C   UNL     1      35.607 -20.530 -20.224  0.00  0.00    +0.054 C 
ATOM     20  C   UNL     1      35.300 -21.877 -19.716  0.00  0.00    +0.049 C 
ENDBRANCH  12  15
BRANCH  13  21
ATOM     21  O   UNL     1      35.064 -18.250 -23.810  0.00  0.00    -0.470 OA
ATOM     22  C   UNL     1      33.904 -18.839 -24.391  0.00  0.00    +0.253 C 
ENDBRANCH  13  21
ENDBRANCH   8   9
BRANCH   2  23
ATOM     23  C   UNL     1      31.579  -9.236 -23.194  0.00  0.00    +0.098 C 
ATOM     24  C   UNL     1      30.589  -8.501 -22.287  0.00  0.00    +0.026 C 
BRANCH  23  26
ATOM     25  F   UNL     1      36.064  -6.066 -24.388  0.00  0.00    -0.204 F 
ATOM     26  C   UNL     1      32.789  -8.381 -23.516  0.00  0.00    -0.004 C 
ATOM     27  C   UNL     1      32.877  -7.781 -24.759  0.00  0.00    -0.000 C 
ATOM     28  C   UNL     1      33.774  -8.221 -22.559  0.00  0.00    -0.000 C 
ATOM     29  C   UNL     1      33.990  -6.994 -25.055  0.00  0.00    +0.029 C 
ATOM     30  C   UNL     1      34.887  -7.434 -22.855  0.00  0.00    +0.029 C 
ATOM     31  C   UNL     1      34.995  -6.821 -24.103  0.00  0.00    +0.140 C 
ENDBRANCH  23  26
ENDBRANCH   2  23
TORSDOF 5
ENDMDL
MODEL 6
REMARK VINA RESULT:      -9.7      4.652     11.404
REMARK  Name = 11560787
REMARK  5 active torsions:
REMARK  status: ('A' for Active; 'I' for Inactive)
REMARK    1  A    between atoms: N_2  and  C_23
REMARK    2  A    between atoms: C_8  and  C_9
REMARK    3  A    between atoms: C_12  and  N_15
REMARK    4  A    between atoms: C_13  and  O_21
REMARK    5  A    between atoms: C_23  and  C_26
REMARK                            x       y       z     vdW  Elec       q    Type
REMARK                         _______ _______ _______ _____ _____    ______ ____
ROOT
ATOM      1  O   UNL     1      30.634  -7.963 -22.831  0.00  0.00    -0.270 OA
ATOM      2  N   UNL     1      32.597  -6.737 -22.979  0.00  0.00    -0.274 N 
ATOM      3  C   UNL     1      34.041  -6.686 -23.206  0.00  0.00    +0.094 C 
ATOM      4  C   UNL     1      34.754  -7.922 -22.694  0.00  0.00    +0.026 C 
ATOM      5  C   UNL     1      34.124  -9.151 -23.322  0.00  0.00    +0.033 C 
ATOM      6  C   UNL     1      32.654  -9.194 -23.034  0.00  0.00    +0.031 C 
ATOM      7  C   UNL     1      31.860  -7.923 -22.942  0.00  0.00    +0.245 C 
ATOM      8  C   UNL     1      32.012 -10.353 -22.820  0.00  0.00    +0.000 C 
ENDROOT
BRANCH   8   9
ATOM      9  C   UNL     1      32.621 -11.691 -22.868  0.00  0.00    +0.003 C 
ATOM     10  C   UNL     1      32.687 -12.452 -21.711  0.00  0.00    +0.038 C 
ATOM     11  C   UNL     1      33.118 -12.170 -24.072  0.00  0.00    +0.001 C 
ATOM     12  C   UNL     1      33.768 -14.215 -22.960  0.00  0.00    +0.084 C 
ATOM     13  C   UNL     1      33.264 -13.721 -21.757  0.00  0.00    +0.152 C 
ATOM     14  C   UNL     1      33.695 -13.439 -24.118  0.00  0.00    +0.018 C 
BRANCH  12  15
ATOM     15  N   UNL     1      34.345 -15.471 -23.023  0.00  0.00    -0.280 N 
ATOM     16  N   UNL     1      34.990 -17.434 -23.856  0.00  0.00    -0.255 NA
ATOM     17  C   UNL     1      35.004 -16.118 -22.011  0.00  0.00    +0.134 C 
ATOM     18  C   UNL     1      34.365 -16.306 -24.111  0.00  0.00    +0.220 C 
ATOM     19  C   UNL     1      35.391 -17.323 -22.549  0.00  0.00    +0.054 C 
ATOM     20  C   UNL     1      36.136 -18.413 -21.899  0.00  0.00    +0.049 C 
ENDBRANCH  12  15
BRANCH  13  21
ATOM     21  O   UNL     1      33.323 -14.460 -20.613  0.00  0.00    -0.470 OA
ATOM     22  C   UNL     1      32.154 -14.482 -19.797  0.00  0.00    +0.253 C 
ENDBRANCH  13  21
ENDBRANCH   8   9
BRANCH   2  23
ATOM     23  C   UNL     1      31.909  -5.453 -22.951  0.00  0.00    +0.098 C 
ATOM     24  C   UNL     1      32.222  -4.735 -21.636  0.00  0.00    +0.026 C 
BRANCH  23  26
ATOM     25  F   UNL     1      33.237  -2.304 -27.413  0.00  0.00    -0.204 F 
ATOM     26  C   UNL     1      32.267  -4.603 -24.155  0.00  0.00    -0.004 C 
ATOM     27  C   UNL     1      32.357  -3.232 -24.007  0.00  0.00    -0.000 C 
ATOM     28  C   UNL     1      32.495  -5.222 -25.371  0.00  0.00    -0.000 C 
ATOM     29  C   UNL     1      32.687  -2.450 -25.114  0.00  0.00    +0.029 C 
ATOM     30  C   UNL     1      32.825  -4.440 -26.478  0.00  0.00    +0.029 C 
ATOM     31  C   UNL     1      32.921  -3.055 -26.350  0.00  0.00    +0.140 C 
ENDBRANCH  23  26
ENDBRANCH   2  23
TORSDOF 5
ENDMDL
MODEL 7
REMARK VINA RESULT:      -9.3      4.595     11.456
REMARK  Name = 11560787
REMARK  5 active torsions:
REMARK  status: ('A' for Active; 'I' for Inactive)
REMARK    1  A    between atoms: N_2  and  C_23
REMARK    2  A    between atoms: C_8  and  C_9
REMARK    3  A    between atoms: C_12  and  N_15
REMARK    4  A    between atoms: C_13  and  O_21
REMARK    5  A    between atoms: C_23  and  C_26
REMARK                            x       y       z     vdW  Elec       q    Type
REMARK                         _______ _______ _______ _____ _____    ______ ____
ROOT
ATOM      1  O   UNL     1      30.541  -8.028 -22.793  0.00  0.00    -0.270 OA
ATOM      2  N   UNL     1      32.494  -6.788 -22.953  0.00  0.00    -0.274 N 
ATOM      3  C   UNL     1      33.939  -6.729 -23.166  0.00  0.00    +0.094 C 
ATOM      4  C   UNL     1      34.659  -7.943 -22.614  0.00  0.00    +0.026 C 
ATOM      5  C   UNL     1      34.048  -9.195 -23.216  0.00  0.00    +0.033 C 
ATOM      6  C   UNL     1      32.575  -9.244 -22.942  0.00  0.00    +0.031 C 
ATOM      7  C   UNL     1      31.768  -7.979 -22.892  0.00  0.00    +0.245 C 
ATOM      8  C   UNL     1      31.942 -10.404 -22.704  0.00  0.00    +0.000 C 
ENDROOT
BRANCH   8   9
ATOM      9  C   UNL     1      32.564 -11.736 -22.710  0.00  0.00    +0.003 C 
ATOM     10  C   UNL     1      33.063 -12.250 -23.897  0.00  0.00    +0.038 C 
ATOM     11  C   UNL     1      32.642 -12.457 -21.527  0.00  0.00    +0.001 C 
ATOM     12  C   UNL     1      33.739 -14.249 -22.720  0.00  0.00    +0.084 C 
ATOM     13  C   UNL     1      33.654 -13.514 -23.902  0.00  0.00    +0.152 C 
ATOM     14  C   UNL     1      33.232 -13.720 -21.532  0.00  0.00    +0.018 C 
BRANCH  12  15
ATOM     15  N   UNL     1      34.320 -15.505 -22.708  0.00  0.00    -0.280 N 
ATOM     16  N   UNL     1      35.016 -17.492 -23.435  0.00  0.00    -0.255 NA
ATOM     17  C   UNL     1      34.920 -16.115 -21.637  0.00  0.00    +0.134 C 
ATOM     18  C   UNL     1      34.406 -16.375 -23.764  0.00  0.00    +0.220 C 
ATOM     19  C   UNL     1      35.340 -17.336 -22.111  0.00  0.00    +0.054 C 
ATOM     20  C   UNL     1      36.046 -18.401 -21.382  0.00  0.00    +0.049 C 
ENDBRANCH  12  15
BRANCH  13  21
ATOM     21  O   UNL     1      34.142 -14.008 -25.075  0.00  0.00    -0.470 OA
ATOM     22  C   UNL     1      33.317 -13.868 -26.229  0.00  0.00    +0.253 C 
ENDBRANCH  13  21
ENDBRANCH   8   9
BRANCH   2  23
ATOM     23  C   UNL     1      31.793  -5.510 -22.967  0.00  0.00    +0.098 C 
ATOM     24  C   UNL     1      32.033  -4.782 -21.641  0.00  0.00    +0.026 C 
BRANCH  23  26
ATOM     25  F   UNL     1      33.312  -2.371 -27.375  0.00  0.00    -0.204 F 
ATOM     26  C   UNL     1      32.203  -4.663 -24.156  0.00  0.00    -0.004 C 
ATOM     27  C   UNL     1      32.442  -5.280 -25.370  0.00  0.00    -0.000 C 
ATOM     28  C   UNL     1      32.327  -3.296 -23.996  0.00  0.00    -0.000 C 
ATOM     29  C   UNL     1      32.819  -4.501 -26.464  0.00  0.00    +0.029 C 
ATOM     30  C   UNL     1      32.704  -2.516 -25.091  0.00  0.00    +0.029 C 
ATOM     31  C   UNL     1      32.950  -3.119 -26.324  0.00  0.00    +0.140 C 
ENDBRANCH  23  26
ENDBRANCH   2  23
TORSDOF 5
ENDMDL
MODEL 8
REMARK VINA RESULT:      -8.8      4.936     11.557
REMARK  Name = 11560787
REMARK  5 active torsions:
REMARK  status: ('A' for Active; 'I' for Inactive)
REMARK    1  A    between atoms: N_2  and  C_23
REMARK    2  A    between atoms: C_8  and  C_9
REMARK    3  A    between atoms: C_12  and  N_15
REMARK    4  A    between atoms: C_13  and  O_21
REMARK    5  A    between atoms: C_23  and  C_26
REMARK                            x       y       z     vdW  Elec       q    Type
REMARK                         _______ _______ _______ _____ _____    ______ ____
ROOT
ATOM      1  O   UNL     1      30.927  -7.777 -24.365  0.00  0.00    -0.270 OA
ATOM      2  N   UNL     1      32.843  -6.515 -24.025  0.00  0.00    -0.274 N 
ATOM      3  C   UNL     1      34.271  -6.444 -23.721  0.00  0.00    +0.094 C 
ATOM      4  C   UNL     1      34.716  -7.528 -22.759  0.00  0.00    +0.026 C 
ATOM      5  C   UNL     1      34.324  -8.880 -23.325  0.00  0.00    +0.033 C 
ATOM      6  C   UNL     1      32.849  -8.933 -23.584  0.00  0.00    +0.031 C 
ATOM      7  C   UNL     1      32.111  -7.704 -24.030  0.00  0.00    +0.245 C 
ATOM      8  C   UNL     1      32.142 -10.059 -23.399  0.00  0.00    +0.000 C 
ENDROOT
BRANCH   8   9
ATOM      9  C   UNL     1      32.690 -11.354 -22.967  0.00  0.00    +0.003 C 
ATOM     10  C   UNL     1      33.267 -12.196 -23.904  0.00  0.00    +0.038 C 
ATOM     11  C   UNL     1      32.621 -11.709 -21.628  0.00  0.00    +0.001 C 
ATOM     12  C   UNL     1      33.725 -13.794 -22.151  0.00  0.00    +0.084 C 
ATOM     13  C   UNL     1      33.788 -13.424 -23.494  0.00  0.00    +0.152 C 
ATOM     14  C   UNL     1      33.141 -12.936 -21.217  0.00  0.00    +0.018 C 
BRANCH  12  15
ATOM     15  N   UNL     1      34.235 -15.009 -21.727  0.00  0.00    -0.280 N 
ATOM     16  N   UNL     1      34.948 -16.609 -20.351  0.00  0.00    -0.255 NA
ATOM     17  C   UNL     1      34.618 -16.055 -22.524  0.00  0.00    +0.134 C 
ATOM     18  C   UNL     1      34.453 -15.394 -20.429  0.00  0.00    +0.220 C 
ATOM     19  C   UNL     1      35.052 -17.027 -21.653  0.00  0.00    +0.054 C 
ATOM     20  C   UNL     1      35.576 -18.365 -21.970  0.00  0.00    +0.049 C 
ENDBRANCH  12  15
BRANCH  13  21
ATOM     21  O   UNL     1      34.354 -14.244 -24.424  0.00  0.00    -0.470 OA
ATOM     22  C   UNL     1      33.553 -14.593 -25.551  0.00  0.00    +0.253 C 
ENDBRANCH  13  21
ENDBRANCH   8   9
BRANCH   2  23
ATOM     23  C   UNL     1      32.227  -5.281 -24.494  0.00  0.00    +0.098 C 
ATOM     24  C   UNL     1      31.993  -4.343 -23.306  0.00  0.00    +0.026 C 
BRANCH  23  26
ATOM     25  F   UNL     1      35.306  -2.833 -28.509  0.00  0.00    -0.204 F 
ATOM     26  C   UNL     1      33.058  -4.621 -25.577  0.00  0.00    -0.004 C 
ATOM     27  C   UNL     1      33.304  -3.262 -25.501  0.00  0.00    -0.000 C 
ATOM     28  C   UNL     1      33.547  -5.393 -26.614  0.00  0.00    -0.000 C 
ATOM     29  C   UNL     1      34.069  -2.655 -26.498  0.00  0.00    +0.029 C 
ATOM     30  C   UNL     1      34.312  -4.786 -27.610  0.00  0.00    +0.029 C 
ATOM     31  C   UNL     1      34.572  -3.417 -27.552  0.00  0.00    +0.140 C 
ENDBRANCH  23  26
ENDBRANCH   2  23
TORSDOF 5
ENDMDL
MODEL 9
REMARK VINA RESULT:      -8.7      4.084     10.696
REMARK  Name = 11560787
REMARK  5 active torsions:
REMARK  status: ('A' for Active; 'I' for Inactive)
REMARK    1  A    between atoms: N_2  and  C_23
REMARK    2  A    between atoms: C_8  and  C_9
REMARK    3  A    between atoms: C_12  and  N_15
REMARK    4  A    between atoms: C_13  and  O_21
REMARK    5  A    between atoms: C_23  and  C_26
REMARK                            x       y       z     vdW  Elec       q    Type
REMARK                         _______ _______ _______ _____ _____    ______ ____
ROOT
ATOM      1  O   UNL     1      31.936  -8.783 -24.554  0.00  0.00    -0.270 OA
ATOM      2  N   UNL     1      31.650  -8.103 -22.355  0.00  0.00    -0.274 N 
ATOM      3  C   UNL     1      31.844  -8.336 -20.925  0.00  0.00    +0.094 C 
ATOM      4  C   UNL     1      31.787  -9.807 -20.563  0.00  0.00    +0.026 C 
ATOM      5  C   UNL     1      32.801 -10.561 -21.403  0.00  0.00    +0.033 C 
ATOM      6  C   UNL     1      32.547 -10.334 -22.862  0.00  0.00    +0.031 C 
ATOM      7  C   UNL     1      32.024  -9.012 -23.346  0.00  0.00    +0.245 C 
ATOM      8  C   UNL     1      32.746 -11.302 -23.771  0.00  0.00    +0.000 C 
ENDROOT
BRANCH   8   9
ATOM      9  C   UNL     1      33.250 -12.654 -23.485  0.00  0.00    +0.003 C 
ATOM     10  C   UNL     1      33.248 -13.120 -22.180  0.00  0.00    +0.038 C 
ATOM     11  C   UNL     1      33.718 -13.440 -24.528  0.00  0.00    +0.001 C 
ATOM     12  C   UNL     1      34.200 -15.204 -22.948  0.00  0.00    +0.084 C 
ATOM     13  C   UNL     1      33.726 -14.403 -21.909  0.00  0.00    +0.152 C 
ATOM     14  C   UNL     1      34.196 -14.722 -24.258  0.00  0.00    +0.018 C 
BRANCH  12  15
ATOM     15  N   UNL     1      34.679 -16.478 -22.698  0.00  0.00    -0.280 N 
ATOM     16  N   UNL     1      35.183 -18.622 -23.028  0.00  0.00    -0.255 NA
ATOM     17  C   UNL     1      35.270 -16.914 -21.541  0.00  0.00    +0.134 C 
ATOM     18  C   UNL     1      34.651 -17.544 -23.560  0.00  0.00    +0.220 C 
ATOM     19  C   UNL     1      35.572 -18.236 -21.770  0.00  0.00    +0.054 C 
ATOM     20  C   UNL     1      36.220 -19.193 -20.860  0.00  0.00    +0.049 C 
ENDBRANCH  12  15
BRANCH  13  21
ATOM     21  O   UNL     1      33.719 -14.851 -20.622  0.00  0.00    -0.470 OA
ATOM     22  C   UNL     1      32.526 -14.641 -19.871  0.00  0.00    +0.253 C 
ENDBRANCH  13  21
ENDBRANCH   8   9
BRANCH   2  23
ATOM     23  C   UNL     1      31.184  -6.773 -22.728  0.00  0.00    +0.098 C 
ATOM     24  C   UNL     1      30.892  -5.961 -21.463  0.00  0.00    +0.026 C 
BRANCH  23  26
ATOM     25  F   UNL     1      34.861  -4.162 -26.082  0.00  0.00    -0.204 F 
ATOM     26  C   UNL     1      32.176  -6.069 -23.633  0.00  0.00    -0.004 C 
ATOM     27  C   UNL     1      31.702  -5.279 -24.665  0.00  0.00    -0.000 C 
ATOM     28  C   UNL     1      33.529  -6.233 -23.404  0.00  0.00    -0.000 C 
ATOM     29  C   UNL     1      32.615  -4.631 -25.497  0.00  0.00    +0.029 C 
ATOM     30  C   UNL     1      34.442  -5.585 -24.236  0.00  0.00    +0.029 C 
ATOM     31  C   UNL     1      33.985  -4.784 -25.282  0.00  0.00    +0.140 C 
ENDBRANCH  23  26
ENDBRANCH   2  23
TORSDOF 5
ENDMDL
