MODEL 1
REMARK VINA RESULT:     -11.5      0.000      0.000
REMARK  Name = 4369285
REMARK  9 active torsions:
REMARK  status: ('A' for Active; 'I' for Inactive)
REMARK    1  A    between atoms: N_1  and  C_18
REMARK    2  A    between atoms: N_2  and  C_8
REMARK    3  A    between atoms: C_11  and  C_17
REMARK    4  A    between atoms: C_18  and  C_19
REMARK    5  A    between atoms: C_19  and  C_21
REMARK    6  A    between atoms: C_21  and  C_22
REMARK    7  A    between atoms: C_25  and  N_30
REMARK    8  A    between atoms: C_26  and  O_31
REMARK    9  A    between atoms: C_27  and  O_33
REMARK                            x       y       z     vdW  Elec       q    Type
REMARK                         _______ _______ _______ _____ _____    ______ ____
ROOT
ATOM      1  N   UNL     1      35.357 -22.414 -18.739  0.00  0.00    +0.390 N 
ATOM      2  N   UNL     1      33.527 -22.996 -16.624  0.00  0.00    -0.312 N 
ATOM      3  C   UNL     1      33.941 -22.048 -18.860  0.00  0.00    -0.055 C 
ATOM      4  C   UNL     1      35.783 -22.305 -17.338  0.00  0.00    -0.055 C 
ATOM      5  C   UNL     1      33.060 -22.971 -18.014  0.00  0.00    +0.068 C 
ATOM      6  C   UNL     1      34.964 -23.237 -16.441  0.00  0.00    +0.068 C 
ATOM      7  H   UNL     1      35.475 -23.380 -19.045  0.00  0.00    -0.080 HD
ENDROOT
BRANCH   2   8
ATOM      8  C   UNL     1      32.657 -23.404 -15.606  0.00  0.00    +0.048 C 
ATOM      9  C   UNL     1      31.309 -23.708 -15.881  0.00  0.00    +0.018 C 
ATOM     10  C   UNL     1      33.105 -23.524 -14.275  0.00  0.00    +0.015 C 
ATOM     11  C   UNL     1      30.443 -24.114 -14.867  0.00  0.00    +0.073 C 
ATOM     12  C   UNL     1      32.238 -23.931 -13.260  0.00  0.00    +0.001 C 
ATOM     13  C   UNL     1      30.907 -24.225 -13.556  0.00  0.00    +0.004 C 
BRANCH  11  17
ATOM     14  F   UNL     1      28.832 -24.909 -16.447  0.00  0.00    -0.166 F 
ATOM     15  F   UNL     1      28.471 -25.369 -14.358  0.00  0.00    -0.166 F 
ATOM     16  F   UNL     1      28.207 -23.336 -15.082  0.00  0.00    -0.166 F 
ATOM     17  C   UNL     1      29.020 -24.428 -15.182  0.00  0.00    +0.419 C 
ENDBRANCH  11  17
ENDBRANCH   2   8
BRANCH   1  18
ATOM     18  C   UNL     1      36.182 -21.561 -19.593  0.00  0.00    -0.069 C 
BRANCH  18  19
ATOM     19  C   UNL     1      35.325 -20.541 -20.344  0.00  0.00    +0.046 C 
BRANCH  19  21
ATOM     20  O   UNL     1      37.228 -19.063 -20.246  0.00  0.00    -0.291 OA
ATOM     21  C   UNL     1      36.112 -19.291 -20.708  0.00  0.00    +0.171 C 
BRANCH  21  22
ATOM     22  C   UNL     1      35.504 -18.312 -21.659  0.00  0.00    +0.039 C 
ATOM     23  C   UNL     1      35.326 -17.013 -21.243  0.00  0.00    +0.030 C 
ATOM     24  C   UNL     1      35.145 -18.749 -22.913  0.00  0.00    +0.043 C 
ATOM     25  C   UNL     1      34.757 -16.100 -22.130  0.00  0.00    +0.179 C 
ATOM     26  C   UNL     1      34.577 -17.836 -23.801  0.00  0.00    +0.169 C 
ATOM     27  C   UNL     1      34.384 -16.511 -23.410  0.00  0.00    +0.190 C 
BRANCH  25  30
ATOM     28  O   UNL     1      34.785 -13.830 -22.534  0.00  0.00    -0.126 OA
ATOM     29  O   UNL     1      34.191 -14.529 -20.539  0.00  0.00    -0.126 OA
ATOM     30  N   UNL     1      34.568 -14.753 -21.714  0.00  0.00    +0.061 N 
ENDBRANCH  25  30
BRANCH  26  31
ATOM     31  O   UNL     1      34.215 -18.251 -25.047  0.00  0.00    -0.503 OA
ATOM     32  H   UNL     1      34.744 -18.027 -25.788  0.00  0.00    +0.292 HD
ENDBRANCH  26  31
BRANCH  27  33
ATOM     33  O   UNL     1      33.826 -15.626 -24.287  0.00  0.00    -0.502 OA
ATOM     34  H   UNL     1      34.361 -15.200 -24.927  0.00  0.00    +0.292 HD
ENDBRANCH  27  33
ENDBRANCH  21  22
ENDBRANCH  19  21
ENDBRANCH  18  19
ENDBRANCH   1  18
TORSDOF 9
ENDMDL
MODEL 2
REMARK VINA RESULT:     -11.3      0.990      2.175
REMARK  Name = 4369285
REMARK  9 active torsions:
REMARK  status: ('A' for Active; 'I' for Inactive)
REMARK    1  A    between atoms: N_1  and  C_18
REMARK    2  A    between atoms: N_2  and  C_8
REMARK    3  A    between atoms: C_11  and  C_17
REMARK    4  A    between atoms: C_18  and  C_19
REMARK    5  A    between atoms: C_19  and  C_21
REMARK    6  A    between atoms: C_21  and  C_22
REMARK    7  A    between atoms: C_25  and  N_30
REMARK    8  A    between atoms: C_26  and  O_31
REMARK    9  A    between atoms: C_27  and  O_33
REMARK                            x       y       z     vdW  Elec       q    Type
REMARK                         _______ _______ _______ _____ _____    ______ ____
ROOT
ATOM      1  N   UNL     1      35.505 -22.190 -19.016  0.00  0.00    +0.390 N 
ATOM      2  N   UNL     1      33.654 -22.840 -16.940  0.00  0.00    -0.312 N 
ATOM      3  C   UNL     1      34.087 -21.836 -19.147  0.00  0.00    -0.055 C 
ATOM      4  C   UNL     1      35.911 -22.110 -17.607  0.00  0.00    -0.055 C 
ATOM      5  C   UNL     1      33.204 -22.787 -18.335  0.00  0.00    +0.068 C 
ATOM      6  C   UNL     1      35.090 -23.071 -16.743  0.00  0.00    +0.068 C 
ATOM      7  H   UNL     1      35.637 -23.147 -19.343  0.00  0.00    -0.080 HD
ENDROOT
BRANCH   2   8
ATOM      8  C   UNL     1      32.775 -23.281 -15.944  0.00  0.00    +0.048 C 
ATOM      9  C   UNL     1      31.379 -23.189 -16.114  0.00  0.00    +0.018 C 
ATOM     10  C   UNL     1      33.260 -23.830 -14.740  0.00  0.00    +0.015 C 
ATOM     11  C   UNL     1      30.504 -23.628 -15.121  0.00  0.00    +0.073 C 
ATOM     12  C   UNL     1      32.385 -24.270 -13.746  0.00  0.00    +0.001 C 
ATOM     13  C   UNL     1      31.007 -24.168 -13.937  0.00  0.00    +0.004 C 
BRANCH  11  17
ATOM     14  F   UNL     1      28.329 -24.578 -14.820  0.00  0.00    -0.166 F 
ATOM     15  F   UNL     1      28.478 -22.416 -14.739  0.00  0.00    -0.166 F 
ATOM     16  F   UNL     1      28.686 -23.445 -16.642  0.00  0.00    -0.166 F 
ATOM     17  C   UNL     1      29.031 -23.519 -15.323  0.00  0.00    +0.419 C 
ENDBRANCH  11  17
ENDBRANCH   2   8
BRANCH   1  18
ATOM     18  C   UNL     1      36.332 -21.308 -19.839  0.00  0.00    -0.069 C 
BRANCH  18  19
ATOM     19  C   UNL     1      35.478 -20.257 -20.548  0.00  0.00    +0.046 C 
BRANCH  19  21
ATOM     20  O   UNL     1      37.514 -18.995 -20.825  0.00  0.00    -0.291 OA
ATOM     21  C   UNL     1      36.292 -19.034 -20.948  0.00  0.00    +0.171 C 
BRANCH  21  22
ATOM     22  C   UNL     1      35.577 -17.848 -21.506  0.00  0.00    +0.039 C 
ATOM     23  C   UNL     1      35.215 -17.861 -22.833  0.00  0.00    +0.030 C 
ATOM     24  C   UNL     1      35.308 -16.788 -20.670  0.00  0.00    +0.043 C 
ATOM     25  C   UNL     1      34.549 -16.753 -23.354  0.00  0.00    +0.179 C 
ATOM     26  C   UNL     1      34.640 -15.680 -21.191  0.00  0.00    +0.169 C 
ATOM     27  C   UNL     1      34.260 -15.662 -22.533  0.00  0.00    +0.190 C 
BRANCH  25  30
ATOM     28  O   UNL     1      33.402 -17.654 -25.140  0.00  0.00    -0.126 OA
ATOM     29  O   UNL     1      34.610 -15.852 -25.477  0.00  0.00    -0.126 OA
ATOM     30  N   UNL     1      34.168 -16.753 -24.725  0.00  0.00    +0.061 N 
ENDBRANCH  25  30
BRANCH  26  31
ATOM     31  O   UNL     1      34.367 -14.622 -20.379  0.00  0.00    -0.503 OA
ATOM     32  H   UNL     1      34.910 -13.858 -20.404  0.00  0.00    +0.292 HD
ENDBRANCH  26  31
BRANCH  27  33
ATOM     33  O   UNL     1      33.608 -14.572 -23.033  0.00  0.00    -0.502 OA
ATOM     34  H   UNL     1      33.999 -14.066 -23.718  0.00  0.00    +0.292 HD
ENDBRANCH  27  33
ENDBRANCH  21  22
ENDBRANCH  19  21
ENDBRANCH  18  19
ENDBRANCH   1  18
TORSDOF 9
ENDMDL
MODEL 3
REMARK VINA RESULT:     -11.2      6.521     10.336
REMARK  Name = 4369285
REMARK  9 active torsions:
REMARK  status: ('A' for Active; 'I' for Inactive)
REMARK    1  A    between atoms: N_1  and  C_18
REMARK    2  A    between atoms: N_2  and  C_8
REMARK    3  A    between atoms: C_11  and  C_17
REMARK    4  A    between atoms: C_18  and  C_19
REMARK    5  A    between atoms: C_19  and  C_21
REMARK    6  A    between atoms: C_21  and  C_22
REMARK    7  A    between atoms: C_25  and  N_30
REMARK    8  A    between atoms: C_26  and  O_31
REMARK    9  A    between atoms: C_27  and  O_33
REMARK                            x       y       z     vdW  Elec       q    Type
REMARK                         _______ _______ _______ _____ _____    ______ ____
ROOT
ATOM      1  N   UNL     1      33.277 -23.219 -17.713  0.00  0.00    +0.390 N 
ATOM      2  N   UNL     1      34.585 -21.328 -19.408  0.00  0.00    -0.312 N 
ATOM      3  C   UNL     1      34.666 -22.822 -17.451  0.00  0.00    -0.055 C 
ATOM      4  C   UNL     1      32.531 -22.086 -18.275  0.00  0.00    -0.055 C 
ATOM      5  C   UNL     1      35.363 -22.375 -18.739  0.00  0.00    +0.068 C 
ATOM      6  C   UNL     1      33.156 -21.615 -19.590  0.00  0.00    +0.068 C 
ATOM      7  H   UNL     1      33.275 -23.983 -18.389  0.00  0.00    -0.080 HD
ENDROOT
BRANCH   2   8
ATOM      8  C   UNL     1      35.209 -20.483 -20.334  0.00  0.00    +0.048 C 
ATOM      9  C   UNL     1      34.598 -20.180 -21.567  0.00  0.00    +0.018 C 
ATOM     10  C   UNL     1      36.467 -19.911 -20.059  0.00  0.00    +0.015 C 
ATOM     11  C   UNL     1      35.221 -19.339 -22.489  0.00  0.00    +0.073 C 
ATOM     12  C   UNL     1      37.090 -19.068 -20.981  0.00  0.00    +0.001 C 
ATOM     13  C   UNL     1      36.466 -18.783 -22.196  0.00  0.00    +0.004 C 
BRANCH  11  17
ATOM     14  F   UNL     1      33.191 -19.029 -23.717  0.00  0.00    -0.166 F 
ATOM     15  F   UNL     1      34.890 -17.814 -24.301  0.00  0.00    -0.166 F 
ATOM     16  F   UNL     1      34.868 -19.939 -24.762  0.00  0.00    -0.166 F 
ATOM     17  C   UNL     1      34.556 -19.034 -23.788  0.00  0.00    +0.419 C 
ENDBRANCH  11  17
ENDBRANCH   2   8
BRANCH   1  18
ATOM     18  C   UNL     1      32.640 -23.694 -16.486  0.00  0.00    -0.069 C 
BRANCH  18  19
ATOM     19  C   UNL     1      33.401 -23.214 -15.249  0.00  0.00    +0.046 C 
BRANCH  19  21
ATOM     20  O   UNL     1      32.719 -24.951 -13.721  0.00  0.00    -0.291 OA
ATOM     21  C   UNL     1      33.643 -24.340 -14.255  0.00  0.00    +0.171 C 
BRANCH  21  22
ATOM     22  C   UNL     1      35.051 -24.711 -13.920  0.00  0.00    +0.039 C 
ATOM     23  C   UNL     1      35.598 -24.232 -12.753  0.00  0.00    +0.030 C 
ATOM     24  C   UNL     1      35.745 -25.516 -14.794  0.00  0.00    +0.043 C 
ATOM     25  C   UNL     1      36.913 -24.577 -12.441  0.00  0.00    +0.179 C 
ATOM     26  C   UNL     1      37.059 -25.863 -14.482  0.00  0.00    +0.169 C 
ATOM     27  C   UNL     1      37.644 -25.394 -13.305  0.00  0.00    +0.190 C 
BRANCH  25  30
ATOM     28  O   UNL     1      38.557 -23.431 -11.301  0.00  0.00    -0.126 OA
ATOM     29  O   UNL     1      36.921 -24.334 -10.148  0.00  0.00    -0.126 OA
ATOM     30  N   UNL     1      37.492 -24.090 -11.237  0.00  0.00    +0.061 N 
ENDBRANCH  25  30
BRANCH  26  31
ATOM     31  O   UNL     1      37.761 -26.659 -15.335  0.00  0.00    -0.503 OA
ATOM     32  H   UNL     1      38.577 -27.032 -15.064  0.00  0.00    +0.292 HD
ENDBRANCH  26  31
BRANCH  27  33
ATOM     33  O   UNL     1      38.931 -25.738 -13.011  0.00  0.00    -0.502 OA
ATOM     34  H   UNL     1      39.124 -26.594 -12.684  0.00  0.00    +0.292 HD
ENDBRANCH  27  33
ENDBRANCH  21  22
ENDBRANCH  19  21
ENDBRANCH  18  19
ENDBRANCH   1  18
TORSDOF 9
ENDMDL
MODEL 4
REMARK VINA RESULT:     -11.1      5.921     10.349
REMARK  Name = 4369285
REMARK  9 active torsions:
REMARK  status: ('A' for Active; 'I' for Inactive)
REMARK    1  A    between atoms: N_1  and  C_18
REMARK    2  A    between atoms: N_2  and  C_8
REMARK    3  A    between atoms: C_11  and  C_17
REMARK    4  A    between atoms: C_18  and  C_19
REMARK    5  A    between atoms: C_19  and  C_21
REMARK    6  A    between atoms: C_21  and  C_22
REMARK    7  A    between atoms: C_25  and  N_30
REMARK    8  A    between atoms: C_26  and  O_31
REMARK    9  A    between atoms: C_27  and  O_33
REMARK                            x       y       z     vdW  Elec       q    Type
REMARK                         _______ _______ _______ _____ _____    ______ ____
ROOT
ATOM      1  N   UNL     1      36.046 -20.966 -20.096  0.00  0.00    +0.390 N 
ATOM      2  N   UNL     1      35.314 -18.660 -21.615  0.00  0.00    -0.312 N 
ATOM      3  C   UNL     1      36.844 -19.737 -20.013  0.00  0.00    -0.055 C 
ATOM      4  C   UNL     1      34.631 -20.630 -20.300  0.00  0.00    -0.055 C 
ATOM      5  C   UNL     1      36.724 -18.914 -21.298  0.00  0.00    +0.068 C 
ATOM      6  C   UNL     1      34.436 -19.837 -21.595  0.00  0.00    +0.068 C 
ATOM      7  H   UNL     1      36.372 -21.517 -20.891  0.00  0.00    -0.080 HD
ENDROOT
BRANCH   2   8
ATOM      8  C   UNL     1      34.974 -17.600 -22.463  0.00  0.00    +0.048 C 
ATOM      9  C   UNL     1      34.739 -16.308 -21.953  0.00  0.00    +0.018 C 
ATOM     10  C   UNL     1      34.855 -17.794 -23.854  0.00  0.00    +0.015 C 
ATOM     11  C   UNL     1      34.400 -15.252 -22.799  0.00  0.00    +0.073 C 
ATOM     12  C   UNL     1      34.516 -16.738 -24.701  0.00  0.00    +0.001 C 
ATOM     13  C   UNL     1      34.288 -15.467 -24.173  0.00  0.00    +0.004 C 
BRANCH  11  17
ATOM     14  F   UNL     1      34.784 -13.674 -21.042  0.00  0.00    -0.166 F 
ATOM     15  F   UNL     1      34.571 -12.880 -23.049  0.00  0.00    -0.166 F 
ATOM     16  F   UNL     1      32.831 -13.655 -22.000  0.00  0.00    -0.166 F 
ATOM     17  C   UNL     1      34.155 -13.894 -22.235  0.00  0.00    +0.419 C 
ENDBRANCH  11  17
ENDBRANCH   2   8
BRANCH   1  18
ATOM     18  C   UNL     1      36.213 -21.769 -18.886  0.00  0.00    -0.069 C 
BRANCH  18  19
ATOM     19  C   UNL     1      34.888 -22.403 -18.459  0.00  0.00    +0.046 C 
BRANCH  19  21
ATOM     20  O   UNL     1      36.012 -23.156 -16.463  0.00  0.00    -0.291 OA
ATOM     21  C   UNL     1      34.947 -22.947 -17.039  0.00  0.00    +0.171 C 
BRANCH  21  22
ATOM     22  C   UNL     1      33.665 -23.235 -16.328  0.00  0.00    +0.039 C 
ATOM     23  C   UNL     1      33.718 -23.845 -15.096  0.00  0.00    +0.030 C 
ATOM     24  C   UNL     1      32.482 -22.878 -16.933  0.00  0.00    +0.043 C 
ATOM     25  C   UNL     1      32.521 -24.115 -14.434  0.00  0.00    +0.179 C 
ATOM     26  C   UNL     1      31.285 -23.147 -16.270  0.00  0.00    +0.169 C 
ATOM     27  C   UNL     1      31.304 -23.765 -15.019  0.00  0.00    +0.190 C 
BRANCH  25  30
ATOM     28  O   UNL     1      33.478 -24.441 -12.361  0.00  0.00    -0.126 OA
ATOM     29  O   UNL     1      31.677 -25.586 -12.871  0.00  0.00    -0.126 OA
ATOM     30  N   UNL     1      32.560 -24.745 -13.159  0.00  0.00    +0.061 N 
ENDBRANCH  25  30
BRANCH  26  31
ATOM     31  O   UNL     1      30.104 -22.801 -16.855  0.00  0.00    -0.503 OA
ATOM     32  H   UNL     1      29.897 -23.114 -17.714  0.00  0.00    +0.292 HD
ENDBRANCH  26  31
BRANCH  27  33
ATOM     33  O   UNL     1      30.127 -24.024 -14.380  0.00  0.00    -0.502 OA
ATOM     34  H   UNL     1      29.682 -23.339 -13.920  0.00  0.00    +0.292 HD
ENDBRANCH  27  33
ENDBRANCH  21  22
ENDBRANCH  19  21
ENDBRANCH  18  19
ENDBRANCH   1  18
TORSDOF 9
ENDMDL
MODEL 5
REMARK VINA RESULT:     -11.0      6.129     10.862
REMARK  Name = 4369285
REMARK  9 active torsions:
REMARK  status: ('A' for Active; 'I' for Inactive)
REMARK    1  A    between atoms: N_1  and  C_18
REMARK    2  A    between atoms: N_2  and  C_8
REMARK    3  A    between atoms: C_11  and  C_17
REMARK    4  A    between atoms: C_18  and  C_19
REMARK    5  A    between atoms: C_19  and  C_21
REMARK    6  A    between atoms: C_21  and  C_22
REMARK    7  A    between atoms: C_25  and  N_30
REMARK    8  A    between atoms: C_26  and  O_31
REMARK    9  A    between atoms: C_27  and  O_33
REMARK                            x       y       z     vdW  Elec       q    Type
REMARK                         _______ _______ _______ _____ _____    ______ ____
ROOT
ATOM      1  N   UNL     1      36.079 -20.534 -19.590  0.00  0.00    +0.390 N 
ATOM      2  N   UNL     1      35.295 -18.734 -21.666  0.00  0.00    -0.312 N 
ATOM      3  C   UNL     1      34.888 -20.809 -20.403  0.00  0.00    -0.055 C 
ATOM      4  C   UNL     1      37.093 -19.854 -20.406  0.00  0.00    -0.055 C 
ATOM      5  C   UNL     1      34.281 -19.514 -20.948  0.00  0.00    +0.068 C 
ATOM      6  C   UNL     1      36.561 -18.527 -20.952  0.00  0.00    +0.068 C 
ATOM      7  H   UNL     1      35.815 -19.923 -18.817  0.00  0.00    -0.080 HD
ENDROOT
BRANCH   2   8
ATOM      8  C   UNL     1      34.897 -17.764 -22.593  0.00  0.00    +0.048 C 
ATOM      9  C   UNL     1      34.742 -16.416 -22.212  0.00  0.00    +0.018 C 
ATOM     10  C   UNL     1      34.638 -18.107 -23.935  0.00  0.00    +0.015 C 
ATOM     11  C   UNL     1      34.345 -15.450 -23.137  0.00  0.00    +0.073 C 
ATOM     12  C   UNL     1      34.242 -17.140 -24.860  0.00  0.00    +0.001 C 
ATOM     13  C   UNL     1      34.095 -15.812 -24.460  0.00  0.00    +0.004 C 
BRANCH  11  17
ATOM     14  F   UNL     1      32.902 -13.695 -22.388  0.00  0.00    -0.166 F 
ATOM     15  F   UNL     1      34.927 -13.703 -21.610  0.00  0.00    -0.166 F 
ATOM     16  F   UNL     1      34.563 -13.146 -23.680  0.00  0.00    -0.166 F 
ATOM     17  C   UNL     1      34.187 -14.030 -22.710  0.00  0.00    +0.419 C 
ENDBRANCH  11  17
ENDBRANCH   2   8
BRANCH   1  18
ATOM     18  C   UNL     1      36.616 -21.773 -19.031  0.00  0.00    -0.069 C 
BRANCH  18  19
ATOM     19  C   UNL     1      35.847 -22.191 -17.778  0.00  0.00    +0.046 C 
BRANCH  19  21
ATOM     20  O   UNL     1      37.462 -21.216 -16.276  0.00  0.00    -0.291 OA
ATOM     21  C   UNL     1      36.723 -22.164 -16.534  0.00  0.00    +0.171 C 
BRANCH  21  22
ATOM     22  C   UNL     1      36.679 -23.329 -15.601  0.00  0.00    +0.039 C 
ATOM     23  C   UNL     1      37.862 -23.933 -15.245  0.00  0.00    +0.030 C 
ATOM     24  C   UNL     1      35.456 -23.752 -15.133  0.00  0.00    +0.043 C 
ATOM     25  C   UNL     1      37.820 -25.022 -14.374  0.00  0.00    +0.179 C 
ATOM     26  C   UNL     1      35.414 -24.840 -14.262  0.00  0.00    +0.169 C 
ATOM     27  C   UNL     1      36.597 -25.475 -13.881  0.00  0.00    +0.190 C 
BRANCH  25  30
ATOM     28  O   UNL     1      39.188 -26.874 -14.252  0.00  0.00    -0.126 OA
ATOM     29  O   UNL     1      39.920 -24.979 -13.422  0.00  0.00    -0.126 OA
ATOM     30  N   UNL     1      39.037 -25.656 -13.998  0.00  0.00    +0.061 N 
ENDBRANCH  25  30
BRANCH  26  31
ATOM     31  O   UNL     1      34.212 -25.272 -13.789  0.00  0.00    -0.503 OA
ATOM     32  H   UNL     1      33.539 -24.653 -13.583  0.00  0.00    +0.292 HD
ENDBRANCH  26  31
BRANCH  27  33
ATOM     33  O   UNL     1      36.544 -26.539 -13.029  0.00  0.00    -0.502 OA
ATOM     34  H   UNL     1      36.411 -26.399 -12.112  0.00  0.00    +0.292 HD
ENDBRANCH  27  33
ENDBRANCH  21  22
ENDBRANCH  19  21
ENDBRANCH  18  19
ENDBRANCH   1  18
TORSDOF 9
ENDMDL
MODEL 6
REMARK VINA RESULT:     -11.0      5.970     10.213
REMARK  Name = 4369285
REMARK  9 active torsions:
REMARK  status: ('A' for Active; 'I' for Inactive)
REMARK    1  A    between atoms: N_1  and  C_18
REMARK    2  A    between atoms: N_2  and  C_8
REMARK    3  A    between atoms: C_11  and  C_17
REMARK    4  A    between atoms: C_18  and  C_19
REMARK    5  A    between atoms: C_19  and  C_21
REMARK    6  A    between atoms: C_21  and  C_22
REMARK    7  A    between atoms: C_25  and  N_30
REMARK    8  A    between atoms: C_26  and  O_31
REMARK    9  A    between atoms: C_27  and  O_33
REMARK                            x       y       z     vdW  Elec       q    Type
REMARK                         _______ _______ _______ _____ _____    ______ ____
ROOT
ATOM      1  N   UNL     1      35.061 -21.885 -19.305  0.00  0.00    +0.390 N 
ATOM      2  N   UNL     1      34.995 -19.454 -20.804  0.00  0.00    -0.312 N 
ATOM      3  C   UNL     1      36.205 -20.965 -19.280  0.00  0.00    -0.055 C 
ATOM      4  C   UNL     1      33.811 -21.124 -19.431  0.00  0.00    -0.055 C 
ATOM      5  C   UNL     1      36.272 -20.135 -20.564  0.00  0.00    +0.068 C 
ATOM      6  C   UNL     1      33.798 -20.300 -20.721  0.00  0.00    +0.068 C 
ATOM      7  H   UNL     1      35.154 -22.503 -20.111  0.00  0.00    -0.080 HD
ENDROOT
BRANCH   2   8
ATOM      8  C   UNL     1      34.953 -18.334 -21.642  0.00  0.00    +0.048 C 
ATOM      9  C   UNL     1      34.706 -17.047 -21.124  0.00  0.00    +0.018 C 
ATOM     10  C   UNL     1      35.155 -18.460 -23.031  0.00  0.00    +0.015 C 
ATOM     11  C   UNL     1      34.663 -15.932 -21.960  0.00  0.00    +0.073 C 
ATOM     12  C   UNL     1      35.113 -17.344 -23.868  0.00  0.00    +0.001 C 
ATOM     13  C   UNL     1      34.867 -16.080 -23.332  0.00  0.00    +0.004 C 
BRANCH  11  17
ATOM     14  F   UNL     1      34.740 -13.555 -22.225  0.00  0.00    -0.166 F 
ATOM     15  F   UNL     1      33.087 -14.365 -21.077  0.00  0.00    -0.166 F 
ATOM     16  F   UNL     1      35.092 -14.354 -20.233  0.00  0.00    -0.166 F 
ATOM     17  C   UNL     1      34.399 -14.581 -21.388  0.00  0.00    +0.419 C 
ENDBRANCH  11  17
ENDBRANCH   2   8
BRANCH   1  18
ATOM     18  C   UNL     1      35.039 -22.709 -18.098  0.00  0.00    -0.069 C 
BRANCH  18  19
ATOM     19  C   UNL     1      33.611 -23.119 -17.736  0.00  0.00    +0.046 C 
BRANCH  19  21
ATOM     20  O   UNL     1      34.304 -22.959 -15.432  0.00  0.00    -0.291 OA
ATOM     21  C   UNL     1      33.416 -23.245 -16.232  0.00  0.00    +0.171 C 
BRANCH  21  22
ATOM     22  C   UNL     1      32.101 -23.731 -15.718  0.00  0.00    +0.039 C 
ATOM     23  C   UNL     1      30.957 -23.375 -16.394  0.00  0.00    +0.030 C 
ATOM     24  C   UNL     1      32.085 -24.516 -14.589  0.00  0.00    +0.043 C 
ATOM     25  C   UNL     1      29.729 -23.828 -15.912  0.00  0.00    +0.179 C 
ATOM     26  C   UNL     1      30.857 -24.971 -14.108  0.00  0.00    +0.169 C 
ATOM     27  C   UNL     1      29.679 -24.627 -14.770  0.00  0.00    +0.190 C 
BRANCH  25  30
ATOM     28  O   UNL     1      28.278 -22.252 -16.766  0.00  0.00    -0.126 OA
ATOM     29  O   UNL     1      27.783 -24.376 -17.023  0.00  0.00    -0.126 OA
ATOM     30  N   UNL     1      28.537 -23.467 -16.601  0.00  0.00    +0.061 N 
ENDBRANCH  25  30
BRANCH  26  31
ATOM     31  O   UNL     1      30.824 -25.749 -12.990  0.00  0.00    -0.503 OA
ATOM     32  H   UNL     1      30.167 -25.604 -12.338  0.00  0.00    +0.292 HD
ENDBRANCH  26  31
BRANCH  27  33
ATOM     33  O   UNL     1      28.483 -25.076 -14.290  0.00  0.00    -0.502 OA
ATOM     34  H   UNL     1      28.180 -25.934 -14.515  0.00  0.00    +0.292 HD
ENDBRANCH  27  33
ENDBRANCH  21  22
ENDBRANCH  19  21
ENDBRANCH  18  19
ENDBRANCH   1  18
TORSDOF 9
ENDMDL
MODEL 7
REMARK VINA RESULT:     -10.9      6.456     10.680
REMARK  Name = 4369285
REMARK  9 active torsions:
REMARK  status: ('A' for Active; 'I' for Inactive)
REMARK    1  A    between atoms: N_1  and  C_18
REMARK    2  A    between atoms: N_2  and  C_8
REMARK    3  A    between atoms: C_11  and  C_17
REMARK    4  A    between atoms: C_18  and  C_19
REMARK    5  A    between atoms: C_19  and  C_21
REMARK    6  A    between atoms: C_21  and  C_22
REMARK    7  A    between atoms: C_25  and  N_30
REMARK    8  A    between atoms: C_26  and  O_31
REMARK    9  A    between atoms: C_27  and  O_33
REMARK                            x       y       z     vdW  Elec       q    Type
REMARK                         _______ _______ _______ _____ _____    ______ ____
ROOT
ATOM      1  N   UNL     1      33.457 -23.112 -17.703  0.00  0.00    +0.390 N 
ATOM      2  N   UNL     1      34.660 -21.220 -19.473  0.00  0.00    -0.312 N 
ATOM      3  C   UNL     1      34.831 -22.649 -17.474  0.00  0.00    -0.055 C 
ATOM      4  C   UNL     1      32.656 -22.029 -18.288  0.00  0.00    -0.055 C 
ATOM      5  C   UNL     1      35.491 -22.213 -18.784  0.00  0.00    +0.068 C 
ATOM      6  C   UNL     1      33.243 -21.572 -19.626  0.00  0.00    +0.068 C 
ATOM      7  H   UNL     1      33.478 -23.895 -18.356  0.00  0.00    -0.080 HD
ENDROOT
BRANCH   2   8
ATOM      8  C   UNL     1      35.236 -20.379 -20.432  0.00  0.00    +0.048 C 
ATOM      9  C   UNL     1      34.585 -20.118 -21.655  0.00  0.00    +0.018 C 
ATOM     10  C   UNL     1      36.485 -19.767 -20.204  0.00  0.00    +0.015 C 
ATOM     11  C   UNL     1      35.159 -19.280 -22.610  0.00  0.00    +0.073 C 
ATOM     12  C   UNL     1      37.059 -18.927 -21.160  0.00  0.00    +0.001 C 
ATOM     13  C   UNL     1      36.396 -18.685 -22.363  0.00  0.00    +0.004 C 
BRANCH  11  17
ATOM     14  F   UNL     1      34.665 -17.767 -24.397  0.00  0.00    -0.166 F 
ATOM     15  F   UNL     1      34.814 -19.872 -24.901  0.00  0.00    -0.166 F 
ATOM     16  F   UNL     1      33.096 -19.143 -23.784  0.00  0.00    -0.166 F 
ATOM     17  C   UNL     1      34.452 -19.021 -23.896  0.00  0.00    +0.419 C 
ENDBRANCH  11  17
ENDBRANCH   2   8
BRANCH   1  18
ATOM     18  C   UNL     1      32.856 -23.576 -16.454  0.00  0.00    -0.069 C 
BRANCH  18  19
ATOM     19  C   UNL     1      33.642 -23.068 -15.244  0.00  0.00    +0.046 C 
BRANCH  19  21
ATOM     20  O   UNL     1      32.445 -24.226 -13.500  0.00  0.00    -0.291 OA
ATOM     21  C   UNL     1      33.521 -24.005 -14.051  0.00  0.00    +0.171 C 
BRANCH  21  22
ATOM     22  C   UNL     1      34.754 -24.673 -13.536  0.00  0.00    +0.039 C 
ATOM     23  C   UNL     1      35.471 -25.479 -14.390  0.00  0.00    +0.030 C 
ATOM     24  C   UNL     1      35.123 -24.457 -12.228  0.00  0.00    +0.043 C 
ATOM     25  C   UNL     1      36.621 -26.104 -13.908  0.00  0.00    +0.179 C 
ATOM     26  C   UNL     1      36.274 -25.081 -11.747  0.00  0.00    +0.169 C 
ATOM     27  C   UNL     1      37.023 -25.904 -12.588  0.00  0.00    +0.190 C 
BRANCH  25  30
ATOM     28  O   UNL     1      36.772 -27.573 -15.679  0.00  0.00    -0.126 OA
ATOM     29  O   UNL     1      38.614 -27.018 -14.622  0.00  0.00    -0.126 OA
ATOM     30  N   UNL     1      37.373 -26.940 -14.780  0.00  0.00    +0.061 N 
ENDBRANCH  25  30
BRANCH  26  31
ATOM     31  O   UNL     1      36.654 -24.878 -10.455  0.00  0.00    -0.503 OA
ATOM     32  H   UNL     1      36.136 -25.224  -9.754  0.00  0.00    +0.292 HD
ENDBRANCH  26  31
BRANCH  27  33
ATOM     33  O   UNL     1      38.147 -26.511 -12.106  0.00  0.00    -0.502 OA
ATOM     34  H   UNL     1      38.504 -26.248 -11.280  0.00  0.00    +0.292 HD
ENDBRANCH  27  33
ENDBRANCH  21  22
ENDBRANCH  19  21
ENDBRANCH  18  19
ENDBRANCH   1  18
TORSDOF 9
ENDMDL
MODEL 8
REMARK VINA RESULT:     -10.9      6.369     10.870
REMARK  Name = 4369285
REMARK  9 active torsions:
REMARK  status: ('A' for Active; 'I' for Inactive)
REMARK    1  A    between atoms: N_1  and  C_18
REMARK    2  A    between atoms: N_2  and  C_8
REMARK    3  A    between atoms: C_11  and  C_17
REMARK    4  A    between atoms: C_18  and  C_19
REMARK    5  A    between atoms: C_19  and  C_21
REMARK    6  A    between atoms: C_21  and  C_22
REMARK    7  A    between atoms: C_25  and  N_30
REMARK    8  A    between atoms: C_26  and  O_31
REMARK    9  A    between atoms: C_27  and  O_33
REMARK                            x       y       z     vdW  Elec       q    Type
REMARK                         _______ _______ _______ _____ _____    ______ ____
ROOT
ATOM      1  N   UNL     1      33.908 -14.768 -24.210  0.00  0.00    +0.390 N 
ATOM      2  N   UNL     1      32.888 -12.391 -22.997  0.00  0.00    -0.312 N 
ATOM      3  C   UNL     1      33.438 -14.786 -22.820  0.00  0.00    -0.055 C 
ATOM      4  C   UNL     1      33.110 -13.817 -24.995  0.00  0.00    -0.055 C 
ATOM      5  C   UNL     1      33.565 -13.402 -22.178  0.00  0.00    +0.068 C 
ATOM      6  C   UNL     1      33.226 -12.401 -24.426  0.00  0.00    +0.068 C 
ATOM      7  H   UNL     1      34.883 -14.469 -24.224  0.00  0.00    -0.080 HD
ENDROOT
BRANCH   2   8
ATOM      8  C   UNL     1      32.503 -11.175 -22.422  0.00  0.00    +0.048 C 
ATOM      9  C   UNL     1      32.116 -11.102 -21.069  0.00  0.00    +0.018 C 
ATOM     10  C   UNL     1      32.491  -9.986 -23.178  0.00  0.00    +0.015 C 
ATOM     11  C   UNL     1      31.732  -9.890 -20.496  0.00  0.00    +0.073 C 
ATOM     12  C   UNL     1      32.108  -8.773 -22.605  0.00  0.00    +0.001 C 
ATOM     13  C   UNL     1      31.728  -8.725 -21.264  0.00  0.00    +0.004 C 
BRANCH  11  17
ATOM     14  F   UNL     1      31.366  -8.582 -18.526  0.00  0.00    -0.166 F 
ATOM     15  F   UNL     1      30.051 -10.278 -18.839  0.00  0.00    -0.166 F 
ATOM     16  F   UNL     1      32.122 -10.604 -18.262  0.00  0.00    -0.166 F 
ATOM     17  C   UNL     1      31.324  -9.838 -19.063  0.00  0.00    +0.419 C 
ENDBRANCH  11  17
ENDBRANCH   2   8
BRANCH   1  18
ATOM     18  C   UNL     1      33.833 -16.106 -24.794  0.00  0.00    -0.069 C 
BRANCH  18  19
ATOM     19  C   UNL     1      34.915 -17.019 -24.219  0.00  0.00    +0.046 C 
BRANCH  19  21
ATOM     20  O   UNL     1      33.467 -18.940 -24.383  0.00  0.00    -0.291 OA
ATOM     21  C   UNL     1      34.351 -18.356 -23.760  0.00  0.00    +0.171 C 
BRANCH  21  22
ATOM     22  C   UNL     1      34.892 -18.972 -22.512  0.00  0.00    +0.039 C 
ATOM     23  C   UNL     1      34.066 -19.779 -21.764  0.00  0.00    +0.030 C 
ATOM     24  C   UNL     1      36.196 -18.709 -22.160  0.00  0.00    +0.043 C 
ATOM     25  C   UNL     1      34.572 -20.353 -20.598  0.00  0.00    +0.179 C 
ATOM     26  C   UNL     1      36.702 -19.284 -20.995  0.00  0.00    +0.169 C 
ATOM     27  C   UNL     1      35.890 -20.107 -20.214  0.00  0.00    +0.190 C 
BRANCH  25  30
ATOM     28  O   UNL     1      34.210 -22.234 -19.315  0.00  0.00    -0.126 OA
ATOM     29  O   UNL     1      32.532 -20.858 -19.648  0.00  0.00    -0.126 OA
ATOM     30  N   UNL     1      33.729 -21.190 -19.814  0.00  0.00    +0.061 N 
ENDBRANCH  25  30
BRANCH  26  31
ATOM     31  O   UNL     1      37.991 -19.034 -20.631  0.00  0.00    -0.503 OA
ATOM     32  H   UNL     1      38.191 -18.799 -19.746  0.00  0.00    +0.292 HD
ENDBRANCH  26  31
BRANCH  27  33
ATOM     33  O   UNL     1      36.396 -20.664 -19.075  0.00  0.00    -0.502 OA
ATOM     34  H   UNL     1      37.097 -21.282 -19.127  0.00  0.00    +0.292 HD
ENDBRANCH  27  33
ENDBRANCH  21  22
ENDBRANCH  19  21
ENDBRANCH  18  19
ENDBRANCH   1  18
TORSDOF 9
ENDMDL
MODEL 9
REMARK VINA RESULT:     -10.8      7.661     12.170
REMARK  Name = 4369285
REMARK  9 active torsions:
REMARK  status: ('A' for Active; 'I' for Inactive)
REMARK    1  A    between atoms: N_1  and  C_18
REMARK    2  A    between atoms: N_2  and  C_8
REMARK    3  A    between atoms: C_11  and  C_17
REMARK    4  A    between atoms: C_18  and  C_19
REMARK    5  A    between atoms: C_19  and  C_21
REMARK    6  A    between atoms: C_21  and  C_22
REMARK    7  A    between atoms: C_25  and  N_30
REMARK    8  A    between atoms: C_26  and  O_31
REMARK    9  A    between atoms: C_27  and  O_33
REMARK                            x       y       z     vdW  Elec       q    Type
REMARK                         _______ _______ _______ _____ _____    ______ ____
ROOT
ATOM      1  N   UNL     1      33.721 -14.752 -22.974  0.00  0.00    +0.390 N 
ATOM      2  N   UNL     1      33.251 -11.934 -22.965  0.00  0.00    -0.312 N 
ATOM      3  C   UNL     1      34.423 -13.878 -23.922  0.00  0.00    -0.055 C 
ATOM      4  C   UNL     1      33.500 -14.040 -21.709  0.00  0.00    -0.055 C 
ATOM      5  C   UNL     1      33.609 -12.615 -24.214  0.00  0.00    +0.068 C 
ATOM      6  C   UNL     1      32.654 -12.783 -21.927  0.00  0.00    +0.068 C 
ATOM      7  H   UNL     1      32.817 -15.008 -23.370  0.00  0.00    -0.080 HD
ENDROOT
BRANCH   2   8
ATOM      8  C   UNL     1      32.900 -10.579 -22.989  0.00  0.00    +0.048 C 
ATOM      9  C   UNL     1      33.864  -9.584 -23.244  0.00  0.00    +0.018 C 
ATOM     10  C   UNL     1      31.571 -10.171 -22.759  0.00  0.00    +0.015 C 
ATOM     11  C   UNL     1      33.514  -8.234 -23.268  0.00  0.00    +0.073 C 
ATOM     12  C   UNL     1      31.220  -8.820 -22.784  0.00  0.00    +0.001 C 
ATOM     13  C   UNL     1      32.192  -7.852 -23.038  0.00  0.00    +0.004 C 
BRANCH  11  17
ATOM     14  F   UNL     1      34.124  -5.921 -23.308  0.00  0.00    -0.166 F 
ATOM     15  F   UNL     1      35.677  -7.340 -22.778  0.00  0.00    -0.166 F 
ATOM     16  F   UNL     1      34.982  -7.212 -24.834  0.00  0.00    -0.166 F 
ATOM     17  C   UNL     1      34.552  -7.199 -23.538  0.00  0.00    +0.419 C 
ENDBRANCH  11  17
ENDBRANCH   2   8
BRANCH   1  18
ATOM     18  C   UNL     1      34.483 -15.978 -22.746  0.00  0.00    -0.069 C 
BRANCH  18  19
ATOM     19  C   UNL     1      34.596 -16.803 -24.028  0.00  0.00    +0.046 C 
BRANCH  19  21
ATOM     20  O   UNL     1      33.677 -18.966 -24.566  0.00  0.00    -0.291 OA
ATOM     21  C   UNL     1      34.330 -18.281 -23.782  0.00  0.00    +0.171 C 
BRANCH  21  22
ATOM     22  C   UNL     1      34.884 -18.914 -22.548  0.00  0.00    +0.039 C 
ATOM     23  C   UNL     1      34.059 -19.712 -21.790  0.00  0.00    +0.030 C 
ATOM     24  C   UNL     1      36.198 -18.673 -22.217  0.00  0.00    +0.043 C 
ATOM     25  C   UNL     1      34.575 -20.301 -20.637  0.00  0.00    +0.179 C 
ATOM     26  C   UNL     1      36.715 -19.264 -21.064  0.00  0.00    +0.169 C 
ATOM     27  C   UNL     1      35.904 -20.079 -20.274  0.00  0.00    +0.190 C 
BRANCH  25  30
ATOM     28  O   UNL     1      34.201 -22.194 -19.374  0.00  0.00    -0.126 OA
ATOM     29  O   UNL     1      32.550 -20.771 -19.639  0.00  0.00    -0.126 OA
ATOM     30  N   UNL     1      33.733 -21.130 -19.844  0.00  0.00    +0.061 N 
ENDBRANCH  25  30
BRANCH  26  31
ATOM     31  O   UNL     1      38.014 -19.036 -20.722  0.00  0.00    -0.503 OA
ATOM     32  H   UNL     1      38.663 -19.693 -20.883  0.00  0.00    +0.292 HD
ENDBRANCH  26  31
BRANCH  27  33
ATOM     33  O   UNL     1      36.421 -20.650 -19.148  0.00  0.00    -0.502 OA
ATOM     34  H   UNL     1      37.092 -20.210 -18.664  0.00  0.00    +0.292 HD
ENDBRANCH  27  33
ENDBRANCH  21  22
ENDBRANCH  19  21
ENDBRANCH  18  19
ENDBRANCH   1  18
TORSDOF 9
ENDMDL
