MODEL 1
REMARK VINA RESULT:     -12.6      0.000      0.000
REMARK  Name = 49866474
REMARK  7 active torsions:
REMARK  status: ('A' for Active; 'I' for Inactive)
REMARK    1  A    between atoms: O_1  and  C_3
REMARK    2  A    between atoms: O_1  and  C_18
REMARK    3  A    between atoms: C_4  and  C_10
REMARK    4  A    between atoms: C_18  and  C_19
REMARK    5  A    between atoms: C_19  and  N_20
REMARK    6  A    between atoms: C_19  and  C_24
REMARK    7  A    between atoms: C_24  and  C_26
REMARK                            x       y       z     vdW  Elec       q    Type
REMARK                         _______ _______ _______ _____ _____    ______ ____
ROOT
ATOM      1  O   UNL     1      35.103 -14.926 -23.118  0.00  0.00    -0.476 OA
ENDROOT
BRANCH   1   3
ATOM      2  N   UNL     1      34.132 -18.107 -24.643  0.00  0.00    -0.239 NA
ATOM      3  C   UNL     1      34.883 -16.272 -23.260  0.00  0.00    +0.158 C 
ATOM      4  C   UNL     1      34.936 -18.518 -22.400  0.00  0.00    +0.022 C 
ATOM      5  C   UNL     1      35.168 -17.157 -22.227  0.00  0.00    +0.040 C 
ATOM      6  C   UNL     1      34.371 -16.793 -24.437  0.00  0.00    +0.136 C 
ATOM      7  C   UNL     1      34.422 -18.938 -23.616  0.00  0.00    +0.099 C 
BRANCH   4  10
ATOM      8  N   UNL     1      35.755 -22.213 -18.356  0.00  0.00    -0.236 N 
ATOM      9  N   UNL     1      34.540 -22.752 -18.157  0.00  0.00    -0.180 NA
ATOM     10  C   UNL     1      35.222 -19.462 -21.346  0.00  0.00    +0.002 C 
ATOM     11  C   UNL     1      34.487 -21.166 -19.806  0.00  0.00    +0.035 C 
ATOM     12  C   UNL     1      34.187 -20.255 -20.832  0.00  0.00    +0.003 C 
ATOM     13  C   UNL     1      35.791 -21.255 -19.332  0.00  0.00    +0.067 C 
ATOM     14  C   UNL     1      36.522 -19.572 -20.852  0.00  0.00    +0.001 C 
ATOM     15  C   UNL     1      36.836 -20.474 -19.830  0.00  0.00    +0.016 C 
ATOM     16  C   UNL     1      33.772 -22.113 -19.041  0.00  0.00    +0.119 C 
ATOM     17  H   UNL     1      36.550 -22.485 -17.844  0.00  0.00    +0.174 HD
ENDBRANCH   4  10
ENDBRANCH   1   3
BRANCH   1  18
ATOM     18  C   UNL     1      34.236 -14.224 -22.237  0.00  0.00    +0.184 C 
BRANCH  18  19
ATOM     19  C   UNL     1      33.616 -13.015 -22.946  0.00  0.00    -0.017 C 
BRANCH  19  20
ATOM     20  N   UNL     1      33.475 -13.339 -24.368  0.00  0.00    +0.384 N 
ATOM     21  H   UNL     1      34.388 -13.578 -24.755  0.00  0.00    -0.089 HD
ATOM     22  H   UNL     1      33.094 -12.534 -24.864  0.00  0.00    -0.089 HD
ATOM     23  H   UNL     1      32.843 -14.133 -24.474  0.00  0.00    -0.089 HD
ENDBRANCH  19  20
BRANCH  19  24
ATOM     24  C   UNL     1      32.231 -12.620 -22.377  0.00  0.00    +0.006 C 
BRANCH  24  26
ATOM     25  N   UNL     1      32.460  -8.897 -22.818  0.00  0.00    -0.234 NA
ATOM     26  C   UNL     1      32.016 -11.168 -22.234  0.00  0.00    -0.024 C 
ATOM     27  C   UNL     1      31.545 -10.398 -21.253  0.00  0.00    +0.065 C 
ATOM     28  C   UNL     1      31.612  -8.940 -21.609  0.00  0.00    +0.122 C 
ATOM     29  C   UNL     1      32.569 -10.153 -23.140  0.00  0.00    +0.072 C 
ATOM     30  C   UNL     1      31.159 -10.752 -19.911  0.00  0.00    -0.020 C 
ATOM     31  C   UNL     1      32.116  -8.110 -20.462  0.00  0.00    -0.004 C 
ATOM     32  C   UNL     1      31.345  -9.847 -18.931  0.00  0.00    -0.004 C 
ATOM     33  C   UNL     1      31.958  -8.553 -19.200  0.00  0.00    -0.003 C 
ENDBRANCH  24  26
ENDBRANCH  19  24
ENDBRANCH  18  19
ENDBRANCH   1  18
TORSDOF 7
ENDMDL
MODEL 2
REMARK VINA RESULT:     -12.4      1.750     10.068
REMARK  Name = 49866474
REMARK  7 active torsions:
REMARK  status: ('A' for Active; 'I' for Inactive)
REMARK    1  A    between atoms: O_1  and  C_3
REMARK    2  A    between atoms: O_1  and  C_18
REMARK    3  A    between atoms: C_4  and  C_10
REMARK    4  A    between atoms: C_18  and  C_19
REMARK    5  A    between atoms: C_19  and  N_20
REMARK    6  A    between atoms: C_19  and  C_24
REMARK    7  A    between atoms: C_24  and  C_26
REMARK                            x       y       z     vdW  Elec       q    Type
REMARK                         _______ _______ _______ _____ _____    ______ ____
ROOT
ATOM      1  O   UNL     1      35.650 -17.352 -22.676  0.00  0.00    -0.476 OA
ENDROOT
BRANCH   1   3
ATOM      2  N   UNL     1      33.750 -15.830 -25.407  0.00  0.00    -0.239 NA
ATOM      3  C   UNL     1      34.848 -16.468 -23.349  0.00  0.00    +0.158 C 
ATOM      4  C   UNL     1      33.508 -14.471 -23.421  0.00  0.00    +0.022 C 
ATOM      5  C   UNL     1      34.321 -15.350 -22.713  0.00  0.00    +0.040 C 
ATOM      6  C   UNL     1      34.535 -16.661 -24.686  0.00  0.00    +0.136 C 
ATOM      7  C   UNL     1      33.255 -14.754 -24.754  0.00  0.00    +0.099 C 
BRANCH   4  10
ATOM      8  N   UNL     1      31.454  -9.827 -21.210  0.00  0.00    -0.236 N 
ATOM      9  N   UNL     1      31.789  -8.871 -22.093  0.00  0.00    -0.180 NA
ATOM     10  C   UNL     1      32.946 -13.302 -22.788  0.00  0.00    +0.002 C 
ATOM     11  C   UNL     1      32.528 -10.927 -22.773  0.00  0.00    +0.035 C 
ATOM     12  C   UNL     1      33.081 -12.052 -23.407  0.00  0.00    +0.003 C 
ATOM     13  C   UNL     1      31.868 -11.084 -21.559  0.00  0.00    +0.067 C 
ATOM     14  C   UNL     1      32.278 -13.431 -21.570  0.00  0.00    +0.001 C 
ATOM     15  C   UNL     1      31.723 -12.320 -20.926  0.00  0.00    +0.016 C 
ATOM     16  C   UNL     1      32.442  -9.544 -23.042  0.00  0.00    +0.119 C 
ATOM     17  H   UNL     1      30.953  -9.640 -20.384  0.00  0.00    +0.174 HD
ENDBRANCH   4  10
ENDBRANCH   1   3
BRANCH   1  18
ATOM     18  C   UNL     1      35.239 -17.723 -21.367  0.00  0.00    +0.184 C 
BRANCH  18  19
ATOM     19  C   UNL     1      34.802 -19.192 -21.339  0.00  0.00    -0.017 C 
BRANCH  19  20
ATOM     20  N   UNL     1      34.882 -19.721 -22.704  0.00  0.00    +0.384 N 
ATOM     21  H   UNL     1      35.753 -19.414 -23.138  0.00  0.00    -0.089 HD
ATOM     22  H   UNL     1      34.092 -19.378 -23.249  0.00  0.00    -0.089 HD
ATOM     23  H   UNL     1      34.859 -20.741 -22.676  0.00  0.00    -0.089 HD
ENDBRANCH  19  20
BRANCH  19  24
ATOM     24  C   UNL     1      35.672 -20.069 -20.406  0.00  0.00    +0.006 C 
BRANCH  24  26
ATOM     25  N   UNL     1      32.937 -22.265 -19.059  0.00  0.00    -0.234 NA
ATOM     26  C   UNL     1      34.944 -21.162 -19.734  0.00  0.00    -0.024 C 
ATOM     27  C   UNL     1      35.260 -22.022 -18.766  0.00  0.00    +0.065 C 
ATOM     28  C   UNL     1      34.096 -22.898 -18.397  0.00  0.00    +0.122 C 
ATOM     29  C   UNL     1      33.494 -21.378 -19.831  0.00  0.00    +0.072 C 
ATOM     30  C   UNL     1      36.451 -22.101 -17.960  0.00  0.00    -0.020 C 
ATOM     31  C   UNL     1      33.963 -23.046 -16.908  0.00  0.00    -0.004 C 
ATOM     32  C   UNL     1      36.340 -22.542 -16.693  0.00  0.00    -0.004 C 
ATOM     33  C   UNL     1      35.046 -22.893 -16.123  0.00  0.00    -0.003 C 
ENDBRANCH  24  26
ENDBRANCH  19  24
ENDBRANCH  18  19
ENDBRANCH   1  18
TORSDOF 7
ENDMDL
MODEL 3
REMARK VINA RESULT:     -11.9      3.694     11.046
REMARK  Name = 49866474
REMARK  7 active torsions:
REMARK  status: ('A' for Active; 'I' for Inactive)
REMARK    1  A    between atoms: O_1  and  C_3
REMARK    2  A    between atoms: O_1  and  C_18
REMARK    3  A    between atoms: C_4  and  C_10
REMARK    4  A    between atoms: C_18  and  C_19
REMARK    5  A    between atoms: C_19  and  N_20
REMARK    6  A    between atoms: C_19  and  C_24
REMARK    7  A    between atoms: C_24  and  C_26
REMARK                            x       y       z     vdW  Elec       q    Type
REMARK                         _______ _______ _______ _____ _____    ______ ____
ROOT
ATOM      1  O   UNL     1      34.476 -21.724 -19.775  0.00  0.00    -0.476 OA
ENDROOT
BRANCH   1   3
ATOM      2  N   UNL     1      37.348 -19.497 -20.201  0.00  0.00    -0.239 NA
ATOM      3  C   UNL     1      35.238 -20.679 -20.228  0.00  0.00    +0.158 C 
ATOM      4  C   UNL     1      35.526 -18.712 -21.583  0.00  0.00    +0.022 C 
ATOM      5  C   UNL     1      34.728 -19.762 -21.140  0.00  0.00    +0.040 C 
ATOM      6  C   UNL     1      36.542 -20.503 -19.793  0.00  0.00    +0.136 C 
ATOM      7  C   UNL     1      36.817 -18.625 -21.088  0.00  0.00    +0.099 C 
BRANCH   4  10
ATOM      8  N   UNL     1      33.644 -14.794 -25.016  0.00  0.00    -0.236 N 
ATOM      9  N   UNL     1      33.753 -13.659 -24.305  0.00  0.00    -0.180 NA
ATOM     10  C   UNL     1      35.024 -17.744 -22.530  0.00  0.00    +0.002 C 
ATOM     11  C   UNL     1      34.476 -15.467 -23.102  0.00  0.00    +0.035 C 
ATOM     12  C   UNL     1      34.968 -16.392 -22.168  0.00  0.00    +0.003 C 
ATOM     13  C   UNL     1      34.060 -15.915 -24.351  0.00  0.00    +0.067 C 
ATOM     14  C   UNL     1      34.601 -18.167 -23.791  0.00  0.00    +0.001 C 
ATOM     15  C   UNL     1      34.108 -17.258 -24.732  0.00  0.00    +0.016 C 
ATOM     16  C   UNL     1      34.260 -14.072 -23.142  0.00  0.00    +0.119 C 
ATOM     17  H   UNL     1      33.294 -14.817 -25.936  0.00  0.00    +0.174 HD
ENDBRANCH   4  10
ENDBRANCH   1   3
BRANCH   1  18
ATOM     18  C   UNL     1      34.908 -22.362 -18.580  0.00  0.00    +0.184 C 
BRANCH  18  19
ATOM     19  C   UNL     1      33.736 -22.523 -17.605  0.00  0.00    -0.017 C 
BRANCH  19  20
ATOM     20  N   UNL     1      32.487 -22.417 -18.367  0.00  0.00    +0.384 N 
ATOM     21  H   UNL     1      31.901 -23.230 -18.174  0.00  0.00    -0.089 HD
ATOM     22  H   UNL     1      32.699 -22.379 -19.363  0.00  0.00    -0.089 HD
ATOM     23  H   UNL     1      31.992 -21.569 -18.092  0.00  0.00    -0.089 HD
ENDBRANCH  19  20
BRANCH  19  24
ATOM     24  C   UNL     1      33.754 -23.874 -16.850  0.00  0.00    +0.006 C 
BRANCH  24  26
ATOM     25  N   UNL     1      33.192 -24.153 -13.146  0.00  0.00    -0.234 NA
ATOM     26  C   UNL     1      33.135 -23.839 -15.512  0.00  0.00    -0.024 C 
ATOM     27  C   UNL     1      31.875 -23.877 -15.077  0.00  0.00    +0.065 C 
ATOM     28  C   UNL     1      31.804 -23.889 -13.576  0.00  0.00    +0.122 C 
ATOM     29  C   UNL     1      33.866 -24.030 -14.252  0.00  0.00    +0.072 C 
ATOM     30  C   UNL     1      30.653 -24.067 -15.816  0.00  0.00    -0.020 C 
ATOM     31  C   UNL     1      30.794 -24.883 -13.076  0.00  0.00    -0.004 C 
ATOM     32  C   UNL     1      29.633 -24.708 -15.215  0.00  0.00    -0.004 C 
ATOM     33  C   UNL     1      29.762 -25.239 -13.864  0.00  0.00    -0.003 C 
ENDBRANCH  24  26
ENDBRANCH  19  24
ENDBRANCH  18  19
ENDBRANCH   1  18
TORSDOF 7
ENDMDL
MODEL 4
REMARK VINA RESULT:     -11.9      1.857      2.573
REMARK  Name = 49866474
REMARK  7 active torsions:
REMARK  status: ('A' for Active; 'I' for Inactive)
REMARK    1  A    between atoms: O_1  and  C_3
REMARK    2  A    between atoms: O_1  and  C_18
REMARK    3  A    between atoms: C_4  and  C_10
REMARK    4  A    between atoms: C_18  and  C_19
REMARK    5  A    between atoms: C_19  and  N_20
REMARK    6  A    between atoms: C_19  and  C_24
REMARK    7  A    between atoms: C_24  and  C_26
REMARK                            x       y       z     vdW  Elec       q    Type
REMARK                         _______ _______ _______ _____ _____    ______ ____
ROOT
ATOM      1  O   UNL     1      34.485 -14.275 -23.237  0.00  0.00    -0.476 OA
ENDROOT
BRANCH   1   3
ATOM      2  N   UNL     1      34.008 -17.487 -24.923  0.00  0.00    -0.239 NA
ATOM      3  C   UNL     1      34.486 -15.628 -23.451  0.00  0.00    +0.158 C 
ATOM      4  C   UNL     1      34.930 -17.877 -22.722  0.00  0.00    +0.022 C 
ATOM      5  C   UNL     1      34.940 -16.508 -22.476  0.00  0.00    +0.040 C 
ATOM      6  C   UNL     1      34.034 -16.164 -24.647  0.00  0.00    +0.136 C 
ATOM      7  C   UNL     1      34.459 -18.311 -23.950  0.00  0.00    +0.099 C 
BRANCH   4  10
ATOM      8  N   UNL     1      36.452 -21.589 -18.903  0.00  0.00    -0.236 N 
ATOM      9  N   UNL     1      35.334 -22.300 -18.677  0.00  0.00    -0.180 NA
ATOM     10  C   UNL     1      35.396 -18.816 -21.729  0.00  0.00    +0.002 C 
ATOM     11  C   UNL     1      34.981 -20.669 -20.243  0.00  0.00    +0.035 C 
ATOM     12  C   UNL     1      34.507 -19.766 -21.209  0.00  0.00    +0.003 C 
ATOM     13  C   UNL     1      36.307 -20.595 -19.832  0.00  0.00    +0.067 C 
ATOM     14  C   UNL     1      36.723 -18.764 -21.299  0.00  0.00    +0.001 C 
ATOM     15  C   UNL     1      37.208 -19.656 -20.337  0.00  0.00    +0.016 C 
ATOM     16  C   UNL     1      34.442 -21.737 -19.494  0.00  0.00    +0.119 C 
ATOM     17  H   UNL     1      37.302 -21.768 -18.441  0.00  0.00    +0.174 HD
ENDBRANCH   4  10
ENDBRANCH   1   3
BRANCH   1  18
ATOM     18  C   UNL     1      33.690 -13.487 -24.113  0.00  0.00    +0.184 C 
BRANCH  18  19
ATOM     19  C   UNL     1      33.103 -12.283 -23.366  0.00  0.00    -0.017 C 
BRANCH  19  20
ATOM     20  N   UNL     1      32.797 -12.699 -21.994  0.00  0.00    +0.384 N 
ATOM     21  H   UNL     1      31.927 -13.233 -21.986  0.00  0.00    -0.089 HD
ATOM     22  H   UNL     1      32.695 -11.874 -21.404  0.00  0.00    -0.089 HD
ATOM     23  H   UNL     1      33.556 -13.280 -21.638  0.00  0.00    -0.089 HD
ENDBRANCH  19  20
BRANCH  19  24
ATOM     24  C   UNL     1      34.060 -11.067 -23.324  0.00  0.00    +0.006 C 
BRANCH  24  26
ATOM     25  N   UNL     1      31.486  -8.331 -23.306  0.00  0.00    -0.234 NA
ATOM     26  C   UNL     1      33.391  -9.763 -23.164  0.00  0.00    -0.024 C 
ATOM     27  C   UNL     1      33.826  -8.504 -23.113  0.00  0.00    +0.065 C 
ATOM     28  C   UNL     1      32.689  -7.526 -23.012  0.00  0.00    +0.122 C 
ATOM     29  C   UNL     1      31.944  -9.550 -23.295  0.00  0.00    +0.072 C 
ATOM     30  C   UNL     1      35.155  -7.982 -23.301  0.00  0.00    -0.020 C 
ATOM     31  C   UNL     1      32.890  -6.345 -23.921  0.00  0.00    -0.004 C 
ATOM     32  C   UNL     1      35.293  -6.760 -23.850  0.00  0.00    -0.004 C 
ATOM     33  C   UNL     1      34.136  -5.990 -24.286  0.00  0.00    -0.003 C 
ENDBRANCH  24  26
ENDBRANCH  19  24
ENDBRANCH  18  19
ENDBRANCH   1  18
TORSDOF 7
ENDMDL
MODEL 5
REMARK VINA RESULT:     -11.7      5.470     11.086
REMARK  Name = 49866474
REMARK  7 active torsions:
REMARK  status: ('A' for Active; 'I' for Inactive)
REMARK    1  A    between atoms: O_1  and  C_3
REMARK    2  A    between atoms: O_1  and  C_18
REMARK    3  A    between atoms: C_4  and  C_10
REMARK    4  A    between atoms: C_18  and  C_19
REMARK    5  A    between atoms: C_19  and  N_20
REMARK    6  A    between atoms: C_19  and  C_24
REMARK    7  A    between atoms: C_24  and  C_26
REMARK                            x       y       z     vdW  Elec       q    Type
REMARK                         _______ _______ _______ _____ _____    ______ ____
ROOT
ATOM      1  O   UNL     1      36.039 -22.749 -17.963  0.00  0.00    -0.476 OA
ENDROOT
BRANCH   1   3
ATOM      2  N   UNL     1      32.718 -21.987 -19.296  0.00  0.00    -0.239 NA
ATOM      3  C   UNL     1      35.057 -22.144 -18.702  0.00  0.00    +0.158 C 
ATOM      4  C   UNL     1      34.339 -20.513 -20.319  0.00  0.00    +0.022 C 
ATOM      5  C   UNL     1      35.357 -21.110 -19.582  0.00  0.00    +0.040 C 
ATOM      6  C   UNL     1      33.734 -22.542 -18.597  0.00  0.00    +0.136 C 
ATOM      7  C   UNL     1      33.049 -20.984 -20.141  0.00  0.00    +0.099 C 
BRANCH   4  10
ATOM      8  N   UNL     1      35.259 -16.527 -24.052  0.00  0.00    -0.236 N 
ATOM      9  N   UNL     1      34.594 -16.943 -25.143  0.00  0.00    -0.180 NA
ATOM     10  C   UNL     1      34.619 -19.437 -21.240  0.00  0.00    +0.002 C 
ATOM     11  C   UNL     1      34.377 -18.431 -23.418  0.00  0.00    +0.035 C 
ATOM     12  C   UNL     1      34.091 -19.487 -22.537  0.00  0.00    +0.003 C 
ATOM     13  C   UNL     1      35.170 -17.375 -22.982  0.00  0.00    +0.067 C 
ATOM     14  C   UNL     1      35.412 -18.365 -20.829  0.00  0.00    +0.001 C 
ATOM     15  C   UNL     1      35.705 -17.307 -21.695  0.00  0.00    +0.016 C 
ATOM     16  C   UNL     1      34.059 -18.101 -24.753  0.00  0.00    +0.119 C 
ATOM     17  H   UNL     1      35.768 -15.684 -24.025  0.00  0.00    +0.174 HD
ENDBRANCH   4  10
ENDBRANCH   1   3
BRANCH   1  18
ATOM     18  C   UNL     1      36.312 -22.195 -16.683  0.00  0.00    +0.184 C 
BRANCH  18  19
ATOM     19  C   UNL     1      36.094 -23.244 -15.586  0.00  0.00    -0.017 C 
BRANCH  19  20
ATOM     20  N   UNL     1      35.935 -22.545 -14.307  0.00  0.00    +0.384 N 
ATOM     21  H   UNL     1      36.493 -21.691 -14.315  0.00  0.00    -0.089 HD
ATOM     22  H   UNL     1      36.248 -23.149 -13.549  0.00  0.00    -0.089 HD
ATOM     23  H   UNL     1      34.953 -22.307 -14.170  0.00  0.00    -0.089 HD
ENDBRANCH  19  20
BRANCH  19  24
ATOM     24  C   UNL     1      34.851 -24.133 -15.834  0.00  0.00    +0.006 C 
BRANCH  24  26
ATOM     25  N   UNL     1      32.889 -24.765 -12.692  0.00  0.00    -0.234 NA
ATOM     26  C   UNL     1      33.827 -24.067 -14.774  0.00  0.00    -0.024 C 
ATOM     27  C   UNL     1      32.561 -23.650 -14.739  0.00  0.00    +0.065 C 
ATOM     28  C   UNL     1      31.935 -23.880 -13.392  0.00  0.00    +0.122 C 
ATOM     29  C   UNL     1      33.927 -24.751 -13.478  0.00  0.00    +0.072 C 
ATOM     30  C   UNL     1      31.715 -23.188 -15.810  0.00  0.00    -0.020 C 
ATOM     31  C   UNL     1      30.543 -24.433 -13.514  0.00  0.00    -0.004 C 
ATOM     32  C   UNL     1      30.394 -23.438 -15.737  0.00  0.00    -0.004 C 
ATOM     33  C   UNL     1      29.826 -24.191 -14.627  0.00  0.00    -0.003 C 
ENDBRANCH  24  26
ENDBRANCH  19  24
ENDBRANCH  18  19
ENDBRANCH   1  18
TORSDOF 7
ENDMDL
MODEL 6
REMARK VINA RESULT:     -11.7      5.510     12.136
REMARK  Name = 49866474
REMARK  7 active torsions:
REMARK  status: ('A' for Active; 'I' for Inactive)
REMARK    1  A    between atoms: O_1  and  C_3
REMARK    2  A    between atoms: O_1  and  C_18
REMARK    3  A    between atoms: C_4  and  C_10
REMARK    4  A    between atoms: C_18  and  C_19
REMARK    5  A    between atoms: C_19  and  N_20
REMARK    6  A    between atoms: C_19  and  C_24
REMARK    7  A    between atoms: C_24  and  C_26
REMARK                            x       y       z     vdW  Elec       q    Type
REMARK                         _______ _______ _______ _____ _____    ______ ____
ROOT
ATOM      1  O   UNL     1      36.129 -22.781 -17.899  0.00  0.00    -0.476 OA
ENDROOT
BRANCH   1   3
ATOM      2  N   UNL     1      32.777 -22.036 -19.160  0.00  0.00    -0.239 NA
ATOM      3  C   UNL     1      35.130 -22.186 -18.623  0.00  0.00    +0.158 C 
ATOM      4  C   UNL     1      34.372 -20.578 -20.244  0.00  0.00    +0.022 C 
ATOM      5  C   UNL     1      35.408 -21.164 -19.524  0.00  0.00    +0.040 C 
ATOM      6  C   UNL     1      33.809 -22.582 -18.479  0.00  0.00    +0.136 C 
ATOM      7  C   UNL     1      33.086 -21.046 -20.027  0.00  0.00    +0.099 C 
BRANCH   4  10
ATOM      8  N   UNL     1      35.205 -16.649 -24.058  0.00  0.00    -0.236 N 
ATOM      9  N   UNL     1      34.543 -17.098 -25.137  0.00  0.00    -0.180 NA
ATOM     10  C   UNL     1      34.629 -19.515 -21.187  0.00  0.00    +0.002 C 
ATOM     11  C   UNL     1      34.360 -18.556 -23.383  0.00  0.00    +0.035 C 
ATOM     12  C   UNL     1      34.096 -19.599 -22.481  0.00  0.00    +0.003 C 
ATOM     13  C   UNL     1      35.135 -17.478 -22.971  0.00  0.00    +0.067 C 
ATOM     14  C   UNL     1      35.404 -18.422 -20.800  0.00  0.00    +0.001 C 
ATOM     15  C   UNL     1      35.675 -17.375 -21.687  0.00  0.00    +0.016 C 
ATOM     16  C   UNL     1      34.030 -18.258 -24.722  0.00  0.00    +0.119 C 
ATOM     17  H   UNL     1      35.699 -15.797 -24.049  0.00  0.00    +0.174 HD
ENDBRANCH   4  10
ENDBRANCH   1   3
BRANCH   1  18
ATOM     18  C   UNL     1      36.789 -21.974 -16.932  0.00  0.00    +0.184 C 
BRANCH  18  19
ATOM     19  C   UNL     1      36.780 -22.663 -15.563  0.00  0.00    -0.017 C 
BRANCH  19  20
ATOM     20  N   UNL     1      35.530 -23.419 -15.438  0.00  0.00    +0.384 N 
ATOM     21  H   UNL     1      35.656 -24.177 -14.767  0.00  0.00    -0.089 HD
ATOM     22  H   UNL     1      35.274 -23.806 -16.345  0.00  0.00    -0.089 HD
ATOM     23  H   UNL     1      34.789 -22.798 -15.112  0.00  0.00    -0.089 HD
ENDBRANCH  19  20
BRANCH  19  24
ATOM     24  C   UNL     1      37.975 -23.627 -15.358  0.00  0.00    +0.006 C 
BRANCH  24  26
ATOM     25  N   UNL     1      37.208 -26.713 -13.359  0.00  0.00    -0.234 NA
ATOM     26  C   UNL     1      37.812 -24.581 -14.245  0.00  0.00    -0.024 C 
ATOM     27  C   UNL     1      37.657 -24.443 -12.928  0.00  0.00    +0.065 C 
ATOM     28  C   UNL     1      37.454 -25.769 -12.250  0.00  0.00    +0.122 C 
ATOM     29  C   UNL     1      37.501 -26.007 -14.412  0.00  0.00    +0.072 C 
ATOM     30  C   UNL     1      37.501 -23.247 -12.141  0.00  0.00    -0.020 C 
ATOM     31  C   UNL     1      36.357 -25.706 -11.225  0.00  0.00    -0.004 C 
ATOM     32  C   UNL     1      36.740 -23.304 -11.031  0.00  0.00    -0.004 C 
ATOM     33  C   UNL     1      36.052 -24.529 -10.647  0.00  0.00    -0.003 C 
ENDBRANCH  24  26
ENDBRANCH  19  24
ENDBRANCH  18  19
ENDBRANCH   1  18
TORSDOF 7
ENDMDL
MODEL 7
REMARK VINA RESULT:     -11.5      3.167     11.388
REMARK  Name = 49866474
REMARK  7 active torsions:
REMARK  status: ('A' for Active; 'I' for Inactive)
REMARK    1  A    between atoms: O_1  and  C_3
REMARK    2  A    between atoms: O_1  and  C_18
REMARK    3  A    between atoms: C_4  and  C_10
REMARK    4  A    between atoms: C_18  and  C_19
REMARK    5  A    between atoms: C_19  and  N_20
REMARK    6  A    between atoms: C_19  and  C_24
REMARK    7  A    between atoms: C_24  and  C_26
REMARK                            x       y       z     vdW  Elec       q    Type
REMARK                         _______ _______ _______ _____ _____    ______ ____
ROOT
ATOM      1  O   UNL     1      31.529 -12.426 -20.945  0.00  0.00    -0.476 OA
ENDROOT
BRANCH   1   3
ATOM      2  N   UNL     1      32.117  -9.670 -18.612  0.00  0.00    -0.239 NA
ATOM      3  C   UNL     1      31.669 -11.147 -20.473  0.00  0.00    +0.158 C 
ATOM      4  C   UNL     1      31.668  -8.765 -20.808  0.00  0.00    +0.022 C 
ATOM      5  C   UNL     1      31.519 -10.051 -21.316  0.00  0.00    +0.040 C 
ATOM      6  C   UNL     1      31.965 -10.904 -19.141  0.00  0.00    +0.136 C 
ATOM      7  C   UNL     1      31.964  -8.629 -19.462  0.00  0.00    +0.099 C 
BRANCH   4  10
ATOM      8  N   UNL     1      31.088  -4.160 -23.832  0.00  0.00    -0.236 N 
ATOM      9  N   UNL     1      31.051  -3.175 -22.919  0.00  0.00    -0.180 NA
ATOM     10  C   UNL     1      31.518  -7.607 -21.659  0.00  0.00    +0.002 C 
ATOM     11  C   UNL     1      31.290  -5.221 -21.924  0.00  0.00    +0.035 C 
ATOM     12  C   UNL     1      31.437  -6.334 -21.079  0.00  0.00    +0.003 C 
ATOM     13  C   UNL     1      31.230  -5.413 -23.300  0.00  0.00    +0.067 C 
ATOM     14  C   UNL     1      31.455  -7.771 -23.043  0.00  0.00    +0.001 C 
ATOM     15  C   UNL     1      31.309  -6.673 -23.897  0.00  0.00    +0.016 C 
ATOM     16  C   UNL     1      31.174  -3.824 -21.761  0.00  0.00    +0.119 C 
ATOM     17  H   UNL     1      31.020  -3.996 -24.800  0.00  0.00    +0.174 HD
ENDBRANCH   4  10
ENDBRANCH   1   3
BRANCH   1  18
ATOM     18  C   UNL     1      32.685 -13.252 -20.910  0.00  0.00    +0.184 C 
BRANCH  18  19
ATOM     19  C   UNL     1      33.094 -13.663 -22.329  0.00  0.00    -0.017 C 
BRANCH  19  20
ATOM     20  N   UNL     1      33.212 -12.449 -23.142  0.00  0.00    +0.384 N 
ATOM     21  H   UNL     1      32.898 -12.644 -24.093  0.00  0.00    -0.089 HD
ATOM     22  H   UNL     1      34.184 -12.145 -23.160  0.00  0.00    -0.089 HD
ATOM     23  H   UNL     1      32.633 -11.712 -22.739  0.00  0.00    -0.089 HD
ENDBRANCH  19  20
BRANCH  19  24
ATOM     24  C   UNL     1      34.435 -14.435 -22.377  0.00  0.00    +0.006 C 
BRANCH  24  26
ATOM     25  N   UNL     1      33.660 -16.738 -25.242  0.00  0.00    -0.234 NA
ATOM     26  C   UNL     1      34.458 -15.569 -23.320  0.00  0.00    -0.024 C 
ATOM     27  C   UNL     1      34.893 -16.826 -23.239  0.00  0.00    +0.065 C 
ATOM     28  C   UNL     1      34.598 -17.600 -24.493  0.00  0.00    +0.122 C 
ATOM     29  C   UNL     1      33.701 -15.620 -24.578  0.00  0.00    +0.072 C 
ATOM     30  C   UNL     1      35.427 -17.544 -22.110  0.00  0.00    -0.020 C 
ATOM     31  C   UNL     1      34.075 -18.975 -24.188  0.00  0.00    -0.004 C 
ATOM     32  C   UNL     1      35.196 -18.867 -22.023  0.00  0.00    -0.004 C 
ATOM     33  C   UNL     1      34.391 -19.563 -23.018  0.00  0.00    -0.003 C 
ENDBRANCH  24  26
ENDBRANCH  19  24
ENDBRANCH  18  19
ENDBRANCH   1  18
TORSDOF 7
ENDMDL
MODEL 8
REMARK VINA RESULT:     -11.5      1.515      2.083
REMARK  Name = 49866474
REMARK  7 active torsions:
REMARK  status: ('A' for Active; 'I' for Inactive)
REMARK    1  A    between atoms: O_1  and  C_3
REMARK    2  A    between atoms: O_1  and  C_18
REMARK    3  A    between atoms: C_4  and  C_10
REMARK    4  A    between atoms: C_18  and  C_19
REMARK    5  A    between atoms: C_19  and  N_20
REMARK    6  A    between atoms: C_19  and  C_24
REMARK    7  A    between atoms: C_24  and  C_26
REMARK                            x       y       z     vdW  Elec       q    Type
REMARK                         _______ _______ _______ _____ _____    ______ ____
ROOT
ATOM      1  O   UNL     1      34.374 -13.866 -22.002  0.00  0.00    -0.476 OA
ENDROOT
BRANCH   1   3
ATOM      2  N   UNL     1      34.415 -16.604 -24.429  0.00  0.00    -0.239 NA
ATOM      3  C   UNL     1      34.516 -15.129 -22.515  0.00  0.00    +0.158 C 
ATOM      4  C   UNL     1      35.029 -17.464 -22.254  0.00  0.00    +0.022 C 
ATOM      5  C   UNL     1      34.891 -16.194 -21.704  0.00  0.00    +0.040 C 
ATOM      6  C   UNL     1      34.292 -15.384 -23.859  0.00  0.00    +0.136 C 
ATOM      7  C   UNL     1      34.782 -17.615 -23.608  0.00  0.00    +0.099 C 
BRANCH   4  10
ATOM      8  N   UNL     1      36.240 -21.860 -19.110  0.00  0.00    -0.236 N 
ATOM      9  N   UNL     1      35.050 -22.450 -18.903  0.00  0.00    -0.180 NA
ATOM     10  C   UNL     1      35.417 -18.590 -21.437  0.00  0.00    +0.002 C 
ATOM     11  C   UNL     1      34.836 -20.575 -20.197  0.00  0.00    +0.035 C 
ATOM     12  C   UNL     1      34.437 -19.487 -20.991  0.00  0.00    +0.003 C 
ATOM     13  C   UNL     1      36.180 -20.730 -19.878  0.00  0.00    +0.067 C 
ATOM     14  C   UNL     1      36.759 -18.770 -21.103  0.00  0.00    +0.001 C 
ATOM     15  C   UNL     1      37.172 -19.848 -20.312  0.00  0.00    +0.016 C 
ATOM     16  C   UNL     1      34.199 -21.665 -19.566  0.00  0.00    +0.119 C 
ATOM     17  H   UNL     1      37.082 -22.212 -18.740  0.00  0.00    +0.174 HD
ENDBRANCH   4  10
ENDBRANCH   1   3
BRANCH   1  18
ATOM     18  C   UNL     1      33.218 -13.139 -22.398  0.00  0.00    +0.184 C 
BRANCH  18  19
ATOM     19  C   UNL     1      32.098 -13.308 -21.365  0.00  0.00    -0.017 C 
BRANCH  19  20
ATOM     20  N   UNL     1      32.713 -13.458 -20.042  0.00  0.00    +0.384 N 
ATOM     21  H   UNL     1      33.653 -13.063 -20.058  0.00  0.00    -0.089 HD
ATOM     22  H   UNL     1      32.762 -14.446 -19.800  0.00  0.00    -0.089 HD
ATOM     23  H   UNL     1      32.149 -12.965 -19.349  0.00  0.00    -0.089 HD
ENDBRANCH  19  20
BRANCH  19  24
ATOM     24  C   UNL     1      31.114 -12.113 -21.333  0.00  0.00    +0.006 C 
BRANCH  24  26
ATOM     25  N   UNL     1      31.919  -9.429 -18.831  0.00  0.00    -0.234 NA
ATOM     26  C   UNL     1      31.648 -10.895 -20.695  0.00  0.00    -0.024 C 
ATOM     27  C   UNL     1      32.071  -9.720 -21.162  0.00  0.00    +0.065 C 
ATOM     28  C   UNL     1      32.447  -8.782 -20.049  0.00  0.00    +0.122 C 
ATOM     29  C   UNL     1      31.573 -10.609 -19.256  0.00  0.00    +0.072 C 
ATOM     30  C   UNL     1      32.056  -9.205 -22.507  0.00  0.00    -0.020 C 
ATOM     31  C   UNL     1      31.929  -7.393 -20.295  0.00  0.00    -0.004 C 
ATOM     32  C   UNL     1      31.894  -7.881 -22.686  0.00  0.00    -0.004 C 
ATOM     33  C   UNL     1      31.695  -6.983 -21.556  0.00  0.00    -0.003 C 
ENDBRANCH  24  26
ENDBRANCH  19  24
ENDBRANCH  18  19
ENDBRANCH   1  18
TORSDOF 7
ENDMDL
MODEL 9
REMARK VINA RESULT:     -11.5      3.950      7.289
REMARK  Name = 49866474
REMARK  7 active torsions:
REMARK  status: ('A' for Active; 'I' for Inactive)
REMARK    1  A    between atoms: O_1  and  C_3
REMARK    2  A    between atoms: O_1  and  C_18
REMARK    3  A    between atoms: C_4  and  C_10
REMARK    4  A    between atoms: C_18  and  C_19
REMARK    5  A    between atoms: C_19  and  N_20
REMARK    6  A    between atoms: C_19  and  C_24
REMARK    7  A    between atoms: C_24  and  C_26
REMARK                            x       y       z     vdW  Elec       q    Type
REMARK                         _______ _______ _______ _____ _____    ______ ____
ROOT
ATOM      1  O   UNL     1      35.855 -21.170 -19.574  0.00  0.00    -0.476 OA
ENDROOT
BRANCH   1   3
ATOM      2  N   UNL     1      32.692 -22.621 -18.443  0.00  0.00    -0.239 NA
ATOM      3  C   UNL     1      34.956 -21.845 -18.790  0.00  0.00    +0.158 C 
ATOM      4  C   UNL     1      34.413 -23.107 -16.815  0.00  0.00    +0.022 C 
ATOM      5  C   UNL     1      35.347 -22.427 -17.589  0.00  0.00    +0.040 C 
ATOM      6  C   UNL     1      33.628 -21.969 -19.168  0.00  0.00    +0.136 C 
ATOM      7  C   UNL     1      33.110 -23.175 -17.282  0.00  0.00    +0.099 C 
BRANCH   4  10
ATOM      8  N   UNL     1      36.131 -25.456 -12.102  0.00  0.00    -0.236 N 
ATOM      9  N   UNL     1      37.467 -25.504 -12.232  0.00  0.00    -0.180 NA
ATOM     10  C   UNL     1      34.789 -23.723 -15.564  0.00  0.00    +0.002 C 
ATOM     11  C   UNL     1      36.487 -24.561 -14.072  0.00  0.00    +0.035 C 
ATOM     12  C   UNL     1      36.143 -23.960 -15.294  0.00  0.00    +0.003 C 
ATOM     13  C   UNL     1      35.483 -24.901 -13.172  0.00  0.00    +0.067 C 
ATOM     14  C   UNL     1      33.801 -24.073 -14.643  0.00  0.00    +0.001 C 
ATOM     15  C   UNL     1      34.128 -24.673 -13.423  0.00  0.00    +0.016 C 
ATOM     16  C   UNL     1      37.680 -24.959 -13.431  0.00  0.00    +0.119 C 
ATOM     17  H   UNL     1      35.658 -25.790 -11.306  0.00  0.00    +0.174 HD
ENDBRANCH   4  10
ENDBRANCH   1   3
BRANCH   1  18
ATOM     18  C   UNL     1      35.345 -20.551 -20.747  0.00  0.00    +0.184 C 
BRANCH  18  19
ATOM     19  C   UNL     1      35.840 -19.103 -20.847  0.00  0.00    -0.017 C 
BRANCH  19  20
ATOM     20  N   UNL     1      37.288 -19.097 -20.615  0.00  0.00    +0.384 N 
ATOM     21  H   UNL     1      37.527 -19.819 -19.936  0.00  0.00    -0.089 HD
ATOM     22  H   UNL     1      37.571 -18.185 -20.257  0.00  0.00    -0.089 HD
ATOM     23  H   UNL     1      37.773 -19.283 -21.493  0.00  0.00    -0.089 HD
ENDBRANCH  19  20
BRANCH  19  24
ATOM     24  C   UNL     1      35.546 -18.453 -22.221  0.00  0.00    +0.006 C 
BRANCH  24  26
ATOM     25  N   UNL     1      34.480 -15.056 -21.023  0.00  0.00    -0.234 NA
ATOM     26  C   UNL     1      35.229 -17.014 -22.165  0.00  0.00    -0.024 C 
ATOM     27  C   UNL     1      34.915 -16.103 -23.086  0.00  0.00    +0.065 C 
ATOM     28  C   UNL     1      34.605 -14.769 -22.467  0.00  0.00    +0.122 C 
ATOM     29  C   UNL     1      34.915 -16.280 -20.932  0.00  0.00    +0.072 C 
ATOM     30  C   UNL     1      34.685 -16.264 -24.499  0.00  0.00    -0.020 C 
ATOM     31  C   UNL     1      33.391 -14.137 -23.086  0.00  0.00    -0.004 C 
ATOM     32  C   UNL     1      33.792 -15.456 -25.100  0.00  0.00    -0.004 C 
ATOM     33  C   UNL     1      33.039 -14.464 -24.344  0.00  0.00    -0.003 C 
ENDBRANCH  24  26
ENDBRANCH  19  24
ENDBRANCH  18  19
ENDBRANCH   1  18
TORSDOF 7
ENDMDL
