MODEL 1
REMARK VINA RESULT:     -11.7      0.000      0.000
REMARK  Name = 10274777
REMARK  10 active torsions:
REMARK  status: ('A' for Active; 'I' for Inactive)
REMARK    1  A    between atoms: C_2  and  C_25
REMARK    2  A    between atoms: C_5  and  O_10
REMARK    3  A    between atoms: O_10  and  C_11
REMARK    4  A    between atoms: C_11  and  C_12
REMARK    5  A    between atoms: C_12  and  C_15
REMARK    6  A    between atoms: C_17  and  C_19
REMARK    7  A    between atoms: C_25  and  C_26
REMARK    8  A    between atoms: C_26  and  O_27
REMARK    9  A    between atoms: C_26  and  C_30
REMARK   10  A    between atoms: C_30  and  O_31
REMARK                            x       y       z     vdW  Elec       q    Type
REMARK                         _______ _______ _______ _____ _____    ______ ____
ROOT
ATOM      1  S   UNL     1      31.989 -24.314 -13.836  0.00  0.00    -0.087 S 
ATOM      2  C   UNL     1      34.781 -24.158 -13.573  0.00  0.00    -0.013 C 
ATOM      3  C   UNL     1      33.608 -23.996 -14.336  0.00  0.00    +0.029 C 
ATOM      4  C   UNL     1      33.652 -23.533 -15.655  0.00  0.00    +0.040 C 
ATOM      5  C   UNL     1      34.916 -23.225 -16.214  0.00  0.00    +0.139 C 
ATOM      6  C   UNL     1      36.012 -23.846 -14.154  0.00  0.00    -0.001 C 
ATOM      7  C   UNL     1      36.081 -23.385 -15.460  0.00  0.00    +0.037 C 
ATOM      8  C   UNL     1      32.335 -23.453 -16.221  0.00  0.00    +0.010 C 
ATOM      9  C   UNL     1      31.351 -23.846 -15.346  0.00  0.00    +0.036 C 
ENDROOT
BRANCH   5  10
ATOM     10  O   UNL     1      35.025 -22.766 -17.503  0.00  0.00    -0.475 OA
BRANCH  10  11
ATOM     11  C   UNL     1      36.125 -21.911 -17.784  0.00  0.00    +0.213 C 
BRANCH  11  12
ATOM     12  C   UNL     1      36.369 -21.863 -19.290  0.00  0.00    +0.105 C 
BRANCH  12  15
ATOM     13  O   UNL     1      33.819 -19.725 -20.791  0.00  0.00    -0.449 OA
ATOM     14  N   UNL     1      36.075 -19.826 -20.659  0.00  0.00    -0.373 NA
ATOM     15  C   UNL     1      35.503 -20.855 -19.989  0.00  0.00    +0.134 C 
ATOM     16  C   UNL     1      34.152 -20.819 -20.051  0.00  0.00    +0.216 C 
ATOM     17  C   UNL     1      35.025 -19.183 -21.118  0.00  0.00    +0.277 C 
ATOM     18  C   UNL     1      33.049 -21.638 -19.537  0.00  0.00    +0.055 C 
BRANCH  17  19
ATOM     19  C   UNL     1      34.963 -17.990 -21.916  0.00  0.00    +0.066 C 
ATOM     20  C   UNL     1      34.954 -16.734 -21.302  0.00  0.00    +0.006 C 
ATOM     21  C   UNL     1      34.908 -18.077 -23.310  0.00  0.00    +0.006 C 
ATOM     22  C   UNL     1      34.893 -15.575 -22.076  0.00  0.00    +0.000 C 
ATOM     23  C   UNL     1      34.847 -16.918 -24.083  0.00  0.00    +0.000 C 
ATOM     24  C   UNL     1      34.840 -15.667 -23.467  0.00  0.00    +0.000 C 
ENDBRANCH  17  19
ENDBRANCH  12  15
ENDBRANCH  11  12
ENDBRANCH  10  11
ENDBRANCH   5  10
BRANCH   2  25
ATOM     25  C   UNL     1      34.765 -24.650 -12.160  0.00  0.00    +0.068 C 
BRANCH  25  26
ATOM     26  C   UNL     1      36.175 -24.772 -11.565  0.00  0.00    +0.218 C 
BRANCH  26  27
ATOM     27  O   UNL     1      36.487 -26.153 -11.418  0.00  0.00    -0.342 OA
ATOM     28  C   UNL     1      37.561 -26.536 -12.265  0.00  0.00    +0.175 C 
ENDBRANCH  26  27
BRANCH  26  30
ATOM     29  O   UNL     1      36.944 -23.178  -9.896  0.00  0.00    -0.248 OA
ATOM     30  C   UNL     1      36.246 -24.140 -10.189  0.00  0.00    +0.342 C 
BRANCH  30  31
ATOM     31  O   UNL     1      35.423 -24.754  -9.300  0.00  0.00    -0.479 OA
ATOM     32  H   UNL     1      35.484 -24.549  -8.387  0.00  0.00    +0.295 HD
ENDBRANCH  30  31
ENDBRANCH  26  30
ENDBRANCH  25  26
ENDBRANCH   2  25
TORSDOF 10
ENDMDL
MODEL 2
REMARK VINA RESULT:     -11.3      3.001      4.770
REMARK  Name = 10274777
REMARK  10 active torsions:
REMARK  status: ('A' for Active; 'I' for Inactive)
REMARK    1  A    between atoms: C_2  and  C_25
REMARK    2  A    between atoms: C_5  and  O_10
REMARK    3  A    between atoms: O_10  and  C_11
REMARK    4  A    between atoms: C_11  and  C_12
REMARK    5  A    between atoms: C_12  and  C_15
REMARK    6  A    between atoms: C_17  and  C_19
REMARK    7  A    between atoms: C_25  and  C_26
REMARK    8  A    between atoms: C_26  and  O_27
REMARK    9  A    between atoms: C_26  and  C_30
REMARK   10  A    between atoms: C_30  and  O_31
REMARK                            x       y       z     vdW  Elec       q    Type
REMARK                         _______ _______ _______ _____ _____    ______ ____
ROOT
ATOM      1  S   UNL     1      35.805 -23.298 -15.050  0.00  0.00    -0.087 S 
ATOM      2  C   UNL     1      33.578 -23.236 -16.759  0.00  0.00    -0.013 C 
ATOM      3  C   UNL     1      34.929 -22.941 -16.491  0.00  0.00    +0.029 C 
ATOM      4  C   UNL     1      35.735 -22.289 -17.428  0.00  0.00    +0.040 C 
ATOM      5  C   UNL     1      35.158 -21.927 -18.669  0.00  0.00    +0.139 C 
ATOM      6  C   UNL     1      33.039 -22.866 -17.993  0.00  0.00    -0.001 C 
ATOM      7  C   UNL     1      33.819 -22.218 -18.940  0.00  0.00    +0.037 C 
ATOM      8  C   UNL     1      37.066 -22.100 -16.926  0.00  0.00    +0.010 C 
ATOM      9  C   UNL     1      37.236 -22.598 -15.657  0.00  0.00    +0.036 C 
ENDROOT
BRANCH   5  10
ATOM     10  O   UNL     1      35.897 -21.284 -19.632  0.00  0.00    -0.475 OA
BRANCH  10  11
ATOM     11  C   UNL     1      35.182 -20.447 -20.531  0.00  0.00    +0.213 C 
BRANCH  11  12
ATOM     12  C   UNL     1      36.105 -19.352 -21.059  0.00  0.00    +0.105 C 
BRANCH  12  15
ATOM     13  O   UNL     1      34.484 -17.801 -23.939  0.00  0.00    -0.449 OA
ATOM     14  N   UNL     1      35.324 -17.175 -21.934  0.00  0.00    -0.373 NA
ATOM     15  C   UNL     1      35.461 -18.510 -22.123  0.00  0.00    +0.134 C 
ATOM     16  C   UNL     1      34.966 -18.913 -23.316  0.00  0.00    +0.216 C 
ATOM     17  C   UNL     1      34.735 -16.802 -23.048  0.00  0.00    +0.277 C 
ATOM     18  C   UNL     1      34.844 -20.186 -24.034  0.00  0.00    +0.055 C 
BRANCH  17  19
ATOM     19  C   UNL     1      34.317 -15.492 -23.464  0.00  0.00    +0.066 C 
ATOM     20  C   UNL     1      34.490 -14.396 -22.613  0.00  0.00    +0.006 C 
ATOM     21  C   UNL     1      33.733 -15.305 -24.720  0.00  0.00    +0.006 C 
ATOM     22  C   UNL     1      34.084 -13.124 -23.016  0.00  0.00    +0.000 C 
ATOM     23  C   UNL     1      33.327 -14.033 -25.122  0.00  0.00    +0.000 C 
ATOM     24  C   UNL     1      33.502 -12.942 -24.271  0.00  0.00    +0.000 C 
ENDBRANCH  17  19
ENDBRANCH  12  15
ENDBRANCH  11  12
ENDBRANCH  10  11
ENDBRANCH   5  10
BRANCH   2  25
ATOM     25  C   UNL     1      32.692 -23.935 -15.776  0.00  0.00    +0.068 C 
BRANCH  25  26
ATOM     26  C   UNL     1      31.513 -23.061 -15.324  0.00  0.00    +0.218 C 
BRANCH  26  27
ATOM     27  O   UNL     1      31.455 -23.080 -13.902  0.00  0.00    -0.342 OA
ATOM     28  C   UNL     1      32.369 -24.020 -13.356  0.00  0.00    +0.175 C 
ENDBRANCH  26  27
BRANCH  26  30
ATOM     29  O   UNL     1      29.723 -24.693 -15.542  0.00  0.00    -0.248 OA
ATOM     30  C   UNL     1      30.197 -23.605 -15.842  0.00  0.00    +0.342 C 
BRANCH  30  31
ATOM     31  O   UNL     1      29.576 -22.733 -16.678  0.00  0.00    -0.479 OA
ATOM     32  H   UNL     1      29.238 -23.033 -17.500  0.00  0.00    +0.295 HD
ENDBRANCH  30  31
ENDBRANCH  26  30
ENDBRANCH  25  26
ENDBRANCH   2  25
TORSDOF 10
ENDMDL
MODEL 3
REMARK VINA RESULT:     -10.9      7.555     11.536
REMARK  Name = 10274777
REMARK  10 active torsions:
REMARK  status: ('A' for Active; 'I' for Inactive)
REMARK    1  A    between atoms: C_2  and  C_25
REMARK    2  A    between atoms: C_5  and  O_10
REMARK    3  A    between atoms: O_10  and  C_11
REMARK    4  A    between atoms: C_11  and  C_12
REMARK    5  A    between atoms: C_12  and  C_15
REMARK    6  A    between atoms: C_17  and  C_19
REMARK    7  A    between atoms: C_25  and  C_26
REMARK    8  A    between atoms: C_26  and  O_27
REMARK    9  A    between atoms: C_26  and  C_30
REMARK   10  A    between atoms: C_30  and  O_31
REMARK                            x       y       z     vdW  Elec       q    Type
REMARK                         _______ _______ _______ _____ _____    ______ ____
ROOT
ATOM      1  S   UNL     1      34.346 -16.229 -24.775  0.00  0.00    -0.087 S 
ATOM      2  C   UNL     1      34.892 -16.313 -22.022  0.00  0.00    -0.013 C 
ATOM      3  C   UNL     1      34.326 -15.675 -23.143  0.00  0.00    +0.029 C 
ATOM      4  C   UNL     1      33.654 -14.454 -23.028  0.00  0.00    +0.040 C 
ATOM      5  C   UNL     1      33.552 -13.865 -21.745  0.00  0.00    +0.139 C 
ATOM      6  C   UNL     1      34.774 -15.706 -20.770  0.00  0.00    -0.001 C 
ATOM      7  C   UNL     1      34.111 -14.495 -20.630  0.00  0.00    +0.037 C 
ATOM      8  C   UNL     1      33.170 -14.006 -24.303  0.00  0.00    +0.010 C 
ATOM      9  C   UNL     1      33.476 -14.871 -25.326  0.00  0.00    +0.036 C 
ENDROOT
BRANCH   5  10
ATOM     10  O   UNL     1      32.904 -12.668 -21.566  0.00  0.00    -0.475 OA
BRANCH  10  11
ATOM     11  C   UNL     1      31.657 -12.713 -20.886  0.00  0.00    +0.213 C 
BRANCH  11  12
ATOM     12  C   UNL     1      30.801 -11.520 -21.300  0.00  0.00    +0.105 C 
BRANCH  12  15
ATOM     13  O   UNL     1      32.613  -8.389 -20.808  0.00  0.00    -0.449 OA
ATOM     14  N   UNL     1      32.009  -9.740 -22.519  0.00  0.00    -0.373 NA
ATOM     15  C   UNL     1      31.573 -10.232 -21.334  0.00  0.00    +0.134 C 
ATOM     16  C   UNL     1      31.922  -9.444 -20.292  0.00  0.00    +0.216 C 
ATOM     17  C   UNL     1      32.623  -8.639 -22.146  0.00  0.00    +0.277 C 
ATOM     18  C   UNL     1      31.732  -9.470 -18.838  0.00  0.00    +0.055 C 
BRANCH  17  19
ATOM     19  C   UNL     1      33.304  -7.659 -22.946  0.00  0.00    +0.066 C 
ATOM     20  C   UNL     1      34.688  -7.740 -23.129  0.00  0.00    +0.006 C 
ATOM     21  C   UNL     1      32.588  -6.619 -23.545  0.00  0.00    +0.006 C 
ATOM     22  C   UNL     1      35.350  -6.789 -23.905  0.00  0.00    +0.000 C 
ATOM     23  C   UNL     1      33.251  -5.668 -24.322  0.00  0.00    +0.000 C 
ATOM     24  C   UNL     1      34.631  -5.752 -24.501  0.00  0.00    +0.000 C 
ENDBRANCH  17  19
ENDBRANCH  12  15
ENDBRANCH  11  12
ENDBRANCH  10  11
ENDBRANCH   5  10
BRANCH   2  25
ATOM     25  C   UNL     1      35.615 -17.619 -22.114  0.00  0.00    +0.068 C 
BRANCH  25  26
ATOM     26  C   UNL     1      35.296 -18.551 -20.936  0.00  0.00    +0.218 C 
BRANCH  26  27
ATOM     27  O   UNL     1      36.522 -19.015 -20.381  0.00  0.00    -0.342 OA
ATOM     28  C   UNL     1      37.574 -18.972 -21.334  0.00  0.00    +0.175 C 
ENDBRANCH  26  27
BRANCH  26  30
ATOM     29  O   UNL     1      33.993 -20.584 -20.648  0.00  0.00    -0.248 OA
ATOM     30  C   UNL     1      34.515 -19.766 -21.394  0.00  0.00    +0.342 C 
BRANCH  30  31
ATOM     31  O   UNL     1      34.438 -19.846 -22.748  0.00  0.00    -0.479 OA
ATOM     32  H   UNL     1      33.654 -19.579 -23.189  0.00  0.00    +0.295 HD
ENDBRANCH  30  31
ENDBRANCH  26  30
ENDBRANCH  25  26
ENDBRANCH   2  25
TORSDOF 10
ENDMDL
MODEL 4
REMARK VINA RESULT:     -10.7      2.091      3.484
REMARK  Name = 10274777
REMARK  10 active torsions:
REMARK  status: ('A' for Active; 'I' for Inactive)
REMARK    1  A    between atoms: C_2  and  C_25
REMARK    2  A    between atoms: C_5  and  O_10
REMARK    3  A    between atoms: O_10  and  C_11
REMARK    4  A    between atoms: C_11  and  C_12
REMARK    5  A    between atoms: C_12  and  C_15
REMARK    6  A    between atoms: C_17  and  C_19
REMARK    7  A    between atoms: C_25  and  C_26
REMARK    8  A    between atoms: C_26  and  O_27
REMARK    9  A    between atoms: C_26  and  C_30
REMARK   10  A    between atoms: C_30  and  O_31
REMARK                            x       y       z     vdW  Elec       q    Type
REMARK                         _______ _______ _______ _____ _____    ______ ____
ROOT
ATOM      1  S   UNL     1      33.512 -23.546 -15.601  0.00  0.00    -0.087 S 
ATOM      2  C   UNL     1      36.168 -22.749 -16.043  0.00  0.00    -0.013 C 
ATOM      3  C   UNL     1      34.844 -22.915 -16.495  0.00  0.00    +0.029 C 
ATOM      4  C   UNL     1      34.464 -22.561 -17.793  0.00  0.00    +0.040 C 
ATOM      5  C   UNL     1      35.450 -22.025 -18.655  0.00  0.00    +0.139 C 
ATOM      6  C   UNL     1      37.117 -22.217 -16.918  0.00  0.00    -0.001 C 
ATOM      7  C   UNL     1      36.764 -21.859 -18.211  0.00  0.00    +0.037 C 
ATOM      8  C   UNL     1      33.071 -22.824 -18.016  0.00  0.00    +0.010 C 
ATOM      9  C   UNL     1      32.443 -23.355 -16.914  0.00  0.00    +0.036 C 
ENDROOT
BRANCH   5  10
ATOM     10  O   UNL     1      35.140 -21.658 -19.941  0.00  0.00    -0.475 OA
BRANCH  10  11
ATOM     11  C   UNL     1      34.836 -20.286 -20.157  0.00  0.00    +0.213 C 
BRANCH  11  12
ATOM     12  C   UNL     1      35.912 -19.652 -21.034  0.00  0.00    +0.105 C 
BRANCH  12  15
ATOM     13  O   UNL     1      34.484 -17.998 -23.958  0.00  0.00    -0.449 OA
ATOM     14  N   UNL     1      35.211 -17.441 -21.890  0.00  0.00    -0.373 NA
ATOM     15  C   UNL     1      35.343 -18.771 -22.109  0.00  0.00    +0.134 C 
ATOM     16  C   UNL     1      34.915 -19.133 -23.340  0.00  0.00    +0.216 C 
ATOM     17  C   UNL     1      34.694 -17.028 -23.025  0.00  0.00    +0.277 C 
ATOM     18  C   UNL     1      34.820 -20.383 -24.101  0.00  0.00    +0.055 C 
BRANCH  17  19
ATOM     19  C   UNL     1      34.317 -15.701 -23.427  0.00  0.00    +0.066 C 
ATOM     20  C   UNL     1      33.740 -15.485 -24.682  0.00  0.00    +0.006 C 
ATOM     21  C   UNL     1      34.526 -14.619 -22.568  0.00  0.00    +0.006 C 
ATOM     22  C   UNL     1      33.374 -14.197 -25.074  0.00  0.00    +0.000 C 
ATOM     23  C   UNL     1      34.160 -13.331 -22.960  0.00  0.00    +0.000 C 
ATOM     24  C   UNL     1      33.584 -13.120 -24.212  0.00  0.00    +0.000 C 
ENDBRANCH  17  19
ENDBRANCH  12  15
ENDBRANCH  11  12
ENDBRANCH  10  11
ENDBRANCH   5  10
BRANCH   2  25
ATOM     25  C   UNL     1      36.603 -23.117 -14.660  0.00  0.00    +0.068 C 
BRANCH  25  26
ATOM     26  C   UNL     1      36.809 -24.629 -14.491  0.00  0.00    +0.218 C 
BRANCH  26  27
ATOM     27  O   UNL     1      36.505 -24.981 -13.147  0.00  0.00    -0.342 OA
ATOM     28  C   UNL     1      35.720 -23.981 -12.512  0.00  0.00    +0.175 C 
ENDBRANCH  26  27
BRANCH  26  30
ATOM     29  O   UNL     1      39.192 -24.237 -14.781  0.00  0.00    -0.248 OA
ATOM     30  C   UNL     1      38.250 -25.019 -14.749  0.00  0.00    +0.342 C 
BRANCH  30  31
ATOM     31  O   UNL     1      38.395 -26.357 -14.928  0.00  0.00    -0.479 OA
ATOM     32  H   UNL     1      38.432 -26.928 -14.185  0.00  0.00    +0.295 HD
ENDBRANCH  30  31
ENDBRANCH  26  30
ENDBRANCH  25  26
ENDBRANCH   2  25
TORSDOF 10
ENDMDL
MODEL 5
REMARK VINA RESULT:     -10.7      2.429      4.084
REMARK  Name = 10274777
REMARK  10 active torsions:
REMARK  status: ('A' for Active; 'I' for Inactive)
REMARK    1  A    between atoms: C_2  and  C_25
REMARK    2  A    between atoms: C_5  and  O_10
REMARK    3  A    between atoms: O_10  and  C_11
REMARK    4  A    between atoms: C_11  and  C_12
REMARK    5  A    between atoms: C_12  and  C_15
REMARK    6  A    between atoms: C_17  and  C_19
REMARK    7  A    between atoms: C_25  and  C_26
REMARK    8  A    between atoms: C_26  and  O_27
REMARK    9  A    between atoms: C_26  and  C_30
REMARK   10  A    between atoms: C_30  and  O_31
REMARK                            x       y       z     vdW  Elec       q    Type
REMARK                         _______ _______ _______ _____ _____    ______ ____
ROOT
ATOM      1  S   UNL     1      34.917 -24.289 -12.427  0.00  0.00    -0.087 S 
ATOM      2  C   UNL     1      33.270 -23.917 -14.671  0.00  0.00    -0.013 C 
ATOM      3  C   UNL     1      34.539 -23.889 -14.061  0.00  0.00    +0.029 C 
ATOM      4  C   UNL     1      35.682 -23.508 -14.769  0.00  0.00    +0.040 C 
ATOM      5  C   UNL     1      35.537 -23.148 -16.130  0.00  0.00    +0.139 C 
ATOM      6  C   UNL     1      33.160 -23.557 -16.015  0.00  0.00    -0.001 C 
ATOM      7  C   UNL     1      34.280 -23.175 -16.740  0.00  0.00    +0.037 C 
ATOM      8  C   UNL     1      36.850 -23.557 -13.935  0.00  0.00    +0.010 C 
ATOM      9  C   UNL     1      36.574 -23.962 -12.651  0.00  0.00    +0.036 C 
ENDROOT
BRANCH   5  10
ATOM     10  O   UNL     1      36.622 -22.765 -16.880  0.00  0.00    -0.475 OA
BRANCH  10  11
ATOM     11  C   UNL     1      36.492 -21.558 -17.620  0.00  0.00    +0.213 C 
BRANCH  11  12
ATOM     12  C   UNL     1      36.399 -21.875 -19.110  0.00  0.00    +0.105 C 
BRANCH  12  15
ATOM     13  O   UNL     1      33.845 -19.842 -20.744  0.00  0.00    -0.449 OA
ATOM     14  N   UNL     1      36.096 -19.871 -20.525  0.00  0.00    -0.373 NA
ATOM     15  C   UNL     1      35.530 -20.906 -19.859  0.00  0.00    +0.134 C 
ATOM     16  C   UNL     1      34.182 -20.913 -19.972  0.00  0.00    +0.216 C 
ATOM     17  C   UNL     1      35.045 -19.268 -21.035  0.00  0.00    +0.277 C 
ATOM     18  C   UNL     1      33.086 -21.756 -19.485  0.00  0.00    +0.055 C 
BRANCH  17  19
ATOM     19  C   UNL     1      34.977 -18.091 -21.856  0.00  0.00    +0.066 C 
ATOM     20  C   UNL     1      34.958 -16.824 -21.267  0.00  0.00    +0.006 C 
ATOM     21  C   UNL     1      34.929 -18.206 -23.248  0.00  0.00    +0.006 C 
ATOM     22  C   UNL     1      34.891 -15.680 -22.062  0.00  0.00    +0.000 C 
ATOM     23  C   UNL     1      34.862 -17.062 -24.044  0.00  0.00    +0.000 C 
ATOM     24  C   UNL     1      34.843 -15.800 -23.452  0.00  0.00    +0.000 C 
ENDBRANCH  17  19
ENDBRANCH  12  15
ENDBRANCH  11  12
ENDBRANCH  10  11
ENDBRANCH   5  10
BRANCH   2  25
ATOM     25  C   UNL     1      32.029 -24.321 -13.939  0.00  0.00    +0.068 C 
BRANCH  25  26
ATOM     26  C   UNL     1      30.784 -24.301 -14.838  0.00  0.00    +0.218 C 
BRANCH  26  27
ATOM     27  O   UNL     1      29.952 -23.220 -14.435  0.00  0.00    -0.342 OA
ATOM     28  C   UNL     1      29.013 -22.881 -15.446  0.00  0.00    +0.175 C 
ENDBRANCH  26  27
BRANCH  26  30
ATOM     29  O   UNL     1      29.860 -26.435 -15.553  0.00  0.00    -0.248 OA
ATOM     30  C   UNL     1      29.980 -25.577 -14.688  0.00  0.00    +0.342 C 
BRANCH  30  31
ATOM     31  O   UNL     1      29.406 -25.680 -13.462  0.00  0.00    -0.479 OA
ATOM     32  H   UNL     1      29.400 -24.941 -12.884  0.00  0.00    +0.295 HD
ENDBRANCH  30  31
ENDBRANCH  26  30
ENDBRANCH  25  26
ENDBRANCH   2  25
TORSDOF 10
ENDMDL
MODEL 6
REMARK VINA RESULT:     -10.6      1.275      2.045
REMARK  Name = 10274777
REMARK  10 active torsions:
REMARK  status: ('A' for Active; 'I' for Inactive)
REMARK    1  A    between atoms: C_2  and  C_25
REMARK    2  A    between atoms: C_5  and  O_10
REMARK    3  A    between atoms: O_10  and  C_11
REMARK    4  A    between atoms: C_11  and  C_12
REMARK    5  A    between atoms: C_12  and  C_15
REMARK    6  A    between atoms: C_17  and  C_19
REMARK    7  A    between atoms: C_25  and  C_26
REMARK    8  A    between atoms: C_26  and  O_27
REMARK    9  A    between atoms: C_26  and  C_30
REMARK   10  A    between atoms: C_30  and  O_31
REMARK                            x       y       z     vdW  Elec       q    Type
REMARK                         _______ _______ _______ _____ _____    ______ ____
ROOT
ATOM      1  S   UNL     1      31.968 -25.093 -13.053  0.00  0.00    -0.087 S 
ATOM      2  C   UNL     1      34.400 -24.174 -14.115  0.00  0.00    -0.013 C 
ATOM      3  C   UNL     1      33.013 -24.391 -14.231  0.00  0.00    +0.029 C 
ATOM      4  C   UNL     1      32.311 -24.035 -15.386  0.00  0.00    +0.040 C 
ATOM      5  C   UNL     1      33.033 -23.443 -16.451  0.00  0.00    +0.139 C 
ATOM      6  C   UNL     1      35.082 -23.588 -15.182  0.00  0.00    -0.001 C 
ATOM      7  C   UNL     1      34.408 -23.226 -16.340  0.00  0.00    +0.037 C 
ATOM      8  C   UNL     1      30.917 -24.354 -15.267  0.00  0.00    +0.010 C 
ATOM      9  C   UNL     1      30.601 -24.929 -14.059  0.00  0.00    +0.036 C 
ENDROOT
BRANCH   5  10
ATOM     10  O   UNL     1      32.401 -23.070 -17.612  0.00  0.00    -0.475 OA
BRANCH  10  11
ATOM     11  C   UNL     1      32.900 -21.910 -18.265  0.00  0.00    +0.213 C 
BRANCH  11  12
ATOM     12  C   UNL     1      33.765 -22.321 -19.454  0.00  0.00    +0.105 C 
BRANCH  12  15
ATOM     13  O   UNL     1      36.038 -19.698 -20.586  0.00  0.00    -0.449 OA
ATOM     14  N   UNL     1      33.904 -20.357 -20.948  0.00  0.00    -0.373 NA
ATOM     15  C   UNL     1      34.517 -21.168 -20.053  0.00  0.00    +0.134 C 
ATOM     16  C   UNL     1      35.797 -20.797 -19.817  0.00  0.00    +0.216 C 
ATOM     17  C   UNL     1      34.857 -19.497 -21.234  0.00  0.00    +0.277 C 
ATOM     18  C   UNL     1      36.899 -21.279 -18.979  0.00  0.00    +0.055 C 
BRANCH  17  19
ATOM     19  C   UNL     1      34.834 -18.375 -22.130  0.00  0.00    +0.066 C 
ATOM     20  C   UNL     1      34.521 -18.560 -23.480  0.00  0.00    +0.006 C 
ATOM     21  C   UNL     1      35.126 -17.092 -21.659  0.00  0.00    +0.006 C 
ATOM     22  C   UNL     1      34.500 -17.472 -24.351  0.00  0.00    +0.000 C 
ATOM     23  C   UNL     1      35.104 -16.003 -22.531  0.00  0.00    +0.000 C 
ATOM     24  C   UNL     1      34.792 -16.193 -23.877  0.00  0.00    +0.000 C 
ENDBRANCH  17  19
ENDBRANCH  12  15
ENDBRANCH  11  12
ENDBRANCH  10  11
ENDBRANCH   5  10
BRANCH   2  25
ATOM     25  C   UNL     1      35.176 -24.544 -12.891  0.00  0.00    +0.068 C 
BRANCH  25  26
ATOM     26  C   UNL     1      36.597 -23.963 -12.899  0.00  0.00    +0.218 C 
BRANCH  26  27
ATOM     27  O   UNL     1      37.474 -24.916 -13.490  0.00  0.00    -0.342 OA
ATOM     28  C   UNL     1      36.984 -26.240 -13.333  0.00  0.00    +0.175 C 
ENDBRANCH  26  27
BRANCH  26  30
ATOM     29  O   UNL     1      37.244 -24.559 -10.632  0.00  0.00    -0.248 OA
ATOM     30  C   UNL     1      37.091 -23.701 -11.490  0.00  0.00    +0.342 C 
BRANCH  30  31
ATOM     31  O   UNL     1      37.370 -22.388 -11.281  0.00  0.00    -0.479 OA
ATOM     32  H   UNL     1      38.006 -21.954 -11.816  0.00  0.00    +0.295 HD
ENDBRANCH  30  31
ENDBRANCH  26  30
ENDBRANCH  25  26
ENDBRANCH   2  25
TORSDOF 10
ENDMDL
MODEL 7
REMARK VINA RESULT:     -10.6      6.137     13.114
REMARK  Name = 10274777
REMARK  10 active torsions:
REMARK  status: ('A' for Active; 'I' for Inactive)
REMARK    1  A    between atoms: C_2  and  C_25
REMARK    2  A    between atoms: C_5  and  O_10
REMARK    3  A    between atoms: O_10  and  C_11
REMARK    4  A    between atoms: C_11  and  C_12
REMARK    5  A    between atoms: C_12  and  C_15
REMARK    6  A    between atoms: C_17  and  C_19
REMARK    7  A    between atoms: C_25  and  C_26
REMARK    8  A    between atoms: C_26  and  O_27
REMARK    9  A    between atoms: C_26  and  C_30
REMARK   10  A    between atoms: C_30  and  O_31
REMARK                            x       y       z     vdW  Elec       q    Type
REMARK                         _______ _______ _______ _____ _____    ______ ____
ROOT
ATOM      1  S   UNL     1      31.645 -10.787 -20.670  0.00  0.00    -0.087 S 
ATOM      2  C   UNL     1      32.816 -10.907 -23.220  0.00  0.00    -0.013 C 
ATOM      3  C   UNL     1      32.418 -11.529 -22.020  0.00  0.00    +0.029 C 
ATOM      4  C   UNL     1      32.628 -12.893 -21.799  0.00  0.00    +0.040 C 
ATOM      5  C   UNL     1      33.257 -13.647 -22.819  0.00  0.00    +0.139 C 
ATOM      6  C   UNL     1      33.433 -11.679 -24.207  0.00  0.00    -0.001 C 
ATOM      7  C   UNL     1      33.652 -13.035 -24.011  0.00  0.00    +0.037 C 
ATOM      8  C   UNL     1      32.141 -13.292 -20.509  0.00  0.00    +0.010 C 
ATOM      9  C   UNL     1      31.588 -12.251 -19.801  0.00  0.00    +0.036 C 
ENDROOT
BRANCH   5  10
ATOM     10  O   UNL     1      33.491 -14.991 -22.663  0.00  0.00    -0.475 OA
BRANCH  10  11
ATOM     11  C   UNL     1      34.654 -15.354 -21.930  0.00  0.00    +0.213 C 
BRANCH  11  12
ATOM     12  C   UNL     1      35.444 -16.405 -22.705  0.00  0.00    +0.105 C 
BRANCH  12  15
ATOM     13  O   UNL     1      34.252 -19.846 -22.449  0.00  0.00    -0.449 OA
ATOM     14  N   UNL     1      35.234 -18.296 -21.126  0.00  0.00    -0.373 NA
ATOM     15  C   UNL     1      35.027 -17.809 -22.374  0.00  0.00    +0.134 C 
ATOM     16  C   UNL     1      34.440 -18.717 -23.188  0.00  0.00    +0.216 C 
ATOM     17  C   UNL     1      34.753 -19.515 -21.227  0.00  0.00    +0.277 C 
ATOM     18  C   UNL     1      33.994 -18.750 -24.584  0.00  0.00    +0.055 C 
BRANCH  17  19
ATOM     19  C   UNL     1      34.677 -20.551 -20.234  0.00  0.00    +0.066 C 
ATOM     20  C   UNL     1      35.847 -21.064 -19.665  0.00  0.00    +0.006 C 
ATOM     21  C   UNL     1      33.437 -21.052 -19.832  0.00  0.00    +0.006 C 
ATOM     22  C   UNL     1      35.775 -22.070 -18.702  0.00  0.00    +0.000 C 
ATOM     23  C   UNL     1      33.365 -22.058 -18.868  0.00  0.00    +0.000 C 
ATOM     24  C   UNL     1      34.534 -22.567 -18.303  0.00  0.00    +0.000 C 
ENDBRANCH  17  19
ENDBRANCH  12  15
ENDBRANCH  11  12
ENDBRANCH  10  11
ENDBRANCH   5  10
BRANCH   2  25
ATOM     25  C   UNL     1      32.603  -9.451 -23.485  0.00  0.00    +0.068 C 
BRANCH  25  26
ATOM     26  C   UNL     1      33.719  -8.577 -22.896  0.00  0.00    +0.218 C 
BRANCH  26  27
ATOM     27  O   UNL     1      33.200  -7.271 -22.668  0.00  0.00    -0.342 OA
ATOM     28  C   UNL     1      31.842  -7.316 -22.255  0.00  0.00    +0.175 C 
ENDBRANCH  26  27
BRANCH  26  30
ATOM     29  O   UNL     1      34.953  -7.611 -24.756  0.00  0.00    -0.248 OA
ATOM     30  C   UNL     1      34.879  -8.444 -23.862  0.00  0.00    +0.342 C 
BRANCH  30  31
ATOM     31  O   UNL     1      35.857  -9.353 -23.616  0.00  0.00    -0.479 OA
ATOM     32  H   UNL     1      35.632 -10.224 -23.352  0.00  0.00    +0.295 HD
ENDBRANCH  30  31
ENDBRANCH  26  30
ENDBRANCH  25  26
ENDBRANCH   2  25
TORSDOF 10
ENDMDL
MODEL 8
REMARK VINA RESULT:     -10.4      6.375     12.609
REMARK  Name = 10274777
REMARK  10 active torsions:
REMARK  status: ('A' for Active; 'I' for Inactive)
REMARK    1  A    between atoms: C_2  and  C_25
REMARK    2  A    between atoms: C_5  and  O_10
REMARK    3  A    between atoms: O_10  and  C_11
REMARK    4  A    between atoms: C_11  and  C_12
REMARK    5  A    between atoms: C_12  and  C_15
REMARK    6  A    between atoms: C_17  and  C_19
REMARK    7  A    between atoms: C_25  and  C_26
REMARK    8  A    between atoms: C_26  and  O_27
REMARK    9  A    between atoms: C_26  and  C_30
REMARK   10  A    between atoms: C_30  and  O_31
REMARK                            x       y       z     vdW  Elec       q    Type
REMARK                         _______ _______ _______ _____ _____    ______ ____
ROOT
ATOM      1  S   UNL     1      33.557  -9.691 -23.205  0.00  0.00    -0.087 S 
ATOM      2  C   UNL     1      31.945 -10.968 -21.293  0.00  0.00    -0.013 C 
ATOM      3  C   UNL     1      32.890 -11.022 -22.336  0.00  0.00    +0.029 C 
ATOM      4  C   UNL     1      33.407 -12.238 -22.792  0.00  0.00    +0.040 C 
ATOM      5  C   UNL     1      32.956 -13.430 -22.176  0.00  0.00    +0.139 C 
ATOM      6  C   UNL     1      31.520 -12.162 -20.706  0.00  0.00    -0.001 C 
ATOM      7  C   UNL     1      32.019 -13.381 -21.142  0.00  0.00    +0.037 C 
ATOM      8  C   UNL     1      34.349 -12.035 -23.857  0.00  0.00    +0.010 C 
ATOM      9  C   UNL     1      34.520 -10.709 -24.175  0.00  0.00    +0.036 C 
ENDROOT
BRANCH   5  10
ATOM     10  O   UNL     1      33.426 -14.656 -22.579  0.00  0.00    -0.475 OA
BRANCH  10  11
ATOM     11  C   UNL     1      34.425 -15.255 -21.764  0.00  0.00    +0.213 C 
BRANCH  11  12
ATOM     12  C   UNL     1      35.260 -16.221 -22.599  0.00  0.00    +0.105 C 
BRANCH  12  15
ATOM     13  O   UNL     1      34.310 -19.745 -22.493  0.00  0.00    -0.449 OA
ATOM     14  N   UNL     1      35.115 -18.169 -21.083  0.00  0.00    -0.373 NA
ATOM     15  C   UNL     1      34.931 -17.661 -22.326  0.00  0.00    +0.134 C 
ATOM     16  C   UNL     1      34.450 -18.583 -23.191  0.00  0.00    +0.216 C 
ATOM     17  C   UNL     1      34.728 -19.416 -21.239  0.00  0.00    +0.277 C 
ATOM     18  C   UNL     1      34.073 -18.606 -24.608  0.00  0.00    +0.055 C 
BRANCH  17  19
ATOM     19  C   UNL     1      34.682 -20.483 -20.279  0.00  0.00    +0.066 C 
ATOM     20  C   UNL     1      35.868 -21.013 -19.760  0.00  0.00    +0.006 C 
ATOM     21  C   UNL     1      33.454 -21.000 -19.859  0.00  0.00    +0.006 C 
ATOM     22  C   UNL     1      35.825 -22.050 -18.829  0.00  0.00    +0.000 C 
ATOM     23  C   UNL     1      33.410 -22.038 -18.927  0.00  0.00    +0.000 C 
ATOM     24  C   UNL     1      34.595 -22.563 -18.412  0.00  0.00    +0.000 C 
ENDBRANCH  17  19
ENDBRANCH  12  15
ENDBRANCH  11  12
ENDBRANCH  10  11
ENDBRANCH   5  10
BRANCH   2  25
ATOM     25  C   UNL     1      31.375  -9.683 -20.783  0.00  0.00    +0.068 C 
BRANCH  25  26
ATOM     26  C   UNL     1      32.214  -9.078 -19.649  0.00  0.00    +0.218 C 
BRANCH  26  27
ATOM     27  O   UNL     1      31.464  -9.152 -18.441  0.00  0.00    -0.342 OA
ATOM     28  C   UNL     1      31.663 -10.394 -17.781  0.00  0.00    +0.175 C 
ENDBRANCH  26  27
BRANCH  26  30
ATOM     29  O   UNL     1      31.910  -6.906 -20.702  0.00  0.00    -0.248 OA
ATOM     30  C   UNL     1      32.515  -7.615 -19.909  0.00  0.00    +0.342 C 
BRANCH  30  31
ATOM     31  O   UNL     1      33.539  -7.159 -19.141  0.00  0.00    -0.479 OA
ATOM     32  H   UNL     1      33.385  -6.925 -18.246  0.00  0.00    +0.295 HD
ENDBRANCH  30  31
ENDBRANCH  26  30
ENDBRANCH  25  26
ENDBRANCH   2  25
TORSDOF 10
ENDMDL
MODEL 9
REMARK VINA RESULT:     -10.4      2.838      9.541
REMARK  Name = 10274777
REMARK  10 active torsions:
REMARK  status: ('A' for Active; 'I' for Inactive)
REMARK    1  A    between atoms: C_2  and  C_25
REMARK    2  A    between atoms: C_5  and  O_10
REMARK    3  A    between atoms: O_10  and  C_11
REMARK    4  A    between atoms: C_11  and  C_12
REMARK    5  A    between atoms: C_12  and  C_15
REMARK    6  A    between atoms: C_17  and  C_19
REMARK    7  A    between atoms: C_25  and  C_26
REMARK    8  A    between atoms: C_26  and  O_27
REMARK    9  A    between atoms: C_26  and  C_30
REMARK   10  A    between atoms: C_30  and  O_31
REMARK                            x       y       z     vdW  Elec       q    Type
REMARK                         _______ _______ _______ _____ _____    ______ ____
ROOT
ATOM      1  S   UNL     1      32.860 -20.543 -20.550  0.00  0.00    -0.087 S 
ATOM      2  C   UNL     1      35.495 -19.685 -21.003  0.00  0.00    -0.013 C 
ATOM      3  C   UNL     1      34.566 -20.484 -20.309  0.00  0.00    +0.029 C 
ATOM      4  C   UNL     1      34.967 -21.358 -19.294  0.00  0.00    +0.040 C 
ATOM      5  C   UNL     1      36.345 -21.425 -18.975  0.00  0.00    +0.139 C 
ATOM      6  C   UNL     1      36.847 -19.775 -20.665  0.00  0.00    -0.001 C 
ATOM      7  C   UNL     1      37.270 -20.635 -19.662  0.00  0.00    +0.037 C 
ATOM      8  C   UNL     1      33.844 -22.058 -18.738  0.00  0.00    +0.010 C 
ATOM      9  C   UNL     1      32.651 -21.711 -19.326  0.00  0.00    +0.036 C 
ENDROOT
BRANCH   5  10
ATOM     10  O   UNL     1      36.802 -22.263 -17.989  0.00  0.00    -0.475 OA
BRANCH  10  11
ATOM     11  C   UNL     1      37.139 -21.661 -16.746  0.00  0.00    +0.213 C 
BRANCH  11  12
ATOM     12  C   UNL     1      37.390 -22.744 -15.700  0.00  0.00    +0.105 C 
BRANCH  12  15
ATOM     13  O   UNL     1      34.691 -24.933 -14.580  0.00  0.00    -0.449 OA
ATOM     14  N   UNL     1      34.938 -22.837 -15.397  0.00  0.00    -0.373 NA
ATOM     15  C   UNL     1      36.136 -23.463 -15.293  0.00  0.00    +0.134 C 
ATOM     16  C   UNL     1      36.018 -24.719 -14.806  0.00  0.00    +0.216 C 
ATOM     17  C   UNL     1      34.111 -23.760 -14.958  0.00  0.00    +0.277 C 
ATOM     18  C   UNL     1      36.934 -25.821 -14.492  0.00  0.00    +0.055 C 
BRANCH  17  19
ATOM     19  C   UNL     1      32.682 -23.712 -14.820  0.00  0.00    +0.066 C 
ATOM     20  C   UNL     1      31.879 -23.399 -15.921  0.00  0.00    +0.006 C 
ATOM     21  C   UNL     1      32.085 -23.977 -13.584  0.00  0.00    +0.006 C 
ATOM     22  C   UNL     1      30.492 -23.352 -15.788  0.00  0.00    +0.000 C 
ATOM     23  C   UNL     1      30.697 -23.930 -13.451  0.00  0.00    +0.000 C 
ATOM     24  C   UNL     1      29.900 -23.618 -14.552  0.00  0.00    +0.000 C 
ENDBRANCH  17  19
ENDBRANCH  12  15
ENDBRANCH  11  12
ENDBRANCH  10  11
ENDBRANCH   5  10
BRANCH   2  25
ATOM     25  C   UNL     1      35.096 -18.743 -22.094  0.00  0.00    +0.068 C 
BRANCH  25  26
ATOM     26  C   UNL     1      35.379 -17.277 -21.737  0.00  0.00    +0.218 C 
BRANCH  26  27
ATOM     27  O   UNL     1      34.611 -16.933 -20.589  0.00  0.00    -0.342 OA
ATOM     28  C   UNL     1      34.654 -15.537 -20.333  0.00  0.00    +0.175 C 
ENDBRANCH  26  27
BRANCH  26  30
ATOM     29  O   UNL     1      35.275 -15.169 -22.946  0.00  0.00    -0.248 OA
ATOM     30  C   UNL     1      34.960 -16.348 -22.859  0.00  0.00    +0.342 C 
BRANCH  30  31
ATOM     31  O   UNL     1      34.198 -16.979 -23.789  0.00  0.00    -0.479 OA
ATOM     32  H   UNL     1      33.266 -16.877 -23.778  0.00  0.00    +0.295 HD
ENDBRANCH  30  31
ENDBRANCH  26  30
ENDBRANCH  25  26
ENDBRANCH   2  25
TORSDOF 10
ENDMDL
