MODEL 1
REMARK VINA RESULT:     -11.7      0.000      0.000
REMARK  Name = 6323454
REMARK  1 active torsions:
REMARK  status: ('A' for Active; 'I' for Inactive)
REMARK    1  A    between atoms: C_18  and  O_22
REMARK                            x       y       z     vdW  Elec       q    Type
REMARK                         _______ _______ _______ _____ _____    ______ ____
ROOT
ATOM      1  O   UNL     1      34.058 -24.780 -13.018  0.00  0.00    -0.350 OA
ATOM      2  O   UNL     1      37.181 -23.141 -13.102  0.00  0.00    -0.445 OA
ATOM      3  O   UNL     1      37.697 -22.736 -15.815  0.00  0.00    -0.287 OA
ATOM      4  O   UNL     1      37.983 -23.047 -10.943  0.00  0.00    -0.250 OA
ATOM      5  O   UNL     1      32.565 -23.714 -16.875  0.00  0.00    -0.287 OA
ATOM      6  C   UNL     1      35.059 -23.852 -12.657  0.00  0.00    +0.171 C 
ATOM      7  C   UNL     1      36.148 -23.917 -13.698  0.00  0.00    +0.221 C 
ATOM      8  C   UNL     1      35.590 -23.462 -15.011  0.00  0.00    +0.060 C 
ATOM      9  C   UNL     1      33.366 -24.355 -14.223  0.00  0.00    +0.141 C 
ATOM     10  C   UNL     1      34.286 -23.694 -15.259  0.00  0.00    +0.046 C 
ATOM     11  C   UNL     1      35.863 -24.149 -11.416  0.00  0.00    +0.143 C 
ATOM     12  C   UNL     1      37.129 -23.390 -11.745  0.00  0.00    +0.320 C 
ATOM     13  C   UNL     1      36.495 -22.856 -16.017  0.00  0.00    +0.195 C 
ATOM     14  C   UNL     1      33.706 -23.368 -16.593  0.00  0.00    +0.197 C 
ATOM     15  C   UNL     1      32.204 -23.454 -13.795  0.00  0.00    +0.037 C 
ATOM     16  C   UNL     1      35.896 -22.399 -17.284  0.00  0.00    +0.045 C 
ATOM     17  C   UNL     1      34.552 -22.646 -17.560  0.00  0.00    +0.075 C 
ATOM     18  C   UNL     1      34.000 -22.215 -18.773  0.00  0.00    +0.137 C 
ATOM     19  C   UNL     1      36.690 -21.723 -18.218  0.00  0.00    +0.003 C 
ATOM     20  C   UNL     1      34.793 -21.539 -19.702  0.00  0.00    +0.037 C 
ATOM     21  C   UNL     1      36.136 -21.294 -19.425  0.00  0.00    +0.003 C 
ENDROOT
BRANCH  18  22
ATOM     22  O   UNL     1      32.693 -22.418 -19.103  0.00  0.00    -0.505 OA
ATOM     23  H   UNL     1      32.326 -23.279 -19.057  0.00  0.00    +0.292 HD
ENDBRANCH  18  22
TORSDOF 1
ENDMDL
MODEL 2
REMARK VINA RESULT:     -10.7      2.034      5.694
REMARK  Name = 6323454
REMARK  1 active torsions:
REMARK  status: ('A' for Active; 'I' for Inactive)
REMARK    1  A    between atoms: C_18  and  O_22
REMARK                            x       y       z     vdW  Elec       q    Type
REMARK                         _______ _______ _______ _____ _____    ______ ____
ROOT
ATOM      1  O   UNL     1      31.987 -23.292 -14.547  0.00  0.00    -0.350 OA
ATOM      2  O   UNL     1      34.215 -23.126 -17.277  0.00  0.00    -0.445 OA
ATOM      3  O   UNL     1      36.753 -23.345 -16.137  0.00  0.00    -0.287 OA
ATOM      4  O   UNL     1      32.973 -22.695 -19.172  0.00  0.00    -0.250 OA
ATOM      5  O   UNL     1      34.514 -25.153 -11.650  0.00  0.00    -0.287 OA
ATOM      6  C   UNL     1      32.506 -23.566 -15.831  0.00  0.00    +0.171 C 
ATOM      7  C   UNL     1      33.906 -23.009 -15.894  0.00  0.00    +0.221 C 
ATOM      8  C   UNL     1      34.765 -23.748 -14.914  0.00  0.00    +0.060 C 
ATOM      9  C   UNL     1      32.680 -24.066 -13.531  0.00  0.00    +0.141 C 
ATOM     10  C   UNL     1      34.184 -24.221 -13.794  0.00  0.00    +0.046 C 
ATOM     11  C   UNL     1      31.883 -22.843 -16.999  0.00  0.00    +0.143 C 
ATOM     12  C   UNL     1      33.045 -22.872 -17.966  0.00  0.00    +0.320 C 
ATOM     13  C   UNL     1      36.223 -23.861 -15.161  0.00  0.00    +0.195 C 
ATOM     14  C   UNL     1      35.011 -24.860 -12.731  0.00  0.00    +0.197 C 
ATOM     15  C   UNL     1      31.955 -25.410 -13.402  0.00  0.00    +0.037 C 
ATOM     16  C   UNL     1      37.023 -24.619 -14.183  0.00  0.00    +0.045 C 
ATOM     17  C   UNL     1      36.438 -25.100 -13.012  0.00  0.00    +0.075 C 
ATOM     18  C   UNL     1      37.214 -25.809 -12.087  0.00  0.00    +0.137 C 
ATOM     19  C   UNL     1      38.382 -24.844 -14.430  0.00  0.00    +0.003 C 
ATOM     20  C   UNL     1      38.568 -26.035 -12.337  0.00  0.00    +0.037 C 
ATOM     21  C   UNL     1      39.151 -25.553 -13.506  0.00  0.00    +0.003 C 
ENDROOT
BRANCH  18  22
ATOM     22  O   UNL     1      36.704 -26.313 -10.927  0.00  0.00    -0.505 OA
ATOM     23  H   UNL     1      36.646 -27.240 -10.805  0.00  0.00    +0.292 HD
ENDBRANCH  18  22
TORSDOF 1
ENDMDL
MODEL 3
REMARK VINA RESULT:     -10.6      1.844      4.374
REMARK  Name = 6323454
REMARK  1 active torsions:
REMARK  status: ('A' for Active; 'I' for Inactive)
REMARK    1  A    between atoms: C_18  and  O_22
REMARK                            x       y       z     vdW  Elec       q    Type
REMARK                         _______ _______ _______ _____ _____    ______ ____
ROOT
ATOM      1  O   UNL     1      33.314 -24.459 -12.941  0.00  0.00    -0.350 OA
ATOM      2  O   UNL     1      30.596 -24.575 -15.187  0.00  0.00    -0.445 OA
ATOM      3  O   UNL     1      31.280 -22.793 -17.222  0.00  0.00    -0.287 OA
ATOM      4  O   UNL     1      28.971 -25.919 -14.254  0.00  0.00    -0.250 OA
ATOM      5  O   UNL     1      36.332 -22.883 -15.521  0.00  0.00    -0.287 OA
ATOM      6  C   UNL     1      32.301 -25.031 -13.740  0.00  0.00    +0.171 C 
ATOM      7  C   UNL     1      31.744 -23.947 -14.628  0.00  0.00    +0.221 C 
ATOM      8  C   UNL     1      32.821 -23.485 -15.562  0.00  0.00    +0.060 C 
ATOM      9  C   UNL     1      34.466 -24.091 -13.747  0.00  0.00    +0.141 C 
ATOM     10  C   UNL     1      34.096 -23.534 -15.130  0.00  0.00    +0.046 C 
ATOM     11  C   UNL     1      31.038 -25.475 -13.044  0.00  0.00    +0.143 C 
ATOM     12  C   UNL     1      30.065 -25.378 -14.197  0.00  0.00    +0.320 C 
ATOM     13  C   UNL     1      32.449 -22.918 -16.880  0.00  0.00    +0.195 C 
ATOM     14  C   UNL     1      35.196 -22.980 -15.969  0.00  0.00    +0.197 C 
ATOM     15  C   UNL     1      35.386 -25.313 -13.823  0.00  0.00    +0.037 C 
ATOM     16  C   UNL     1      33.544 -22.501 -17.775  0.00  0.00    +0.045 C 
ATOM     17  C   UNL     1      34.867 -22.531 -17.335  0.00  0.00    +0.075 C 
ATOM     18  C   UNL     1      35.895 -22.122 -18.193  0.00  0.00    +0.137 C 
ATOM     19  C   UNL     1      33.247 -22.060 -19.070  0.00  0.00    +0.003 C 
ATOM     20  C   UNL     1      35.597 -21.687 -19.485  0.00  0.00    +0.037 C 
ATOM     21  C   UNL     1      34.275 -21.655 -19.922  0.00  0.00    +0.003 C 
ENDROOT
BRANCH  18  22
ATOM     22  O   UNL     1      37.210 -22.133 -17.829  0.00  0.00    -0.505 OA
ATOM     23  H   UNL     1      37.480 -22.605 -17.066  0.00  0.00    +0.292 HD
ENDBRANCH  18  22
TORSDOF 1
ENDMDL
MODEL 4
REMARK VINA RESULT:     -10.6      1.900      6.226
REMARK  Name = 6323454
REMARK  1 active torsions:
REMARK  status: ('A' for Active; 'I' for Inactive)
REMARK    1  A    between atoms: C_18  and  O_22
REMARK                            x       y       z     vdW  Elec       q    Type
REMARK                         _______ _______ _______ _____ _____    ______ ____
ROOT
ATOM      1  O   UNL     1      36.965 -22.549 -17.791  0.00  0.00    -0.350 OA
ATOM      2  O   UNL     1      33.990 -21.472 -19.350  0.00  0.00    -0.445 OA
ATOM      3  O   UNL     1      31.950 -22.787 -17.974  0.00  0.00    -0.287 OA
ATOM      4  O   UNL     1      34.578 -20.163 -21.156  0.00  0.00    -0.250 OA
ATOM      5  O   UNL     1      35.390 -23.893 -14.054  0.00  0.00    -0.287 OA
ATOM      6  C   UNL     1      36.040 -21.651 -18.366  0.00  0.00    +0.171 C 
ATOM      7  C   UNL     1      34.738 -22.386 -18.558  0.00  0.00    +0.221 C 
ATOM      8  C   UNL     1      34.194 -22.766 -17.215  0.00  0.00    +0.060 C 
ATOM      9  C   UNL     1      36.588 -22.882 -16.427  0.00  0.00    +0.141 C 
ATOM     10  C   UNL     1      35.072 -23.021 -16.225  0.00  0.00    +0.046 C 
ATOM     11  C   UNL     1      36.301 -21.201 -19.781  0.00  0.00    +0.143 C 
ATOM     12  C   UNL     1      34.889 -20.863 -20.205  0.00  0.00    +0.320 C 
ATOM     13  C   UNL     1      32.731 -22.931 -17.041  0.00  0.00    +0.195 C 
ATOM     14  C   UNL     1      34.592 -23.516 -14.904  0.00  0.00    +0.197 C 
ATOM     15  C   UNL     1      37.219 -21.834 -15.505  0.00  0.00    +0.037 C 
ATOM     16  C   UNL     1      32.240 -23.279 -15.696  0.00  0.00    +0.045 C 
ATOM     17  C   UNL     1      33.138 -23.561 -14.667  0.00  0.00    +0.075 C 
ATOM     18  C   UNL     1      32.656 -23.902 -13.397  0.00  0.00    +0.137 C 
ATOM     19  C   UNL     1      30.861 -23.339 -15.459  0.00  0.00    +0.003 C 
ATOM     20  C   UNL     1      31.282 -23.957 -13.162  0.00  0.00    +0.037 C 
ATOM     21  C   UNL     1      30.386 -23.677 -14.191  0.00  0.00    +0.003 C 
ENDROOT
BRANCH  18  22
ATOM     22  O   UNL     1      33.478 -24.181 -12.345  0.00  0.00    -0.505 OA
ATOM     23  H   UNL     1      34.390 -23.972 -12.396  0.00  0.00    +0.292 HD
ENDBRANCH  18  22
TORSDOF 1
ENDMDL
MODEL 5
REMARK VINA RESULT:     -10.1      2.035      5.300
REMARK  Name = 6323454
REMARK  1 active torsions:
REMARK  status: ('A' for Active; 'I' for Inactive)
REMARK    1  A    between atoms: C_18  and  O_22
REMARK                            x       y       z     vdW  Elec       q    Type
REMARK                         _______ _______ _______ _____ _____    ______ ____
ROOT
ATOM      1  O   UNL     1      36.602 -24.046 -14.814  0.00  0.00    -0.350 OA
ATOM      2  O   UNL     1      35.200 -22.156 -17.442  0.00  0.00    -0.445 OA
ATOM      3  O   UNL     1      32.569 -23.063 -17.643  0.00  0.00    -0.287 OA
ATOM      4  O   UNL     1      36.881 -20.870 -18.357  0.00  0.00    -0.250 OA
ATOM      5  O   UNL     1      33.035 -25.301 -12.827  0.00  0.00    -0.287 OA
ATOM      6  C   UNL     1      36.301 -22.906 -15.590  0.00  0.00    +0.171 C 
ATOM      7  C   UNL     1      35.233 -23.289 -16.582  0.00  0.00    +0.221 C 
ATOM      8  C   UNL     1      33.984 -23.645 -15.836  0.00  0.00    +0.060 C 
ATOM      9  C   UNL     1      35.486 -24.399 -13.954  0.00  0.00    +0.141 C 
ATOM     10  C   UNL     1      34.113 -24.189 -14.610  0.00  0.00    +0.046 C 
ATOM     11  C   UNL     1      37.369 -22.408 -16.531  0.00  0.00    +0.143 C 
ATOM     12  C   UNL     1      36.501 -21.705 -17.551  0.00  0.00    +0.320 C 
ATOM     13  C   UNL     1      32.667 -23.471 -16.493  0.00  0.00    +0.195 C 
ATOM     14  C   UNL     1      32.912 -24.671 -13.871  0.00  0.00    +0.197 C 
ATOM     15  C   UNL     1      35.648 -23.618 -12.645  0.00  0.00    +0.037 C 
ATOM     16  C   UNL     1      31.465 -23.810 -15.710  0.00  0.00    +0.045 C 
ATOM     17  C   UNL     1      31.584 -24.388 -14.447  0.00  0.00    +0.075 C 
ATOM     18  C   UNL     1      30.433 -24.716 -13.719  0.00  0.00    +0.137 C 
ATOM     19  C   UNL     1      30.197 -23.560 -16.248  0.00  0.00    +0.003 C 
ATOM     20  C   UNL     1      29.171 -24.462 -14.257  0.00  0.00    +0.037 C 
ATOM     21  C   UNL     1      29.053 -23.886 -15.519  0.00  0.00    +0.003 C 
ENDROOT
BRANCH  18  22
ATOM     22  O   UNL     1      30.478 -25.276 -12.477  0.00  0.00    -0.505 OA
ATOM     23  H   UNL     1      30.149 -24.802 -11.738  0.00  0.00    +0.292 HD
ENDBRANCH  18  22
TORSDOF 1
ENDMDL
MODEL 6
REMARK VINA RESULT:      -9.9      2.291      5.322
REMARK  Name = 6323454
REMARK  1 active torsions:
REMARK  status: ('A' for Active; 'I' for Inactive)
REMARK    1  A    between atoms: C_18  and  O_22
REMARK                            x       y       z     vdW  Elec       q    Type
REMARK                         _______ _______ _______ _____ _____    ______ ____
ROOT
ATOM      1  O   UNL     1      30.665 -24.084 -13.575  0.00  0.00    -0.350 OA
ATOM      2  O   UNL     1      29.751 -23.709 -16.961  0.00  0.00    -0.445 OA
ATOM      3  O   UNL     1      31.858 -22.287 -18.112  0.00  0.00    -0.287 OA
ATOM      4  O   UNL     1      27.622 -24.559 -17.213  0.00  0.00    -0.250 OA
ATOM      5  O   UNL     1      34.879 -23.454 -13.877  0.00  0.00    -0.287 OA
ATOM      6  C   UNL     1      30.178 -24.454 -14.847  0.00  0.00    +0.171 C 
ATOM      7  C   UNL     1      30.492 -23.334 -15.807  0.00  0.00    +0.221 C 
ATOM      8  C   UNL     1      31.980 -23.207 -15.933  0.00  0.00    +0.060 C 
ATOM      9  C   UNL     1      32.118 -24.058 -13.562  0.00  0.00    +0.141 C 
ATOM     10  C   UNL     1      32.735 -23.527 -14.864  0.00  0.00    +0.046 C 
ATOM     11  C   UNL     1      28.682 -24.535 -15.019  0.00  0.00    +0.143 C 
ATOM     12  C   UNL     1      28.583 -24.291 -16.508  0.00  0.00    +0.320 C 
ATOM     13  C   UNL     1      32.562 -22.661 -17.182  0.00  0.00    +0.195 C 
ATOM     14  C   UNL     1      34.209 -23.310 -14.893  0.00  0.00    +0.197 C 
ATOM     15  C   UNL     1      32.602 -25.466 -13.202  0.00  0.00    +0.037 C 
ATOM     16  C   UNL     1      34.031 -22.580 -17.271  0.00  0.00    +0.045 C 
ATOM     17  C   UNL     1      34.823 -22.893 -16.167  0.00  0.00    +0.075 C 
ATOM     18  C   UNL     1      36.218 -22.801 -16.263  0.00  0.00    +0.137 C 
ATOM     19  C   UNL     1      34.629 -22.173 -18.469  0.00  0.00    +0.003 C 
ATOM     20  C   UNL     1      36.811 -22.398 -17.460  0.00  0.00    +0.037 C 
ATOM     21  C   UNL     1      36.018 -22.085 -18.561  0.00  0.00    +0.003 C 
ENDROOT
BRANCH  18  22
ATOM     22  O   UNL     1      37.051 -23.099 -15.225  0.00  0.00    -0.505 OA
ATOM     23  H   UNL     1      37.876 -23.510 -15.391  0.00  0.00    +0.292 HD
ENDBRANCH  18  22
TORSDOF 1
ENDMDL
MODEL 7
REMARK VINA RESULT:      -9.8      2.114      4.842
REMARK  Name = 6323454
REMARK  1 active torsions:
REMARK  status: ('A' for Active; 'I' for Inactive)
REMARK    1  A    between atoms: C_18  and  O_22
REMARK                            x       y       z     vdW  Elec       q    Type
REMARK                         _______ _______ _______ _____ _____    ______ ____
ROOT
ATOM      1  O   UNL     1      35.723 -22.568 -16.204  0.00  0.00    -0.350 OA
ATOM      2  O   UNL     1      35.729 -25.002 -13.651  0.00  0.00    -0.445 OA
ATOM      3  O   UNL     1      33.080 -25.126 -12.781  0.00  0.00    -0.287 OA
ATOM      4  O   UNL     1      37.915 -25.647 -13.301  0.00  0.00    -0.250 OA
ATOM      5  O   UNL     1      31.570 -22.567 -17.208  0.00  0.00    -0.287 OA
ATOM      6  C   UNL     1      36.024 -23.787 -15.560  0.00  0.00    +0.171 C 
ATOM      7  C   UNL     1      35.166 -23.882 -14.323  0.00  0.00    +0.221 C 
ATOM      8  C   UNL     1      33.728 -23.955 -14.736  0.00  0.00    +0.060 C 
ATOM      9  C   UNL     1      34.378 -22.590 -16.755  0.00  0.00    +0.141 C 
ATOM     10  C   UNL     1      33.362 -23.324 -15.869  0.00  0.00    +0.046 C 
ATOM     11  C   UNL     1      37.392 -23.924 -14.941  0.00  0.00    +0.143 C 
ATOM     12  C   UNL     1      37.090 -24.956 -13.879  0.00  0.00    +0.320 C 
ATOM     13  C   UNL     1      32.750 -24.637 -13.855  0.00  0.00    +0.195 C 
ATOM     14  C   UNL     1      31.926 -23.265 -16.266  0.00  0.00    +0.197 C 
ATOM     15  C   UNL     1      34.468 -23.173 -18.169  0.00  0.00    +0.037 C 
ATOM     16  C   UNL     1      31.351 -24.707 -14.315  0.00  0.00    +0.045 C 
ATOM     17  C   UNL     1      30.956 -24.045 -15.477  0.00  0.00    +0.075 C 
ATOM     18  C   UNL     1      29.621 -24.112 -15.896  0.00  0.00    +0.137 C 
ATOM     19  C   UNL     1      30.415 -25.433 -13.570  0.00  0.00    +0.003 C 
ATOM     20  C   UNL     1      28.690 -24.839 -15.153  0.00  0.00    +0.037 C 
ATOM     21  C   UNL     1      29.087 -25.498 -13.992  0.00  0.00    +0.003 C 
ENDROOT
BRANCH  18  22
ATOM     22  O   UNL     1      29.169 -23.495 -17.024  0.00  0.00    -0.505 OA
ATOM     23  H   UNL     1      28.463 -22.881 -16.972  0.00  0.00    +0.292 HD
ENDBRANCH  18  22
TORSDOF 1
ENDMDL
MODEL 8
REMARK VINA RESULT:      -9.6      1.344      2.225
REMARK  Name = 6323454
REMARK  1 active torsions:
REMARK  status: ('A' for Active; 'I' for Inactive)
REMARK    1  A    between atoms: C_18  and  O_22
REMARK                            x       y       z     vdW  Elec       q    Type
REMARK                         _______ _______ _______ _____ _____    ______ ____
ROOT
ATOM      1  O   UNL     1      33.115 -24.509 -15.624  0.00  0.00    -0.350 OA
ATOM      2  O   UNL     1      36.243 -23.233 -14.608  0.00  0.00    -0.445 OA
ATOM      3  O   UNL     1      37.402 -22.249 -16.948  0.00  0.00    -0.287 OA
ATOM      4  O   UNL     1      36.518 -23.742 -12.376  0.00  0.00    -0.250 OA
ATOM      5  O   UNL     1      32.624 -22.403 -19.308  0.00  0.00    -0.287 OA
ATOM      6  C   UNL     1      34.045 -23.804 -14.829  0.00  0.00    +0.171 C 
ATOM      7  C   UNL     1      35.344 -23.732 -15.591  0.00  0.00    +0.221 C 
ATOM      8  C   UNL     1      35.134 -22.921 -16.832  0.00  0.00    +0.060 C 
ATOM      9  C   UNL     1      32.748 -23.739 -16.800  0.00  0.00    +0.141 C 
ATOM     10  C   UNL     1      33.915 -22.949 -17.408  0.00  0.00    +0.046 C 
ATOM     11  C   UNL     1      34.519 -24.471 -13.563  0.00  0.00    +0.143 C 
ATOM     12  C   UNL     1      35.861 -23.792 -13.404  0.00  0.00    +0.320 C 
ATOM     13  C   UNL     1      36.277 -22.190 -17.429  0.00  0.00    +0.195 C 
ATOM     14  C   UNL     1      33.681 -22.256 -18.706  0.00  0.00    +0.197 C 
ATOM     15  C   UNL     1      31.560 -22.850 -16.417  0.00  0.00    +0.037 C 
ATOM     16  C   UNL     1      36.016 -21.384 -18.635  0.00  0.00    +0.045 C 
ATOM     17  C   UNL     1      34.765 -21.416 -19.249  0.00  0.00    +0.075 C 
ATOM     18  C   UNL     1      34.535 -20.653 -20.401  0.00  0.00    +0.137 C 
ATOM     19  C   UNL     1      37.039 -20.592 -19.170  0.00  0.00    +0.003 C 
ATOM     20  C   UNL     1      35.555 -19.862 -20.931  0.00  0.00    +0.037 C 
ATOM     21  C   UNL     1      36.805 -19.832 -20.317  0.00  0.00    +0.003 C 
ENDROOT
BRANCH  18  22
ATOM     22  O   UNL     1      33.334 -20.633 -21.047  0.00  0.00    -0.505 OA
ATOM     23  H   UNL     1      33.015 -21.408 -21.466  0.00  0.00    +0.292 HD
ENDBRANCH  18  22
TORSDOF 1
ENDMDL
MODEL 9
REMARK VINA RESULT:      -9.5      1.615      6.574
REMARK  Name = 6323454
REMARK  1 active torsions:
REMARK  status: ('A' for Active; 'I' for Inactive)
REMARK    1  A    between atoms: C_18  and  O_22
REMARK                            x       y       z     vdW  Elec       q    Type
REMARK                         _______ _______ _______ _____ _____    ______ ____
ROOT
ATOM      1  O   UNL     1      36.229 -21.946 -18.917  0.00  0.00    -0.350 OA
ATOM      2  O   UNL     1      32.734 -21.565 -19.202  0.00  0.00    -0.445 OA
ATOM      3  O   UNL     1      31.671 -23.338 -17.327  0.00  0.00    -0.287 OA
ATOM      4  O   UNL     1      32.325 -20.129 -20.960  0.00  0.00    -0.250 OA
ATOM      5  O   UNL     1      36.464 -23.673 -15.017  0.00  0.00    -0.287 OA
ATOM      6  C   UNL     1      34.991 -21.278 -19.034  0.00  0.00    +0.171 C 
ATOM      7  C   UNL     1      33.896 -22.292 -18.822  0.00  0.00    +0.221 C 
ATOM      8  C   UNL     1      33.978 -22.808 -17.418  0.00  0.00    +0.060 C 
ATOM      9  C   UNL     1      36.460 -22.377 -17.549  0.00  0.00    +0.141 C 
ATOM     10  C   UNL     1      35.192 -22.867 -16.836  0.00  0.00    +0.046 C 
ATOM     11  C   UNL     1      34.610 -20.760 -20.398  0.00  0.00    +0.143 C 
ATOM     12  C   UNL     1      33.105 -20.751 -20.255  0.00  0.00    +0.320 C 
ATOM     13  C   UNL     1      32.752 -23.310 -16.752  0.00  0.00    +0.195 C 
ATOM     14  C   UNL     1      35.349 -23.479 -15.486  0.00  0.00    +0.197 C 
ATOM     15  C   UNL     1      37.152 -21.225 -16.813  0.00  0.00    +0.037 C 
ATOM     16  C   UNL     1      32.877 -23.783 -15.362  0.00  0.00    +0.045 C 
ATOM     17  C   UNL     1      34.129 -23.864 -14.753  0.00  0.00    +0.075 C 
ATOM     18  C   UNL     1      34.233 -24.326 -13.435  0.00  0.00    +0.137 C 
ATOM     19  C   UNL     1      31.729 -24.164 -14.657  0.00  0.00    +0.003 C 
ATOM     20  C   UNL     1      33.087 -24.702 -12.733  0.00  0.00    +0.037 C 
ATOM     21  C   UNL     1      31.838 -24.622 -13.343  0.00  0.00    +0.003 C 
ENDROOT
BRANCH  18  22
ATOM     22  O   UNL     1      35.424 -24.423 -12.778  0.00  0.00    -0.505 OA
ATOM     23  H   UNL     1      35.491 -24.952 -12.007  0.00  0.00    +0.292 HD
ENDBRANCH  18  22
TORSDOF 1
ENDMDL
