MODEL 1
REMARK VINA RESULT:     -11.8      0.000      0.000
REMARK  Name = 127737
REMARK  3 active torsions:
REMARK  status: ('A' for Active; 'I' for Inactive)
REMARK    1  A    between atoms: N_2  and  S_15
REMARK    2  A    between atoms: N_3  and  C_9
REMARK    3  A    between atoms: S_15  and  C_23
REMARK                            x       y       z     vdW  Elec       q    Type
REMARK                         _______ _______ _______ _____ _____    ______ ____
ROOT
ATOM      1  O   UNL     1      34.776 -16.651 -23.015  0.00  0.00    -0.251 OA
ATOM      2  N   UNL     1      35.454 -17.382 -20.916  0.00  0.00    -0.169 N 
ATOM      3  N   UNL     1      34.516 -15.263 -21.157  0.00  0.00    -0.267 N 
ATOM      4  C   UNL     1      34.888 -16.420 -21.818  0.00  0.00    +0.323 C 
ATOM      5  H   UNL     1      35.469 -17.150 -19.959  0.00  0.00    +0.178 HD
ATOM      6  H   UNL     1      34.681 -15.248 -20.186  0.00  0.00    +0.156 HD
ENDROOT
BRANCH   3   9
ATOM      7 CL   UNL     1      30.955 -11.645 -20.739  0.00  0.00    -0.081 Cl
ATOM      8 CL   UNL     1      32.104 -10.395 -23.494  0.00  0.00    -0.081 Cl
ATOM      9  C   UNL     1      33.929 -14.098 -21.704  0.00  0.00    +0.053 C 
ATOM     10  C   UNL     1      32.863 -13.503 -21.048  0.00  0.00    +0.027 C 
ATOM     11  C   UNL     1      34.432 -13.575 -22.884  0.00  0.00    +0.016 C 
ATOM     12  C   UNL     1      32.284 -12.355 -21.588  0.00  0.00    +0.069 C 
ATOM     13  C   UNL     1      33.852 -12.426 -23.424  0.00  0.00    +0.014 C 
ATOM     14  C   UNL     1      32.779 -11.816 -22.776  0.00  0.00    +0.068 C 
ENDBRANCH   3   9
BRANCH   2  15
ATOM     15  S   UNL     1      36.106 -18.899 -21.371  0.00  0.00    +0.077 S 
ATOM     16  O   UNL     1      37.447 -19.021 -20.816  0.00  0.00    -0.150 OA
ATOM     17  O   UNL     1      35.898 -19.089 -22.799  0.00  0.00    -0.150 OA
BRANCH  15  23
ATOM     18  O   UNL     1      32.634 -22.677 -18.525  0.00  0.00    -0.475 OA
ATOM     19  C   UNL     1      34.712 -21.788 -18.983  0.00  0.00    +0.017 C 
ATOM     20  C   UNL     1      35.002 -22.889 -18.038  0.00  0.00    +0.077 C 
ATOM     21  C   UNL     1      33.349 -21.745 -19.234  0.00  0.00    +0.135 C 
ATOM     22  C   UNL     1      33.581 -23.161 -17.543  0.00  0.00    +0.210 C 
ATOM     23  C   UNL     1      35.045 -20.006 -20.532  0.00  0.00    +0.125 C 
ATOM     24  C   UNL     1      35.580 -20.928 -19.628  0.00  0.00    +0.019 C 
ATOM     25  C   UNL     1      32.799 -20.851 -20.132  0.00  0.00    +0.038 C 
ATOM     26  C   UNL     1      33.663 -19.970 -20.783  0.00  0.00    +0.023 C 
ENDBRANCH  15  23
ENDBRANCH   2  15
TORSDOF 3
ENDMDL
MODEL 2
REMARK VINA RESULT:     -11.6      3.689      5.604
REMARK  Name = 127737
REMARK  3 active torsions:
REMARK  status: ('A' for Active; 'I' for Inactive)
REMARK    1  A    between atoms: N_2  and  S_15
REMARK    2  A    between atoms: N_3  and  C_9
REMARK    3  A    between atoms: S_15  and  C_23
REMARK                            x       y       z     vdW  Elec       q    Type
REMARK                         _______ _______ _______ _____ _____    ______ ____
ROOT
ATOM      1  O   UNL     1      32.887 -20.902 -20.352  0.00  0.00    -0.251 OA
ATOM      2  N   UNL     1      34.583 -21.797 -19.039  0.00  0.00    -0.169 N 
ATOM      3  N   UNL     1      35.067 -20.090 -20.549  0.00  0.00    -0.267 N 
ATOM      4  C   UNL     1      34.071 -20.901 -20.035  0.00  0.00    +0.323 C 
ATOM      5  H   UNL     1      35.534 -21.709 -18.798  0.00  0.00    +0.178 HD
ATOM      6  H   UNL     1      35.968 -20.225 -20.177  0.00  0.00    +0.156 HD
ENDROOT
BRANCH   3   9
ATOM      7 CL   UNL     1      34.928 -15.117 -21.643  0.00  0.00    -0.081 Cl
ATOM      8 CL   UNL     1      34.573 -15.955 -24.748  0.00  0.00    -0.081 Cl
ATOM      9  C   UNL     1      34.950 -19.090 -21.542  0.00  0.00    +0.053 C 
ATOM     10  C   UNL     1      34.990 -17.756 -21.170  0.00  0.00    +0.027 C 
ATOM     11  C   UNL     1      34.798 -19.464 -22.867  0.00  0.00    +0.016 C 
ATOM     12  C   UNL     1      34.874 -16.769 -22.149  0.00  0.00    +0.069 C 
ATOM     13  C   UNL     1      34.683 -18.477 -23.847  0.00  0.00    +0.014 C 
ATOM     14  C   UNL     1      34.721 -17.130 -23.488  0.00  0.00    +0.068 C 
ENDBRANCH   3   9
BRANCH   2  15
ATOM     15  S   UNL     1      33.674 -23.007 -18.237  0.00  0.00    +0.077 S 
ATOM     16  O   UNL     1      33.815 -24.261 -18.964  0.00  0.00    -0.150 OA
ATOM     17  O   UNL     1      32.345 -22.485 -17.954  0.00  0.00    -0.150 OA
BRANCH  15  23
ATOM     18  O   UNL     1      36.427 -23.466 -13.076  0.00  0.00    -0.475 OA
ATOM     19  C   UNL     1      34.578 -23.778 -14.419  0.00  0.00    +0.017 C 
ATOM     20  C   UNL     1      34.132 -24.253 -13.091  0.00  0.00    +0.077 C 
ATOM     21  C   UNL     1      35.885 -23.320 -14.328  0.00  0.00    +0.135 C 
ATOM     22  C   UNL     1      35.492 -24.335 -12.395  0.00  0.00    +0.210 C 
ATOM     23  C   UNL     1      34.523 -23.138 -16.715  0.00  0.00    +0.125 C 
ATOM     24  C   UNL     1      33.877 -23.690 -15.606  0.00  0.00    +0.019 C 
ATOM     25  C   UNL     1      36.540 -22.760 -15.407  0.00  0.00    +0.038 C 
ATOM     26  C   UNL     1      35.846 -22.674 -16.615  0.00  0.00    +0.023 C 
ENDBRANCH  15  23
ENDBRANCH   2  15
TORSDOF 3
ENDMDL
MODEL 3
REMARK VINA RESULT:     -11.4      4.119      6.111
REMARK  Name = 127737
REMARK  3 active torsions:
REMARK  status: ('A' for Active; 'I' for Inactive)
REMARK    1  A    between atoms: N_2  and  S_15
REMARK    2  A    between atoms: N_3  and  C_9
REMARK    3  A    between atoms: S_15  and  C_23
REMARK                            x       y       z     vdW  Elec       q    Type
REMARK                         _______ _______ _______ _____ _____    ______ ____
ROOT
ATOM      1  O   UNL     1      32.865 -21.134 -20.112  0.00  0.00    -0.251 OA
ATOM      2  N   UNL     1      34.504 -22.014 -18.720  0.00  0.00    -0.169 N 
ATOM      3  N   UNL     1      35.060 -20.352 -20.254  0.00  0.00    -0.267 N 
ATOM      4  C   UNL     1      34.037 -21.138 -19.755  0.00  0.00    +0.323 C 
ATOM      5  H   UNL     1      35.447 -21.931 -18.448  0.00  0.00    +0.178 HD
ATOM      6  H   UNL     1      35.947 -20.488 -19.849  0.00  0.00    +0.156 HD
ENDROOT
BRANCH   3   9
ATOM      7 CL   UNL     1      33.410 -19.124 -24.914  0.00  0.00    -0.081 Cl
ATOM      8 CL   UNL     1      34.800 -16.233 -24.489  0.00  0.00    -0.081 Cl
ATOM      9  C   UNL     1      34.990 -19.376 -21.276  0.00  0.00    +0.053 C 
ATOM     10  C   UNL     1      34.322 -19.674 -22.453  0.00  0.00    +0.027 C 
ATOM     11  C   UNL     1      35.590 -18.144 -21.080  0.00  0.00    +0.016 C 
ATOM     12  C   UNL     1      34.252 -18.712 -23.461  0.00  0.00    +0.069 C 
ATOM     13  C   UNL     1      35.521 -17.182 -22.088  0.00  0.00    +0.014 C 
ATOM     14  C   UNL     1      34.852 -17.466 -23.278  0.00  0.00    +0.068 C 
ENDBRANCH   3   9
BRANCH   2  15
ATOM     15  S   UNL     1      33.553 -23.193 -17.918  0.00  0.00    +0.077 S 
ATOM     16  O   UNL     1      33.675 -24.458 -18.630  0.00  0.00    -0.150 OA
ATOM     17  O   UNL     1      32.234 -22.635 -17.663  0.00  0.00    -0.150 OA
BRANCH  15  23
ATOM     18  O   UNL     1      36.215 -23.665 -12.711  0.00  0.00    -0.475 OA
ATOM     19  C   UNL     1      34.394 -23.985 -14.090  0.00  0.00    +0.017 C 
ATOM     20  C   UNL     1      33.928 -24.474 -12.775  0.00  0.00    +0.077 C 
ATOM     21  C   UNL     1      35.694 -23.515 -13.972  0.00  0.00    +0.135 C 
ATOM     22  C   UNL     1      35.275 -24.548 -12.054  0.00  0.00    +0.210 C 
ATOM     23  C   UNL     1      34.375 -23.327 -16.382  0.00  0.00    +0.125 C 
ATOM     24  C   UNL     1      33.714 -23.894 -15.290  0.00  0.00    +0.019 C 
ATOM     25  C   UNL     1      36.364 -22.940 -15.034  0.00  0.00    +0.038 C 
ATOM     26  C   UNL     1      35.691 -22.852 -16.254  0.00  0.00    +0.023 C 
ENDBRANCH  15  23
ENDBRANCH   2  15
TORSDOF 3
ENDMDL
MODEL 4
REMARK VINA RESULT:     -11.3      1.030      2.033
REMARK  Name = 127737
REMARK  3 active torsions:
REMARK  status: ('A' for Active; 'I' for Inactive)
REMARK    1  A    between atoms: N_2  and  S_15
REMARK    2  A    between atoms: N_3  and  C_9
REMARK    3  A    between atoms: S_15  and  C_23
REMARK                            x       y       z     vdW  Elec       q    Type
REMARK                         _______ _______ _______ _____ _____    ______ ____
ROOT
ATOM      1  O   UNL     1      34.769 -16.618 -22.813  0.00  0.00    -0.251 OA
ATOM      2  N   UNL     1      35.559 -17.557 -20.840  0.00  0.00    -0.169 N 
ATOM      3  N   UNL     1      34.413 -15.530 -20.779  0.00  0.00    -0.267 N 
ATOM      4  C   UNL     1      34.883 -16.543 -21.596  0.00  0.00    +0.323 C 
ATOM      5  H   UNL     1      35.571 -17.458 -19.860  0.00  0.00    +0.178 HD
ATOM      6  H   UNL     1      34.596 -15.631 -19.817  0.00  0.00    +0.156 HD
ENDROOT
BRANCH   3   9
ATOM      7 CL   UNL     1      34.065 -11.541 -23.928  0.00  0.00    -0.081 Cl
ATOM      8 CL   UNL     1      31.404 -10.673 -22.305  0.00  0.00    -0.081 Cl
ATOM      9  C   UNL     1      33.703 -14.365 -21.156  0.00  0.00    +0.053 C 
ATOM     10  C   UNL     1      34.161 -13.608 -22.222  0.00  0.00    +0.027 C 
ATOM     11  C   UNL     1      32.567 -14.006 -20.451  0.00  0.00    +0.016 C 
ATOM     12  C   UNL     1      33.461 -12.459 -22.593  0.00  0.00    +0.069 C 
ATOM     13  C   UNL     1      31.867 -12.857 -20.822  0.00  0.00    +0.014 C 
ATOM     14  C   UNL     1      32.314 -12.084 -21.893  0.00  0.00    +0.068 C 
ENDBRANCH   3   9
BRANCH   2  15
ATOM     15  S   UNL     1      36.347 -18.925 -21.506  0.00  0.00    +0.077 S 
ATOM     16  O   UNL     1      37.787 -18.710 -21.455  0.00  0.00    -0.150 OA
ATOM     17  O   UNL     1      35.714 -19.260 -22.772  0.00  0.00    -0.150 OA
BRANCH  15  23
ATOM     18  O   UNL     1      34.811 -23.080 -17.659  0.00  0.00    -0.475 OA
ATOM     19  C   UNL     1      34.282 -21.523 -19.276  0.00  0.00    +0.017 C 
ATOM     20  C   UNL     1      32.966 -22.054 -18.855  0.00  0.00    +0.077 C 
ATOM     21  C   UNL     1      35.282 -22.134 -18.533  0.00  0.00    +0.135 C 
ATOM     22  C   UNL     1      33.440 -23.282 -18.076  0.00  0.00    +0.210 C 
ATOM     23  C   UNL     1      35.921 -20.172 -20.358  0.00  0.00    +0.125 C 
ATOM     24  C   UNL     1      34.582 -20.533 -20.192  0.00  0.00    +0.019 C 
ATOM     25  C   UNL     1      36.611 -21.785 -18.671  0.00  0.00    +0.038 C 
ATOM     26  C   UNL     1      36.929 -20.793 -19.601  0.00  0.00    +0.023 C 
ENDBRANCH  15  23
ENDBRANCH   2  15
TORSDOF 3
ENDMDL
MODEL 5
REMARK VINA RESULT:     -10.3      5.649     10.853
REMARK  Name = 127737
REMARK  3 active torsions:
REMARK  status: ('A' for Active; 'I' for Inactive)
REMARK    1  A    between atoms: N_2  and  S_15
REMARK    2  A    between atoms: N_3  and  C_9
REMARK    3  A    between atoms: S_15  and  C_23
REMARK                            x       y       z     vdW  Elec       q    Type
REMARK                         _______ _______ _______ _____ _____    ______ ____
ROOT
ATOM      1  O   UNL     1      32.007 -13.375 -22.028  0.00  0.00    -0.251 OA
ATOM      2  N   UNL     1      32.974 -11.433 -22.862  0.00  0.00    -0.169 N 
ATOM      3  N   UNL     1      33.909 -13.505 -23.376  0.00  0.00    -0.267 N 
ATOM      4  C   UNL     1      32.891 -12.856 -22.698  0.00  0.00    +0.323 C 
ATOM      5  H   UNL     1      33.680 -11.087 -23.454  0.00  0.00    +0.178 HD
ATOM      6  H   UNL     1      34.537 -12.927 -23.867  0.00  0.00    +0.156 HD
ENDROOT
BRANCH   3   9
ATOM      7 CL   UNL     1      35.652 -17.685 -21.045  0.00  0.00    -0.081 Cl
ATOM      8 CL   UNL     1      34.929 -19.318 -23.743  0.00  0.00    -0.081 Cl
ATOM      9  C   UNL     1      34.158 -14.895 -23.449  0.00  0.00    +0.053 C 
ATOM     10  C   UNL     1      34.712 -15.543 -22.357  0.00  0.00    +0.027 C 
ATOM     11  C   UNL     1      33.844 -15.580 -24.611  0.00  0.00    +0.016 C 
ATOM     12  C   UNL     1      34.959 -16.915 -22.429  0.00  0.00    +0.069 C 
ATOM     13  C   UNL     1      34.091 -16.952 -24.683  0.00  0.00    +0.014 C 
ATOM     14  C   UNL     1      34.648 -17.619 -23.593  0.00  0.00    +0.068 C 
ENDBRANCH   3   9
BRANCH   2  15
ATOM     15  S   UNL     1      31.943 -10.291 -22.109  0.00  0.00    +0.077 S 
ATOM     16  O   UNL     1      32.359 -10.123 -20.723  0.00  0.00    -0.150 OA
ATOM     17  O   UNL     1      30.562 -10.637 -22.408  0.00  0.00    -0.150 OA
BRANCH  15  23
ATOM     18  O   UNL     1      33.324  -5.397 -25.036  0.00  0.00    -0.475 OA
ATOM     19  C   UNL     1      33.918  -7.258 -23.811  0.00  0.00    +0.017 C 
ATOM     20  C   UNL     1      35.202  -6.559 -24.030  0.00  0.00    +0.077 C 
ATOM     21  C   UNL     1      32.891  -6.525 -24.387  0.00  0.00    +0.135 C 
ATOM     22  C   UNL     1      34.758  -5.575 -25.115  0.00  0.00    +0.210 C 
ATOM     23  C   UNL     1      32.324  -8.833 -22.994  0.00  0.00    +0.125 C 
ATOM     24  C   UNL     1      33.653  -8.416 -23.103  0.00  0.00    +0.019 C 
ATOM     25  C   UNL     1      31.569  -6.912 -24.283  0.00  0.00    +0.038 C 
ATOM     26  C   UNL     1      31.289  -8.085 -23.579  0.00  0.00    +0.023 C 
ENDBRANCH  15  23
ENDBRANCH   2  15
TORSDOF 3
ENDMDL
MODEL 6
REMARK VINA RESULT:     -10.1      6.531     10.573
REMARK  Name = 127737
REMARK  3 active torsions:
REMARK  status: ('A' for Active; 'I' for Inactive)
REMARK    1  A    between atoms: N_2  and  S_15
REMARK    2  A    between atoms: N_3  and  C_9
REMARK    3  A    between atoms: S_15  and  C_23
REMARK                            x       y       z     vdW  Elec       q    Type
REMARK                         _______ _______ _______ _____ _____    ______ ____
ROOT
ATOM      1  O   UNL     1      33.521 -23.825 -16.103  0.00  0.00    -0.251 OA
ATOM      2  N   UNL     1      34.919 -22.571 -17.471  0.00  0.00    -0.169 N 
ATOM      3  N   UNL     1      35.565 -23.049 -15.284  0.00  0.00    -0.267 N 
ATOM      4  C   UNL     1      34.576 -23.216 -16.237  0.00  0.00    +0.323 C 
ATOM      5  H   UNL     1      35.804 -22.142 -17.526  0.00  0.00    +0.178 HD
ATOM      6  H   UNL     1      36.351 -22.527 -15.565  0.00  0.00    +0.156 HD
ENDROOT
BRANCH   3   9
ATOM      7 CL   UNL     1      38.315 -24.018 -11.108  0.00  0.00    -0.081 Cl
ATOM      8 CL   UNL     1      35.589 -25.092  -9.735  0.00  0.00    -0.081 Cl
ATOM      9  C   UNL     1      35.586 -23.535 -13.956  0.00  0.00    +0.053 C 
ATOM     10  C   UNL     1      36.782 -23.544 -13.256  0.00  0.00    +0.027 C 
ATOM     11  C   UNL     1      34.411 -23.991 -13.382  0.00  0.00    +0.016 C 
ATOM     12  C   UNL     1      36.803 -24.023 -11.946  0.00  0.00    +0.069 C 
ATOM     13  C   UNL     1      34.432 -24.470 -12.072  0.00  0.00    +0.014 C 
ATOM     14  C   UNL     1      35.628 -24.486 -11.354  0.00  0.00    +0.068 C 
ENDBRANCH   3   9
BRANCH   2  15
ATOM     15  S   UNL     1      33.913 -22.486 -18.856  0.00  0.00    +0.077 S 
ATOM     16  O   UNL     1      32.612 -21.965 -18.460  0.00  0.00    -0.150 OA
ATOM     17  O   UNL     1      33.994 -23.750 -19.571  0.00  0.00    -0.150 OA
BRANCH  15  23
ATOM     18  O   UNL     1      36.594 -18.449 -22.163  0.00  0.00    -0.475 OA
ATOM     19  C   UNL     1      34.738 -19.696 -21.599  0.00  0.00    +0.017 C 
ATOM     20  C   UNL     1      34.294 -18.921 -22.778  0.00  0.00    +0.077 C 
ATOM     21  C   UNL     1      36.064 -19.396 -21.324  0.00  0.00    +0.135 C 
ATOM     22  C   UNL     1      35.437 -17.906 -22.842  0.00  0.00    +0.210 C 
ATOM     23  C   UNL     1      34.736 -21.282 -19.818  0.00  0.00    +0.125 C 
ATOM     24  C   UNL     1      34.056 -20.643 -20.858  0.00  0.00    +0.019 C 
ATOM     25  C   UNL     1      36.760 -20.023 -20.310  0.00  0.00    +0.038 C 
ATOM     26  C   UNL     1      36.080 -20.975 -19.547  0.00  0.00    +0.023 C 
ENDBRANCH  15  23
ENDBRANCH   2  15
TORSDOF 3
ENDMDL
MODEL 7
REMARK VINA RESULT:     -10.0      5.566     10.636
REMARK  Name = 127737
REMARK  3 active torsions:
REMARK  status: ('A' for Active; 'I' for Inactive)
REMARK    1  A    between atoms: N_2  and  S_15
REMARK    2  A    between atoms: N_3  and  C_9
REMARK    3  A    between atoms: S_15  and  C_23
REMARK                            x       y       z     vdW  Elec       q    Type
REMARK                         _______ _______ _______ _____ _____    ______ ____
ROOT
ATOM      1  O   UNL     1      31.951 -13.771 -21.028  0.00  0.00    -0.251 OA
ATOM      2  N   UNL     1      32.537 -11.627 -21.707  0.00  0.00    -0.169 N 
ATOM      3  N   UNL     1      33.574 -13.473 -22.680  0.00  0.00    -0.267 N 
ATOM      4  C   UNL     1      32.636 -13.057 -21.751  0.00  0.00    +0.323 C 
ATOM      5  H   UNL     1      33.081 -11.116 -22.350  0.00  0.00    +0.178 HD
ATOM      6  H   UNL     1      34.036 -12.759 -23.176  0.00  0.00    +0.156 HD
ENDROOT
BRANCH   3   9
ATOM      7 CL   UNL     1      35.756 -17.815 -21.155  0.00  0.00    -0.081 Cl
ATOM      8 CL   UNL     1      35.124 -19.000 -24.099  0.00  0.00    -0.081 Cl
ATOM      9  C   UNL     1      33.950 -14.797 -23.005  0.00  0.00    +0.053 C 
ATOM     10  C   UNL     1      34.589 -15.574 -22.052  0.00  0.00    +0.027 C 
ATOM     11  C   UNL     1      33.673 -15.290 -24.270  0.00  0.00    +0.016 C 
ATOM     12  C   UNL     1      34.960 -16.880 -22.372  0.00  0.00    +0.069 C 
ATOM     13  C   UNL     1      34.045 -16.596 -24.590  0.00  0.00    +0.014 C 
ATOM     14  C   UNL     1      34.688 -17.391 -23.642  0.00  0.00    +0.068 C 
ENDBRANCH   3   9
BRANCH   2  15
ATOM     15  S   UNL     1      31.549 -10.737 -20.627  0.00  0.00    +0.077 S 
ATOM     16  O   UNL     1      32.122 -10.817 -19.290  0.00  0.00    -0.150 OA
ATOM     17  O   UNL     1      30.161 -11.120 -20.838  0.00  0.00    -0.150 OA
BRANCH  15  23
ATOM     18  O   UNL     1      32.193  -5.306 -22.752  0.00  0.00    -0.475 OA
ATOM     19  C   UNL     1      31.608  -7.523 -23.005  0.00  0.00    +0.017 C 
ATOM     20  C   UNL     1      31.430  -6.957 -24.360  0.00  0.00    +0.077 C 
ATOM     21  C   UNL     1      32.070  -6.533 -22.150  0.00  0.00    +0.135 C 
ATOM     22  C   UNL     1      31.493  -5.469 -24.009  0.00  0.00    +0.210 C 
ATOM     23  C   UNL     1      31.743  -9.108 -21.229  0.00  0.00    +0.125 C 
ATOM     24  C   UNL     1      31.443  -8.822 -22.563  0.00  0.00    +0.019 C 
ATOM     25  C   UNL     1      32.384  -6.795 -20.831  0.00  0.00    +0.038 C 
ATOM     26  C   UNL     1      32.212  -8.101 -20.369  0.00  0.00    +0.023 C 
ENDBRANCH  15  23
ENDBRANCH   2  15
TORSDOF 3
ENDMDL
MODEL 8
REMARK VINA RESULT:     -10.0      4.630      8.872
REMARK  Name = 127737
REMARK  3 active torsions:
REMARK  status: ('A' for Active; 'I' for Inactive)
REMARK    1  A    between atoms: N_2  and  S_15
REMARK    2  A    between atoms: N_3  and  C_9
REMARK    3  A    between atoms: S_15  and  C_23
REMARK                            x       y       z     vdW  Elec       q    Type
REMARK                         _______ _______ _______ _____ _____    ______ ____
ROOT
ATOM      1  O   UNL     1      36.424 -20.313 -19.896  0.00  0.00    -0.251 OA
ATOM      2  N   UNL     1      34.769 -19.747 -21.427  0.00  0.00    -0.169 N 
ATOM      3  N   UNL     1      34.275 -21.196 -19.671  0.00  0.00    -0.267 N 
ATOM      4  C   UNL     1      35.262 -20.430 -20.266  0.00  0.00    +0.323 C 
ATOM      5  H   UNL     1      33.813 -19.847 -21.638  0.00  0.00    +0.178 HD
ATOM      6  H   UNL     1      33.391 -21.174 -20.104  0.00  0.00    +0.156 HD
ENDROOT
BRANCH   3   9
ATOM      7 CL   UNL     1      37.199 -22.892 -15.861  0.00  0.00    -0.081 Cl
ATOM      8 CL   UNL     1      34.647 -24.606 -14.854  0.00  0.00    -0.081 Cl
ATOM      9  C   UNL     1      34.378 -22.007 -18.516  0.00  0.00    +0.053 C 
ATOM     10  C   UNL     1      35.580 -22.057 -17.828  0.00  0.00    +0.027 C 
ATOM     11  C   UNL     1      33.277 -22.736 -18.098  0.00  0.00    +0.016 C 
ATOM     12  C   UNL     1      35.683 -22.857 -16.690  0.00  0.00    +0.069 C 
ATOM     13  C   UNL     1      33.380 -23.536 -16.960  0.00  0.00    +0.014 C 
ATOM     14  C   UNL     1      34.582 -23.597 -16.256  0.00  0.00    +0.068 C 
ENDBRANCH   3   9
BRANCH   2  15
ATOM     15  S   UNL     1      35.712 -18.772 -22.473  0.00  0.00    +0.077 S 
ATOM     16  O   UNL     1      35.385 -19.109 -23.852  0.00  0.00    -0.150 OA
ATOM     17  O   UNL     1      37.098 -18.815 -22.032  0.00  0.00    -0.150 OA
BRANCH  15  23
ATOM     18  O   UNL     1      33.661 -13.382 -21.395  0.00  0.00    -0.475 OA
ATOM     19  C   UNL     1      34.251 -15.069 -22.852  0.00  0.00    +0.017 C 
ATOM     20  C   UNL     1      33.857 -13.957 -23.745  0.00  0.00    +0.077 C 
ATOM     21  C   UNL     1      34.140 -14.660 -21.532  0.00  0.00    +0.135 C 
ATOM     22  C   UNL     1      33.169 -13.057 -22.717  0.00  0.00    +0.210 C 
ATOM     23  C   UNL     1      35.097 -17.175 -22.120  0.00  0.00    +0.125 C 
ATOM     24  C   UNL     1      34.734 -16.325 -23.168  0.00  0.00    +0.019 C 
ATOM     25  C   UNL     1      34.504 -15.478 -20.480  0.00  0.00    +0.038 C 
ATOM     26  C   UNL     1      34.984 -16.754 -20.785  0.00  0.00    +0.023 C 
ENDBRANCH  15  23
ENDBRANCH   2  15
TORSDOF 3
ENDMDL
MODEL 9
REMARK VINA RESULT:     -10.0      5.673     11.027
REMARK  Name = 127737
REMARK  3 active torsions:
REMARK  status: ('A' for Active; 'I' for Inactive)
REMARK    1  A    between atoms: N_2  and  S_15
REMARK    2  A    between atoms: N_3  and  C_9
REMARK    3  A    between atoms: S_15  and  C_23
REMARK                            x       y       z     vdW  Elec       q    Type
REMARK                         _______ _______ _______ _____ _____    ______ ____
ROOT
ATOM      1  O   UNL     1      32.085 -13.349 -21.903  0.00  0.00    -0.251 OA
ATOM      2  N   UNL     1      32.945 -11.415 -22.863  0.00  0.00    -0.169 N 
ATOM      3  N   UNL     1      33.863 -13.486 -23.409  0.00  0.00    -0.267 N 
ATOM      4  C   UNL     1      32.899 -12.835 -22.660  0.00  0.00    +0.323 C 
ATOM      5  H   UNL     1      33.592 -11.074 -23.522  0.00  0.00    +0.178 HD
ATOM      6  H   UNL     1      34.437 -12.912 -23.967  0.00  0.00    +0.156 HD
ENDROOT
BRANCH   3   9
ATOM      7 CL   UNL     1      35.585 -17.644 -21.025  0.00  0.00    -0.081 Cl
ATOM      8 CL   UNL     1      34.943 -19.291 -23.735  0.00  0.00    -0.081 Cl
ATOM      9  C   UNL     1      34.126 -14.874 -23.473  0.00  0.00    +0.053 C 
ATOM     10  C   UNL     1      34.659 -15.514 -22.366  0.00  0.00    +0.027 C 
ATOM     11  C   UNL     1      33.847 -15.565 -24.640  0.00  0.00    +0.016 C 
ATOM     12  C   UNL     1      34.919 -16.884 -22.428  0.00  0.00    +0.069 C 
ATOM     13  C   UNL     1      34.107 -16.935 -24.702  0.00  0.00    +0.014 C 
ATOM     14  C   UNL     1      34.643 -17.594 -23.596  0.00  0.00    +0.068 C 
ENDBRANCH   3   9
BRANCH   2  15
ATOM     15  S   UNL     1      31.967 -10.268 -22.049  0.00  0.00    +0.077 S 
ATOM     16  O   UNL     1      32.293 -10.294 -20.630  0.00  0.00    -0.150 OA
ATOM     17  O   UNL     1      30.586 -10.447 -22.472  0.00  0.00    -0.150 OA
BRANCH  15  23
ATOM     18  O   UNL     1      33.779  -5.198 -24.379  0.00  0.00    -0.475 OA
ATOM     19  C   UNL     1      32.108  -6.591 -23.612  0.00  0.00    +0.017 C 
ATOM     20  C   UNL     1      31.376  -5.408 -24.113  0.00  0.00    +0.077 C 
ATOM     21  C   UNL     1      33.468  -6.412 -23.821  0.00  0.00    +0.135 C 
ATOM     22  C   UNL     1      32.552  -4.440 -24.257  0.00  0.00    +0.210 C 
ATOM     23  C   UNL     1      32.538  -8.766 -22.734  0.00  0.00    +0.125 C 
ATOM     24  C   UNL     1      31.622  -7.767 -23.073  0.00  0.00    +0.019 C 
ATOM     25  C   UNL     1      34.391  -7.390 -23.505  0.00  0.00    +0.038 C 
ATOM     26  C   UNL     1      33.913  -8.579 -22.950  0.00  0.00    +0.023 C 
ENDBRANCH  15  23
ENDBRANCH   2  15
TORSDOF 3
ENDMDL
