MODEL 1
REMARK VINA RESULT:     -11.9      0.000      0.000
REMARK  Name = 24180717
REMARK  5 active torsions:
REMARK  status: ('A' for Active; 'I' for Inactive)
REMARK    1  A    between atoms: C_14  and  C_18
REMARK    2  A    between atoms: C_15  and  C_30
REMARK    3  A    between atoms: C_21  and  C_22
REMARK    4  A    between atoms: C_23  and  C_24
REMARK    5  A    between atoms: C_30  and  N_31
REMARK                            x       y       z     vdW  Elec       q    Type
REMARK                         _______ _______ _______ _____ _____    ______ ____
ROOT
ATOM      1  O   UNL     1      37.621 -19.464 -20.591  0.00  0.00    -0.475 OA
ATOM      2  O   UNL     1      32.778 -17.347 -25.369  0.00  0.00    -0.267 OA
ATOM      3  N   UNL     1      34.578 -17.271 -23.914  0.00  0.00    -0.274 N 
ATOM      4  C   UNL     1      35.582 -19.111 -21.882  0.00  0.00    +0.065 C 
ATOM      5  C   UNL     1      35.017 -17.719 -21.520  0.00  0.00    +0.029 C 
ATOM      6  C   UNL     1      34.977 -19.595 -23.210  0.00  0.00    +0.029 C 
ATOM      7  C   UNL     1      37.131 -19.121 -21.909  0.00  0.00    +0.209 C 
ATOM      8  C   UNL     1      35.396 -20.060 -20.741  0.00  0.00    +0.014 C 
ATOM      9  C   UNL     1      35.129 -16.714 -22.670  0.00  0.00    +0.094 C 
ATOM     10  C   UNL     1      35.148 -18.558 -24.316  0.00  0.00    +0.094 C 
ATOM     11  C   UNL     1      36.592 -20.188 -20.046  0.00  0.00    +0.135 C 
ATOM     12  C   UNL     1      34.261 -20.725 -20.306  0.00  0.00    -0.008 C 
ATOM     13  C   UNL     1      36.702 -20.958 -18.903  0.00  0.00    +0.036 C 
ATOM     14  C   UNL     1      33.566 -16.682 -24.696  0.00  0.00    +0.284 C 
ATOM     15  C   UNL     1      34.351 -21.520 -19.161  0.00  0.00    -0.044 C 
ATOM     16  C   UNL     1      35.564 -21.634 -18.464  0.00  0.00    -0.003 C 
ENDROOT
BRANCH  14  18
ATOM     17  O   UNL     1      33.114 -14.620 -23.524  0.00  0.00    -0.441 OA
ATOM     18  C   UNL     1      33.471 -15.226 -24.686  0.00  0.00    +0.199 C 
ATOM     19  C   UNL     1      33.683 -14.291 -25.672  0.00  0.00    +0.046 C 
ATOM     20  C   UNL     1      33.440 -13.030 -25.078  0.00  0.00    +0.049 C 
ATOM     21  C   UNL     1      33.098 -13.283 -23.771  0.00  0.00    +0.187 C 
BRANCH  21  22
ATOM     22  C   UNL     1      32.751 -12.430 -22.700  0.00  0.00    -0.023 C 
ATOM     23  C   UNL     1      32.456 -11.704 -21.789  0.00  0.00    -0.057 C 
BRANCH  23  24
ATOM     24  C   UNL     1      32.105 -10.838 -20.705  0.00  0.00    +0.042 C 
ATOM     25  C   UNL     1      31.880 -11.368 -19.435  0.00  0.00    +0.008 C 
ATOM     26  C   UNL     1      31.990  -9.464 -20.918  0.00  0.00    +0.008 C 
ATOM     27  C   UNL     1      31.539 -10.525 -18.377  0.00  0.00    +0.001 C 
ATOM     28  C   UNL     1      31.649  -8.621 -19.862  0.00  0.00    +0.001 C 
ATOM     29  C   UNL     1      31.423  -9.152 -18.591  0.00  0.00    +0.000 C 
ENDBRANCH  23  24
ENDBRANCH  21  22
ENDBRANCH  14  18
BRANCH  15  30
ATOM     30  C   UNL     1      33.145 -22.249 -18.670  0.00  0.00    -0.059 C 
BRANCH  30  31
ATOM     31  N   UNL     1      33.484 -23.530 -18.048  0.00  0.00    +0.383 N 
ATOM     32  H   UNL     1      32.986 -23.621 -17.162  0.00  0.00    -0.089 HD
ATOM     33  H   UNL     1      34.489 -23.570 -17.878  0.00  0.00    -0.089 HD
ATOM     34  H   UNL     1      33.214 -24.292 -18.670  0.00  0.00    -0.089 HD
ENDBRANCH  30  31
ENDBRANCH  15  30
TORSDOF 5
ENDMDL
MODEL 2
REMARK VINA RESULT:      -9.7      4.635      7.647
REMARK  Name = 24180717
REMARK  5 active torsions:
REMARK  status: ('A' for Active; 'I' for Inactive)
REMARK    1  A    between atoms: C_14  and  C_18
REMARK    2  A    between atoms: C_15  and  C_30
REMARK    3  A    between atoms: C_21  and  C_22
REMARK    4  A    between atoms: C_23  and  C_24
REMARK    5  A    between atoms: C_30  and  N_31
REMARK                            x       y       z     vdW  Elec       q    Type
REMARK                         _______ _______ _______ _____ _____    ______ ____
ROOT
ATOM      1  O   UNL     1      33.376 -14.773 -25.439  0.00  0.00    -0.475 OA
ATOM      2  O   UNL     1      31.671 -10.156 -20.286  0.00  0.00    -0.267 OA
ATOM      3  N   UNL     1      32.327 -10.964 -22.355  0.00  0.00    -0.274 N 
ATOM      4  C   UNL     1      33.098 -13.613 -23.311  0.00  0.00    +0.065 C 
ATOM      5  C   UNL     1      34.095 -12.434 -23.270  0.00  0.00    +0.029 C 
ATOM      6  C   UNL     1      31.989 -13.400 -22.267  0.00  0.00    +0.029 C 
ATOM      7  C   UNL     1      32.524 -13.840 -24.732  0.00  0.00    +0.209 C 
ATOM      8  C   UNL     1      33.823 -14.914 -23.179  0.00  0.00    +0.014 C 
ATOM      9  C   UNL     1      33.406 -11.068 -23.347  0.00  0.00    +0.094 C 
ATOM     10  C   UNL     1      31.328 -12.033 -22.420  0.00  0.00    +0.094 C 
ATOM     11  C   UNL     1      33.961 -15.497 -24.432  0.00  0.00    +0.135 C 
ATOM     12  C   UNL     1      34.371 -15.523 -22.061  0.00  0.00    -0.008 C 
ATOM     13  C   UNL     1      34.647 -16.681 -24.623  0.00  0.00    +0.036 C 
ATOM     14  C   UNL     1      32.209  -9.959 -21.376  0.00  0.00    +0.284 C 
ATOM     15  C   UNL     1      35.057 -16.729 -22.228  0.00  0.00    -0.044 C 
ATOM     16  C   UNL     1      35.195 -17.303 -23.501  0.00  0.00    -0.003 C 
ENDROOT
BRANCH  14  18
ATOM     17  O   UNL     1      33.279  -8.456 -22.935  0.00  0.00    -0.441 OA
ATOM     18  C   UNL     1      32.758  -8.645 -21.694  0.00  0.00    +0.199 C 
ATOM     19  C   UNL     1      32.860  -7.494 -20.948  0.00  0.00    +0.046 C 
ATOM     20  C   UNL     1      33.483  -6.537 -21.783  0.00  0.00    +0.049 C 
ATOM     21  C   UNL     1      33.718  -7.170 -22.981  0.00  0.00    +0.187 C 
BRANCH  21  22
ATOM     22  C   UNL     1      34.307  -6.729 -24.187  0.00  0.00    -0.023 C 
ATOM     23  C   UNL     1      34.807  -6.354 -25.212  0.00  0.00    -0.057 C 
BRANCH  23  24
ATOM     24  C   UNL     1      35.402  -5.907 -26.434  0.00  0.00    +0.042 C 
ATOM     25  C   UNL     1      36.376  -4.908 -26.411  0.00  0.00    +0.008 C 
ATOM     26  C   UNL     1      35.010  -6.471 -27.649  0.00  0.00    +0.008 C 
ATOM     27  C   UNL     1      36.957  -4.472 -27.602  0.00  0.00    +0.001 C 
ATOM     28  C   UNL     1      35.591  -6.036 -28.839  0.00  0.00    +0.001 C 
ATOM     29  C   UNL     1      36.564  -5.037 -28.816  0.00  0.00    +0.000 C 
ENDBRANCH  23  24
ENDBRANCH  21  22
ENDBRANCH  14  18
BRANCH  15  30
ATOM     30  C   UNL     1      35.656 -17.408 -21.042  0.00  0.00    -0.059 C 
BRANCH  30  31
ATOM     31  N   UNL     1      35.309 -18.830 -20.981  0.00  0.00    +0.383 N 
ATOM     32  H   UNL     1      35.720 -19.314 -21.780  0.00  0.00    -0.089 HD
ATOM     33  H   UNL     1      34.295 -18.933 -21.006  0.00  0.00    -0.089 HD
ATOM     34  H   UNL     1      35.671 -19.231 -20.117  0.00  0.00    -0.089 HD
ENDBRANCH  30  31
ENDBRANCH  15  30
TORSDOF 5
ENDMDL
MODEL 3
REMARK VINA RESULT:      -9.4      3.820     10.785
REMARK  Name = 24180717
REMARK  5 active torsions:
REMARK  status: ('A' for Active; 'I' for Inactive)
REMARK    1  A    between atoms: C_14  and  C_18
REMARK    2  A    between atoms: C_15  and  C_30
REMARK    3  A    between atoms: C_21  and  C_22
REMARK    4  A    between atoms: C_23  and  C_24
REMARK    5  A    between atoms: C_30  and  N_31
REMARK                            x       y       z     vdW  Elec       q    Type
REMARK                         _______ _______ _______ _____ _____    ______ ____
ROOT
ATOM      1  O   UNL     1      34.048 -18.314 -24.902  0.00  0.00    -0.475 OA
ATOM      2  O   UNL     1      37.408 -19.985 -18.844  0.00  0.00    -0.267 OA
ATOM      3  N   UNL     1      35.979 -20.155 -20.659  0.00  0.00    -0.274 N 
ATOM      4  C   UNL     1      35.132 -18.265 -22.717  0.00  0.00    +0.065 C 
ATOM      5  C   UNL     1      34.146 -18.839 -21.676  0.00  0.00    +0.029 C 
ATOM      6  C   UNL     1      36.564 -18.291 -22.156  0.00  0.00    +0.029 C 
ATOM      7  C   UNL     1      35.028 -18.994 -24.080  0.00  0.00    +0.209 C 
ATOM      8  C   UNL     1      34.678 -16.916 -23.176  0.00  0.00    +0.014 C 
ATOM      9  C   UNL     1      34.586 -20.199 -21.126  0.00  0.00    +0.094 C 
ATOM     10  C   UNL     1      36.945 -19.681 -21.653  0.00  0.00    +0.094 C 
ATOM     11  C   UNL     1      34.053 -17.034 -24.411  0.00  0.00    +0.135 C 
ATOM     12  C   UNL     1      34.755 -15.684 -22.546  0.00  0.00    -0.008 C 
ATOM     13  C   UNL     1      33.477 -15.953 -25.052  0.00  0.00    +0.036 C 
ATOM     14  C   UNL     1      36.421 -20.504 -19.369  0.00  0.00    +0.284 C 
ATOM     15  C   UNL     1      34.192 -14.574 -23.182  0.00  0.00    -0.044 C 
ATOM     16  C   UNL     1      33.556 -14.709 -24.426  0.00  0.00    -0.003 C 
ENDROOT
BRANCH  14  18
ATOM     17  O   UNL     1      36.126 -21.928 -17.441  0.00  0.00    -0.441 OA
ATOM     18  C   UNL     1      35.659 -21.519 -18.649  0.00  0.00    +0.199 C 
ATOM     19  C   UNL     1      34.497 -22.182 -18.967  0.00  0.00    +0.046 C 
ATOM     20  C   UNL     1      34.233 -23.054 -17.885  0.00  0.00    +0.049 C 
ATOM     21  C   UNL     1      35.252 -22.862 -16.982  0.00  0.00    +0.187 C 
BRANCH  21  22
ATOM     22  C   UNL     1      35.526 -23.444 -15.724  0.00  0.00    -0.023 C 
ATOM     23  C   UNL     1      35.760 -23.938 -14.654  0.00  0.00    -0.057 C 
BRANCH  23  24
ATOM     24  C   UNL     1      36.039 -24.526 -13.381  0.00  0.00    +0.042 C 
ATOM     25  C   UNL     1      36.895 -25.624 -13.293  0.00  0.00    +0.008 C 
ATOM     26  C   UNL     1      35.458 -24.001 -12.226  0.00  0.00    +0.008 C 
ATOM     27  C   UNL     1      37.168 -26.199 -12.052  0.00  0.00    +0.001 C 
ATOM     28  C   UNL     1      35.731 -24.575 -10.985  0.00  0.00    +0.001 C 
ATOM     29  C   UNL     1      36.586 -25.673 -10.898  0.00  0.00    +0.000 C 
ENDBRANCH  23  24
ENDBRANCH  21  22
ENDBRANCH  14  18
BRANCH  15  30
ATOM     30  C   UNL     1      34.260 -13.235 -22.528  0.00  0.00    -0.059 C 
BRANCH  30  31
ATOM     31  N   UNL     1      34.278 -12.141 -23.501  0.00  0.00    +0.383 N 
ATOM     32  H   UNL     1      35.206 -11.717 -23.519  0.00  0.00    -0.089 HD
ATOM     33  H   UNL     1      33.589 -11.439 -23.236  0.00  0.00    -0.089 HD
ATOM     34  H   UNL     1      34.053 -12.506 -24.427  0.00  0.00    -0.089 HD
ENDBRANCH  30  31
ENDBRANCH  15  30
TORSDOF 5
ENDMDL
MODEL 4
REMARK VINA RESULT:      -9.4      5.970     12.746
REMARK  Name = 24180717
REMARK  5 active torsions:
REMARK  status: ('A' for Active; 'I' for Inactive)
REMARK    1  A    between atoms: C_14  and  C_18
REMARK    2  A    between atoms: C_15  and  C_30
REMARK    3  A    between atoms: C_21  and  C_22
REMARK    4  A    between atoms: C_23  and  C_24
REMARK    5  A    between atoms: C_30  and  N_31
REMARK                            x       y       z     vdW  Elec       q    Type
REMARK                         _______ _______ _______ _____ _____    ______ ____
ROOT
ATOM      1  O   UNL     1      34.054  -5.845 -27.013  0.00  0.00    -0.475 OA
ATOM      2  O   UNL     1      32.673  -8.039 -20.375  0.00  0.00    -0.267 OA
ATOM      3  N   UNL     1      33.109  -8.120 -22.649  0.00  0.00    -0.274 N 
ATOM      4  C   UNL     1      33.209  -6.082 -24.737  0.00  0.00    +0.065 C 
ATOM      5  C   UNL     1      32.142  -7.199 -24.733  0.00  0.00    +0.029 C 
ATOM      6  C   UNL     1      33.707  -5.825 -23.305  0.00  0.00    +0.029 C 
ATOM      7  C   UNL     1      34.373  -6.393 -25.711  0.00  0.00    +0.209 C 
ATOM      8  C   UNL     1      32.686  -4.866 -25.432  0.00  0.00    +0.014 C 
ATOM      9  C   UNL     1      32.599  -8.456 -23.986  0.00  0.00    +0.094 C 
ATOM     10  C   UNL     1      34.172  -7.113 -22.632  0.00  0.00    +0.094 C 
ATOM     11  C   UNL     1      33.194  -4.817 -26.724  0.00  0.00    +0.135 C 
ATOM     12  C   UNL     1      31.794  -3.900 -24.995  0.00  0.00    -0.008 C 
ATOM     13  C   UNL     1      32.832  -3.830 -27.622  0.00  0.00    +0.036 C 
ATOM     14  C   UNL     1      32.646  -8.665 -21.436  0.00  0.00    +0.284 C 
ATOM     15  C   UNL     1      31.424  -2.884 -25.880  0.00  0.00    -0.044 C 
ATOM     16  C   UNL     1      31.939  -2.851 -27.186  0.00  0.00    -0.003 C 
ENDROOT
BRANCH  14  18
ATOM     17  O   UNL     1      32.987 -11.041 -21.697  0.00  0.00    -0.441 OA
ATOM     18  C   UNL     1      32.116 -10.024 -21.469  0.00  0.00    +0.199 C 
ATOM     19  C   UNL     1      30.840 -10.509 -21.307  0.00  0.00    +0.046 C 
ATOM     20  C   UNL     1      30.932 -11.915 -21.444  0.00  0.00    +0.049 C 
ATOM     21  C   UNL     1      32.259 -12.189 -21.680  0.00  0.00    +0.187 C 
BRANCH  21  22
ATOM     22  C   UNL     1      32.952 -13.400 -21.895  0.00  0.00    -0.023 C 
ATOM     23  C   UNL     1      33.542 -14.431 -22.079  0.00  0.00    -0.057 C 
BRANCH  23  24
ATOM     24  C   UNL     1      34.243 -15.659 -22.297  0.00  0.00    +0.042 C 
ATOM     25  C   UNL     1      34.893 -16.288 -21.236  0.00  0.00    +0.008 C 
ATOM     26  C   UNL     1      34.275 -16.228 -23.570  0.00  0.00    +0.008 C 
ATOM     27  C   UNL     1      35.577 -17.485 -21.447  0.00  0.00    +0.001 C 
ATOM     28  C   UNL     1      34.958 -17.425 -23.782  0.00  0.00    +0.001 C 
ATOM     29  C   UNL     1      35.609 -18.054 -22.721  0.00  0.00    +0.000 C 
ENDBRANCH  23  24
ENDBRANCH  21  22
ENDBRANCH  14  18
BRANCH  15  30
ATOM     30  C   UNL     1      30.467  -1.829 -25.437  0.00  0.00    -0.059 C 
BRANCH  30  31
ATOM     31  N   UNL     1      29.262  -2.393 -24.825  0.00  0.00    +0.383 N 
ATOM     32  H   UNL     1      28.498  -1.720 -24.895  0.00  0.00    -0.089 HD
ATOM     33  H   UNL     1      29.444  -2.599 -23.843  0.00  0.00    -0.089 HD
ATOM     34  H   UNL     1      29.004  -3.252 -25.311  0.00  0.00    -0.089 HD
ENDBRANCH  30  31
ENDBRANCH  15  30
TORSDOF 5
ENDMDL
MODEL 5
REMARK VINA RESULT:      -9.3      2.810      3.644
REMARK  Name = 24180717
REMARK  5 active torsions:
REMARK  status: ('A' for Active; 'I' for Inactive)
REMARK    1  A    between atoms: C_14  and  C_18
REMARK    2  A    between atoms: C_15  and  C_30
REMARK    3  A    between atoms: C_21  and  C_22
REMARK    4  A    between atoms: C_23  and  C_24
REMARK    5  A    between atoms: C_30  and  N_31
REMARK                            x       y       z     vdW  Elec       q    Type
REMARK                         _______ _______ _______ _____ _____    ______ ____
ROOT
ATOM      1  O   UNL     1      37.568 -18.808 -20.361  0.00  0.00    -0.475 OA
ATOM      2  O   UNL     1      32.688 -15.263 -24.154  0.00  0.00    -0.267 OA
ATOM      3  N   UNL     1      34.452 -15.661 -22.708  0.00  0.00    -0.274 N 
ATOM      4  C   UNL     1      35.534 -18.089 -21.500  0.00  0.00    +0.065 C 
ATOM      5  C   UNL     1      34.875 -16.977 -20.654  0.00  0.00    +0.029 C 
ATOM      6  C   UNL     1      34.986 -18.053 -22.936  0.00  0.00    +0.029 C 
ATOM      7  C   UNL     1      37.081 -18.007 -21.464  0.00  0.00    +0.209 C 
ATOM      8  C   UNL     1      35.389 -19.414 -20.822  0.00  0.00    +0.014 C 
ATOM      9  C   UNL     1      34.943 -15.601 -21.324  0.00  0.00    +0.094 C 
ATOM     10  C   UNL     1      35.111 -16.661 -23.550  0.00  0.00    +0.094 C 
ATOM     11  C   UNL     1      36.577 -19.738 -20.180  0.00  0.00    +0.135 C 
ATOM     12  C   UNL     1      34.290 -20.253 -20.724  0.00  0.00    -0.008 C 
ATOM     13  C   UNL     1      36.715 -20.883 -19.418  0.00  0.00    +0.036 C 
ATOM     14  C   UNL     1      33.419 -14.869 -23.244  0.00  0.00    +0.284 C 
ATOM     15  C   UNL     1      34.411 -21.424 -19.970  0.00  0.00    -0.044 C 
ATOM     16  C   UNL     1      35.615 -21.735 -19.320  0.00  0.00    -0.003 C 
ENDROOT
BRANCH  14  18
ATOM     17  O   UNL     1      33.538 -12.467 -23.455  0.00  0.00    -0.441 OA
ATOM     18  C   UNL     1      33.231 -13.538 -22.678  0.00  0.00    +0.199 C 
ATOM     19  C   UNL     1      32.779 -13.126 -21.447  0.00  0.00    +0.046 C 
ATOM     20  C   UNL     1      32.811 -11.711 -21.468  0.00  0.00    +0.049 C 
ATOM     21  C   UNL     1      33.280 -11.359 -22.711  0.00  0.00    +0.187 C 
BRANCH  21  22
ATOM     22  C   UNL     1      33.524 -10.103 -23.311  0.00  0.00    -0.023 C 
ATOM     23  C   UNL     1      33.731  -9.035 -23.821  0.00  0.00    -0.057 C 
BRANCH  23  24
ATOM     24  C   UNL     1      33.978  -7.763 -24.427  0.00  0.00    +0.042 C 
ATOM     25  C   UNL     1      32.947  -7.094 -25.087  0.00  0.00    +0.008 C 
ATOM     26  C   UNL     1      35.248  -7.191 -24.357  0.00  0.00    +0.008 C 
ATOM     27  C   UNL     1      33.186  -5.853 -25.678  0.00  0.00    +0.001 C 
ATOM     28  C   UNL     1      35.488  -5.951 -24.948  0.00  0.00    +0.001 C 
ATOM     29  C   UNL     1      34.457  -5.282 -25.608  0.00  0.00    +0.000 C 
ENDBRANCH  23  24
ENDBRANCH  21  22
ENDBRANCH  14  18
BRANCH  15  30
ATOM     30  C   UNL     1      33.245 -22.347 -19.848  0.00  0.00    -0.059 C 
BRANCH  30  31
ATOM     31  N   UNL     1      32.675 -22.348 -18.499  0.00  0.00    +0.383 N 
ATOM     32  H   UNL     1      33.174 -21.673 -17.919  0.00  0.00    -0.089 HD
ATOM     33  H   UNL     1      32.766 -23.279 -18.093  0.00  0.00    -0.089 HD
ATOM     34  H   UNL     1      31.689 -22.093 -18.547  0.00  0.00    -0.089 HD
ENDBRANCH  30  31
ENDBRANCH  15  30
TORSDOF 5
ENDMDL
MODEL 6
REMARK VINA RESULT:      -9.2      5.187      7.738
REMARK  Name = 24180717
REMARK  5 active torsions:
REMARK  status: ('A' for Active; 'I' for Inactive)
REMARK    1  A    between atoms: C_14  and  C_18
REMARK    2  A    between atoms: C_15  and  C_30
REMARK    3  A    between atoms: C_21  and  C_22
REMARK    4  A    between atoms: C_23  and  C_24
REMARK    5  A    between atoms: C_30  and  N_31
REMARK                            x       y       z     vdW  Elec       q    Type
REMARK                         _______ _______ _______ _____ _____    ______ ____
ROOT
ATOM      1  O   UNL     1      33.450 -15.112 -25.531  0.00  0.00    -0.475 OA
ATOM      2  O   UNL     1      32.424  -9.579 -21.160  0.00  0.00    -0.267 OA
ATOM      3  N   UNL     1      32.921 -10.771 -23.082  0.00  0.00    -0.274 N 
ATOM      4  C   UNL     1      33.367 -13.608 -23.613  0.00  0.00    +0.065 C 
ATOM      5  C   UNL     1      34.489 -12.558 -23.774  0.00  0.00    +0.029 C 
ATOM      6  C   UNL     1      32.322 -13.109 -22.601  0.00  0.00    +0.029 C 
ATOM      7  C   UNL     1      32.728 -13.989 -24.971  0.00  0.00    +0.209 C 
ATOM      8  C   UNL     1      33.950 -14.945 -23.284  0.00  0.00    +0.014 C 
ATOM      9  C   UNL     1      33.952 -11.152 -24.059  0.00  0.00    +0.094 C 
ATOM     10  C   UNL     1      31.810 -11.717 -22.961  0.00  0.00    +0.094 C 
ATOM     11  C   UNL     1      33.983 -15.730 -24.429  0.00  0.00    +0.135 C 
ATOM     12  C   UNL     1      34.462 -15.429 -22.090  0.00  0.00    -0.008 C 
ATOM     13  C   UNL     1      34.529 -17.000 -24.438  0.00  0.00    +0.036 C 
ATOM     14  C   UNL     1      32.946  -9.618 -22.275  0.00  0.00    +0.284 C 
ATOM     15  C   UNL     1      35.006 -16.715 -22.071  0.00  0.00    -0.044 C 
ATOM     16  C   UNL     1      35.041 -17.495 -23.238  0.00  0.00    -0.003 C 
ENDROOT
BRANCH  14  18
ATOM     17  O   UNL     1      32.933  -7.634 -23.651  0.00  0.00    -0.441 OA
ATOM     18  C   UNL     1      33.625  -8.441 -22.806  0.00  0.00    +0.199 C 
ATOM     19  C   UNL     1      34.897  -7.958 -22.612  0.00  0.00    +0.046 C 
ATOM     20  C   UNL     1      34.994  -6.778 -23.388  0.00  0.00    +0.049 C 
ATOM     21  C   UNL     1      33.773  -6.624 -24.001  0.00  0.00    +0.187 C 
BRANCH  21  22
ATOM     22  C   UNL     1      33.273  -5.642 -24.885  0.00  0.00    -0.023 C 
ATOM     23  C   UNL     1      32.848  -4.807 -25.637  0.00  0.00    -0.057 C 
BRANCH  23  24
ATOM     24  C   UNL     1      32.341  -3.814 -26.534  0.00  0.00    +0.042 C 
ATOM     25  C   UNL     1      31.578  -2.756 -26.042  0.00  0.00    +0.008 C 
ATOM     26  C   UNL     1      32.611  -3.903 -27.900  0.00  0.00    +0.008 C 
ATOM     27  C   UNL     1      31.083  -1.786 -26.915  0.00  0.00    +0.001 C 
ATOM     28  C   UNL     1      32.118  -2.935 -28.773  0.00  0.00    +0.001 C 
ATOM     29  C   UNL     1      31.354  -1.877 -28.281  0.00  0.00    +0.000 C 
ENDBRANCH  23  24
ENDBRANCH  21  22
ENDBRANCH  14  18
BRANCH  15  30
ATOM     30  C   UNL     1      35.564 -17.263 -20.800  0.00  0.00    -0.059 C 
BRANCH  30  31
ATOM     31  N   UNL     1      35.517 -18.726 -20.758  0.00  0.00    +0.383 N 
ATOM     32  H   UNL     1      35.853 -19.051 -19.850  0.00  0.00    -0.089 HD
ATOM     33  H   UNL     1      36.110 -19.107 -21.495  0.00  0.00    -0.089 HD
ATOM     34  H   UNL     1      34.557 -19.040 -20.897  0.00  0.00    -0.089 HD
ENDBRANCH  30  31
ENDBRANCH  15  30
TORSDOF 5
ENDMDL
