MODEL 1
REMARK VINA RESULT:     -11.4      0.000      0.000
REMARK  Name = 445579
REMARK  10 active torsions:
REMARK  status: ('A' for Active; 'I' for Inactive)
REMARK    1  A    between atoms: C_1  and  O_18
REMARK    2  A    between atoms: C_4  and  C_9
REMARK    3  A    between atoms: N_8  and  C_11
REMARK    4  A    between atoms: C_11  and  C_12
REMARK    5  A    between atoms: O_18  and  C_24
REMARK    6  A    between atoms: C_20  and  O_27
REMARK    7  A    between atoms: C_21  and  O_25
REMARK    8  A    between atoms: C_22  and  C_31
REMARK    9  A    between atoms: C_23  and  O_29
REMARK   10  A    between atoms: C_31  and  O_32
REMARK                            x       y       z     vdW  Elec       q    Type
REMARK                         _______ _______ _______ _____ _____    ______ ____
ROOT
ATOM      1  C   UNL     1      34.085 -23.518 -14.867  0.00  0.00    +0.142 C 
ATOM      2  C   UNL     1      34.291 -23.258 -16.218  0.00  0.00    +0.042 C 
ATOM      3  C   UNL     1      32.794 -23.609 -14.354  0.00  0.00    +0.037 C 
ATOM      4  C   UNL     1      33.196 -23.085 -17.065  0.00  0.00    +0.056 C 
ATOM      5  C   UNL     1      31.700 -23.437 -15.201  0.00  0.00    +0.003 C 
ATOM      6  C   UNL     1      31.900 -23.175 -16.556  0.00  0.00    +0.005 C 
ENDROOT
BRANCH   4   9
ATOM      7  O   UNL     1      33.764 -23.697 -19.269  0.00  0.00    -0.270 OA
ATOM      8  N   UNL     1      33.147 -21.508 -18.898  0.00  0.00    -0.297 N 
ATOM      9  C   UNL     1      33.405 -22.814 -18.478  0.00  0.00    +0.246 C 
ATOM     10  H   UNL     1      32.863 -20.843 -18.228  0.00  0.00    +0.150 HD
BRANCH   8  11
ATOM     11  C   UNL     1      33.279 -21.089 -20.275  0.00  0.00    +0.117 C 
BRANCH  11  12
ATOM     12  C   UNL     1      34.573 -20.371 -20.524  0.00  0.00    -0.003 C 
ATOM     13  C   UNL     1      34.595 -19.265 -21.366  0.00  0.00    -0.003 C 
ATOM     14  C   UNL     1      35.738 -20.819 -19.910  0.00  0.00    -0.003 C 
ATOM     15  C   UNL     1      35.799 -18.598 -21.598  0.00  0.00    -0.000 C 
ATOM     16  C   UNL     1      36.940 -20.151 -20.141  0.00  0.00    -0.000 C 
ATOM     17  C   UNL     1      36.970 -19.041 -20.985  0.00  0.00    -0.000 C 
ENDBRANCH  11  12
ENDBRANCH   8  11
ENDBRANCH   4   9
BRANCH   1  18
ATOM     18  O   UNL     1      35.159 -23.688 -14.037  0.00  0.00    -0.451 OA
BRANCH  18  24
ATOM     19  O   UNL     1      36.283 -25.762 -13.857  0.00  0.00    -0.316 OA
ATOM     20  C   UNL     1      37.908 -24.969 -12.213  0.00  0.00    +0.169 C 
ATOM     21  C   UNL     1      36.825 -24.093 -11.576  0.00  0.00    +0.173 C 
ATOM     22  C   UNL     1      37.597 -25.204 -13.697  0.00  0.00    +0.177 C 
ATOM     23  C   UNL     1      35.442 -24.686 -11.845  0.00  0.00    +0.210 C 
ATOM     24  C   UNL     1      35.240 -24.931 -13.342  0.00  0.00    +0.318 C 
BRANCH  21  25
ATOM     25  O   UNL     1      37.034 -24.005 -10.170  0.00  0.00    -0.379 OA
ATOM     26  H   UNL     1      36.236 -23.653  -9.745  0.00  0.00    +0.211 HD
ENDBRANCH  21  25
BRANCH  20  27
ATOM     27  O   UNL     1      37.956 -26.231 -11.545  0.00  0.00    -0.379 OA
ATOM     28  H   UNL     1      37.136 -26.363 -11.043  0.00  0.00    +0.211 HD
ENDBRANCH  20  27
BRANCH  23  29
ATOM     29  O   UNL     1      34.426 -23.808 -11.370  0.00  0.00    -0.377 OA
ATOM     30  H   UNL     1      33.739 -23.711 -12.049  0.00  0.00    +0.211 HD
ENDBRANCH  23  29
BRANCH  22  31
ATOM     31  C   UNL     1      38.579 -26.169 -14.351  0.00  0.00    +0.169 C 
BRANCH  31  32
ATOM     32  O   UNL     1      38.093 -27.490 -14.188  0.00  0.00    -0.379 OA
ATOM     33  H   UNL     1      38.819 -28.071 -13.916  0.00  0.00    +0.211 HD
ENDBRANCH  31  32
ENDBRANCH  22  31
ENDBRANCH  18  24
ENDBRANCH   1  18
TORSDOF 10
ENDMDL
MODEL 2
REMARK VINA RESULT:     -11.4      1.676      2.847
REMARK  Name = 445579
REMARK  10 active torsions:
REMARK  status: ('A' for Active; 'I' for Inactive)
REMARK    1  A    between atoms: C_1  and  O_18
REMARK    2  A    between atoms: C_4  and  C_9
REMARK    3  A    between atoms: N_8  and  C_11
REMARK    4  A    between atoms: C_11  and  C_12
REMARK    5  A    between atoms: O_18  and  C_24
REMARK    6  A    between atoms: C_20  and  O_27
REMARK    7  A    between atoms: C_21  and  O_25
REMARK    8  A    between atoms: C_22  and  C_31
REMARK    9  A    between atoms: C_23  and  O_29
REMARK   10  A    between atoms: C_31  and  O_32
REMARK                            x       y       z     vdW  Elec       q    Type
REMARK                         _______ _______ _______ _____ _____    ______ ____
ROOT
ATOM      1  C   UNL     1      33.216 -24.845 -13.898  0.00  0.00    +0.142 C 
ATOM      2  C   UNL     1      33.009 -24.082 -15.044  0.00  0.00    +0.042 C 
ATOM      3  C   UNL     1      32.135 -25.315 -13.158  0.00  0.00    +0.037 C 
ATOM      4  C   UNL     1      31.709 -23.787 -15.453  0.00  0.00    +0.056 C 
ATOM      5  C   UNL     1      30.835 -25.020 -13.569  0.00  0.00    +0.003 C 
ATOM      6  C   UNL     1      30.622 -24.256 -14.716  0.00  0.00    +0.005 C 
ENDROOT
BRANCH   4   9
ATOM      7  O   UNL     1      30.402 -22.439 -16.878  0.00  0.00    -0.270 OA
ATOM      8  N   UNL     1      32.578 -22.859 -17.511  0.00  0.00    -0.297 N 
ATOM      9  C   UNL     1      31.487 -22.991 -16.650  0.00  0.00    +0.246 C 
ATOM     10  H   UNL     1      33.419 -23.319 -17.282  0.00  0.00    +0.150 HD
BRANCH   8  11
ATOM     11  C   UNL     1      32.526 -22.075 -18.724  0.00  0.00    +0.117 C 
BRANCH  11  12
ATOM     12  C   UNL     1      33.890 -21.631 -19.165  0.00  0.00    -0.003 C 
ATOM     13  C   UNL     1      34.011 -20.678 -20.171  0.00  0.00    -0.003 C 
ATOM     14  C   UNL     1      35.020 -22.176 -18.565  0.00  0.00    -0.003 C 
ATOM     15  C   UNL     1      35.279 -20.266 -20.582  0.00  0.00    -0.000 C 
ATOM     16  C   UNL     1      36.286 -21.763 -18.976  0.00  0.00    -0.000 C 
ATOM     17  C   UNL     1      36.416 -20.808 -19.984  0.00  0.00    -0.000 C 
ENDBRANCH  11  12
ENDBRANCH   8  11
ENDBRANCH   4   9
BRANCH   1  18
ATOM     18  O   UNL     1      34.491 -25.134 -13.496  0.00  0.00    -0.451 OA
BRANCH  18  24
ATOM     19  O   UNL     1      36.274 -23.578 -13.499  0.00  0.00    -0.316 OA
ATOM     20  C   UNL     1      37.956 -25.198 -12.779  0.00  0.00    +0.169 C 
ATOM     21  C   UNL     1      37.260 -26.279 -13.612  0.00  0.00    +0.173 C 
ATOM     22  C   UNL     1      36.947 -24.124 -12.353  0.00  0.00    +0.177 C 
ATOM     23  C   UNL     1      36.492 -25.641 -14.769  0.00  0.00    +0.210 C 
ATOM     24  C   UNL     1      35.549 -24.551 -14.255  0.00  0.00    +0.318 C 
BRANCH  21  25
ATOM     25  O   UNL     1      38.224 -27.190 -14.132  0.00  0.00    -0.379 OA
ATOM     26  H   UNL     1      39.100 -26.973 -13.776  0.00  0.00    +0.211 HD
ENDBRANCH  21  25
BRANCH  20  27
ATOM     27  O   UNL     1      38.986 -24.584 -13.558  0.00  0.00    -0.379 OA
ATOM     28  H   UNL     1      38.861 -24.810 -14.493  0.00  0.00    +0.211 HD
ENDBRANCH  20  27
BRANCH  23  29
ATOM     29  O   UNL     1      35.737 -26.628 -15.465  0.00  0.00    -0.377 OA
ATOM     30  H   UNL     1      36.125 -26.772 -16.343  0.00  0.00    +0.211 HD
ENDBRANCH  23  29
BRANCH  22  31
ATOM     31  C   UNL     1      37.610 -22.961 -11.624  0.00  0.00    +0.169 C 
BRANCH  31  32
ATOM     32  O   UNL     1      38.869 -23.391 -11.137  0.00  0.00    -0.379 OA
ATOM     33  H   UNL     1      38.769 -23.728 -10.234  0.00  0.00    +0.211 HD
ENDBRANCH  31  32
ENDBRANCH  22  31
ENDBRANCH  18  24
ENDBRANCH   1  18
TORSDOF 10
ENDMDL
MODEL 3
REMARK VINA RESULT:     -11.2      1.604      2.750
REMARK  Name = 445579
REMARK  10 active torsions:
REMARK  status: ('A' for Active; 'I' for Inactive)
REMARK    1  A    between atoms: C_1  and  O_18
REMARK    2  A    between atoms: C_4  and  C_9
REMARK    3  A    between atoms: N_8  and  C_11
REMARK    4  A    between atoms: C_11  and  C_12
REMARK    5  A    between atoms: O_18  and  C_24
REMARK    6  A    between atoms: C_20  and  O_27
REMARK    7  A    between atoms: C_21  and  O_25
REMARK    8  A    between atoms: C_22  and  C_31
REMARK    9  A    between atoms: C_23  and  O_29
REMARK   10  A    between atoms: C_31  and  O_32
REMARK                            x       y       z     vdW  Elec       q    Type
REMARK                         _______ _______ _______ _____ _____    ______ ____
ROOT
ATOM      1  C   UNL     1      33.997 -24.603 -14.277  0.00  0.00    +0.142 C 
ATOM      2  C   UNL     1      33.628 -23.878 -15.406  0.00  0.00    +0.042 C 
ATOM      3  C   UNL     1      33.028 -25.121 -13.422  0.00  0.00    +0.037 C 
ATOM      4  C   UNL     1      32.276 -23.667 -15.681  0.00  0.00    +0.056 C 
ATOM      5  C   UNL     1      31.678 -24.911 -13.699  0.00  0.00    +0.003 C 
ATOM      6  C   UNL     1      31.302 -24.184 -14.828  0.00  0.00    +0.005 C 
ENDROOT
BRANCH   4   9
ATOM      7  O   UNL     1      30.745 -22.442 -16.989  0.00  0.00    -0.270 OA
ATOM      8  N   UNL     1      32.877 -22.712 -17.821  0.00  0.00    -0.297 N 
ATOM      9  C   UNL     1      31.885 -22.910 -16.860  0.00  0.00    +0.246 C 
ATOM     10  H   UNL     1      33.768 -23.105 -17.668  0.00  0.00    +0.150 HD
BRANCH   8  11
ATOM     11  C   UNL     1      32.653 -21.955 -19.031  0.00  0.00    +0.117 C 
BRANCH  11  12
ATOM     12  C   UNL     1      33.919 -21.338 -19.551  0.00  0.00    -0.003 C 
ATOM     13  C   UNL     1      33.851 -20.337 -20.514  0.00  0.00    -0.003 C 
ATOM     14  C   UNL     1      35.147 -21.773 -19.065  0.00  0.00    -0.003 C 
ATOM     15  C   UNL     1      35.028 -19.764 -20.998  0.00  0.00    -0.000 C 
ATOM     16  C   UNL     1      36.323 -21.198 -19.548  0.00  0.00    -0.000 C 
ATOM     17  C   UNL     1      36.263 -20.194 -20.514  0.00  0.00    -0.000 C 
ENDBRANCH  11  12
ENDBRANCH   8  11
ENDBRANCH   4   9
BRANCH   1  18
ATOM     18  O   UNL     1      35.322 -24.810 -14.006  0.00  0.00    -0.451 OA
BRANCH  18  24
ATOM     19  O   UNL     1      35.952 -23.383 -12.227  0.00  0.00    -0.316 OA
ATOM     20  C   UNL     1      37.957 -24.656 -11.649  0.00  0.00    +0.169 C 
ATOM     21  C   UNL     1      38.188 -24.952 -13.134  0.00  0.00    +0.173 C 
ATOM     22  C   UNL     1      36.464 -24.423 -11.379  0.00  0.00    +0.177 C 
ATOM     23  C   UNL     1      37.554 -23.860 -13.994  0.00  0.00    +0.210 C 
ATOM     24  C   UNL     1      36.082 -23.665 -13.622  0.00  0.00    +0.318 C 
BRANCH  21  25
ATOM     25  O   UNL     1      39.584 -25.015 -13.407  0.00  0.00    -0.379 OA
ATOM     26  H   UNL     1      39.897 -25.926 -13.287  0.00  0.00    +0.211 HD
ENDBRANCH  21  25
BRANCH  20  27
ATOM     27  O   UNL     1      38.683 -23.482 -11.277  0.00  0.00    -0.379 OA
ATOM     28  H   UNL     1      39.599 -23.722 -11.067  0.00  0.00    +0.211 HD
ENDBRANCH  20  27
BRANCH  23  29
ATOM     29  O   UNL     1      37.650 -24.199 -15.374  0.00  0.00    -0.377 OA
ATOM     30  H   UNL     1      36.868 -23.867 -15.843  0.00  0.00    +0.211 HD
ENDBRANCH  23  29
BRANCH  22  31
ATOM     31  C   UNL     1      36.193 -24.005  -9.938  0.00  0.00    +0.169 C 
BRANCH  31  32
ATOM     32  O   UNL     1      35.337 -24.964  -9.342  0.00  0.00    -0.379 OA
ATOM     33  H   UNL     1      35.358 -24.862  -8.379  0.00  0.00    +0.211 HD
ENDBRANCH  31  32
ENDBRANCH  22  31
ENDBRANCH  18  24
ENDBRANCH   1  18
TORSDOF 10
ENDMDL
MODEL 4
REMARK VINA RESULT:     -11.2      1.883      2.639
REMARK  Name = 445579
REMARK  10 active torsions:
REMARK  status: ('A' for Active; 'I' for Inactive)
REMARK    1  A    between atoms: C_1  and  O_18
REMARK    2  A    between atoms: C_4  and  C_9
REMARK    3  A    between atoms: N_8  and  C_11
REMARK    4  A    between atoms: C_11  and  C_12
REMARK    5  A    between atoms: O_18  and  C_24
REMARK    6  A    between atoms: C_20  and  O_27
REMARK    7  A    between atoms: C_21  and  O_25
REMARK    8  A    between atoms: C_22  and  C_31
REMARK    9  A    between atoms: C_23  and  O_29
REMARK   10  A    between atoms: C_31  and  O_32
REMARK                            x       y       z     vdW  Elec       q    Type
REMARK                         _______ _______ _______ _____ _____    ______ ____
ROOT
ATOM      1  C   UNL     1      32.682 -24.362 -13.391  0.00  0.00    +0.142 C 
ATOM      2  C   UNL     1      32.518 -23.597 -14.543  0.00  0.00    +0.042 C 
ATOM      3  C   UNL     1      31.750 -25.339 -13.054  0.00  0.00    +0.037 C 
ATOM      4  C   UNL     1      31.411 -23.812 -15.364  0.00  0.00    +0.056 C 
ATOM      5  C   UNL     1      30.644 -25.553 -13.877  0.00  0.00    +0.003 C 
ATOM      6  C   UNL     1      30.475 -24.790 -15.032  0.00  0.00    +0.005 C 
ENDROOT
BRANCH   4   9
ATOM      7  O   UNL     1      30.155 -22.479 -16.848  0.00  0.00    -0.270 OA
ATOM      8  N   UNL     1      32.365 -22.866 -17.376  0.00  0.00    -0.297 N 
ATOM      9  C   UNL     1      31.236 -23.016 -16.569  0.00  0.00    +0.246 C 
ATOM     10  H   UNL     1      33.201 -23.314 -17.108  0.00  0.00    +0.150 HD
BRANCH   8  11
ATOM     11  C   UNL     1      32.359 -22.080 -18.589  0.00  0.00    +0.117 C 
BRANCH  11  12
ATOM     12  C   UNL     1      33.747 -21.706 -19.022  0.00  0.00    -0.003 C 
ATOM     13  C   UNL     1      34.844 -22.275 -18.385  0.00  0.00    -0.003 C 
ATOM     14  C   UNL     1      33.922 -20.793 -20.057  0.00  0.00    -0.003 C 
ATOM     15  C   UNL     1      36.133 -21.927 -18.788  0.00  0.00    -0.000 C 
ATOM     16  C   UNL     1      35.212 -20.446 -20.459  0.00  0.00    -0.000 C 
ATOM     17  C   UNL     1      36.317 -21.013 -19.825  0.00  0.00    -0.000 C 
ENDBRANCH  11  12
ENDBRANCH   8  11
ENDBRANCH   4   9
BRANCH   1  18
ATOM     18  O   UNL     1      33.767 -24.151 -12.585  0.00  0.00    -0.451 OA
BRANCH  18  24
ATOM     19  O   UNL     1      35.571 -24.834 -13.956  0.00  0.00    -0.316 OA
ATOM     20  C   UNL     1      37.202 -23.358 -12.891  0.00  0.00    +0.169 C 
ATOM     21  C   UNL     1      36.522 -23.594 -11.539  0.00  0.00    +0.173 C 
ATOM     22  C   UNL     1      36.194 -23.542 -14.033  0.00  0.00    +0.177 C 
ATOM     23  C   UNL     1      35.806 -24.944 -11.538  0.00  0.00    +0.210 C 
ATOM     24  C   UNL     1      34.860 -25.056 -12.735  0.00  0.00    +0.318 C 
BRANCH  21  25
ATOM     25  O   UNL     1      37.491 -23.573 -10.496  0.00  0.00    -0.379 OA
ATOM     26  H   UNL     1      38.301 -24.013 -10.797  0.00  0.00    +0.211 HD
ENDBRANCH  21  25
BRANCH  20  27
ATOM     27  O   UNL     1      38.268 -24.296 -13.059  0.00  0.00    -0.379 OA
ATOM     28  H   UNL     1      38.686 -24.467 -12.201  0.00  0.00    +0.211 HD
ENDBRANCH  20  27
BRANCH  23  29
ATOM     29  O   UNL     1      35.062 -25.108 -10.334  0.00  0.00    -0.377 OA
ATOM     30  H   UNL     1      34.564 -24.296 -10.148  0.00  0.00    +0.211 HD
ENDBRANCH  23  29
BRANCH  22  31
ATOM     31  C   UNL     1      36.847 -23.437 -15.406  0.00  0.00    +0.169 C 
BRANCH  31  32
ATOM     32  O   UNL     1      37.695 -22.303 -15.419  0.00  0.00    -0.379 OA
ATOM     33  H   UNL     1      37.732 -21.916 -14.531  0.00  0.00    +0.211 HD
ENDBRANCH  31  32
ENDBRANCH  22  31
ENDBRANCH  18  24
ENDBRANCH   1  18
TORSDOF 10
ENDMDL
MODEL 5
REMARK VINA RESULT:     -11.0      2.528      4.315
REMARK  Name = 445579
REMARK  10 active torsions:
REMARK  status: ('A' for Active; 'I' for Inactive)
REMARK    1  A    between atoms: C_1  and  O_18
REMARK    2  A    between atoms: C_4  and  C_9
REMARK    3  A    between atoms: N_8  and  C_11
REMARK    4  A    between atoms: C_11  and  C_12
REMARK    5  A    between atoms: O_18  and  C_24
REMARK    6  A    between atoms: C_20  and  O_27
REMARK    7  A    between atoms: C_21  and  O_25
REMARK    8  A    between atoms: C_22  and  C_31
REMARK    9  A    between atoms: C_23  and  O_29
REMARK   10  A    between atoms: C_31  and  O_32
REMARK                            x       y       z     vdW  Elec       q    Type
REMARK                         _______ _______ _______ _____ _____    ______ ____
ROOT
ATOM      1  C   UNL     1      35.083 -22.489 -18.037  0.00  0.00    +0.142 C 
ATOM      2  C   UNL     1      35.771 -21.550 -18.799  0.00  0.00    +0.042 C 
ATOM      3  C   UNL     1      33.716 -22.681 -18.218  0.00  0.00    +0.037 C 
ATOM      4  C   UNL     1      35.085 -20.795 -19.752  0.00  0.00    +0.056 C 
ATOM      5  C   UNL     1      33.032 -21.927 -19.171  0.00  0.00    +0.003 C 
ATOM      6  C   UNL     1      33.716 -20.985 -19.938  0.00  0.00    +0.005 C 
ENDROOT
BRANCH   4   9
ATOM      7  O   UNL     1      36.994 -19.551 -20.355  0.00  0.00    -0.270 OA
ATOM      8  N   UNL     1      35.070 -19.207 -21.576  0.00  0.00    -0.297 N 
ATOM      9  C   UNL     1      35.800 -19.813 -20.552  0.00  0.00    +0.246 C 
ATOM     10  H   UNL     1      34.122 -19.452 -21.690  0.00  0.00    +0.150 HD
BRANCH   8  11
ATOM     11  C   UNL     1      35.647 -18.234 -22.476  0.00  0.00    +0.117 C 
BRANCH  11  12
ATOM     12  C   UNL     1      35.161 -16.844 -22.188  0.00  0.00    -0.003 C 
ATOM     13  C   UNL     1      34.941 -15.961 -23.240  0.00  0.00    -0.003 C 
ATOM     14  C   UNL     1      34.936 -16.451 -20.873  0.00  0.00    -0.003 C 
ATOM     15  C   UNL     1      34.490 -14.668 -22.972  0.00  0.00    -0.000 C 
ATOM     16  C   UNL     1      34.484 -15.159 -20.607  0.00  0.00    -0.000 C 
ATOM     17  C   UNL     1      34.261 -14.267 -21.656  0.00  0.00    -0.000 C 
ENDBRANCH  11  12
ENDBRANCH   8  11
ENDBRANCH   4   9
BRANCH   1  18
ATOM     18  O   UNL     1      35.755 -23.229 -17.102  0.00  0.00    -0.451 OA
BRANCH  18  24
ATOM     19  O   UNL     1      34.641 -22.839 -15.051  0.00  0.00    -0.316 OA
ATOM     20  C   UNL     1      35.416 -24.907 -14.005  0.00  0.00    +0.169 C 
ATOM     21  C   UNL     1      36.758 -24.760 -14.728  0.00  0.00    +0.173 C 
ATOM     22  C   UNL     1      34.304 -24.213 -14.803  0.00  0.00    +0.177 C 
ATOM     23  C   UNL     1      37.031 -23.289 -15.041  0.00  0.00    +0.210 C 
ATOM     24  C   UNL     1      35.851 -22.670 -15.793  0.00  0.00    +0.318 C 
BRANCH  21  25
ATOM     25  O   UNL     1      37.809 -25.270 -13.912  0.00  0.00    -0.379 OA
ATOM     26  H   UNL     1      38.366 -24.538 -13.605  0.00  0.00    +0.211 HD
ENDBRANCH  21  25
BRANCH  20  27
ATOM     27  O   UNL     1      35.501 -24.306 -12.711  0.00  0.00    -0.379 OA
ATOM     28  H   UNL     1      34.890 -23.555 -12.663  0.00  0.00    +0.211 HD
ENDBRANCH  20  27
BRANCH  23  29
ATOM     29  O   UNL     1      38.211 -23.161 -15.828  0.00  0.00    -0.377 OA
ATOM     30  H   UNL     1      38.376 -23.992 -16.301  0.00  0.00    +0.211 HD
ENDBRANCH  23  29
BRANCH  22  31
ATOM     31  C   UNL     1      32.968 -24.226 -14.070  0.00  0.00    +0.169 C 
BRANCH  31  32
ATOM     32  O   UNL     1      32.857 -25.442 -13.353  0.00  0.00    -0.379 OA
ATOM     33  H   UNL     1      32.075 -25.410 -12.780  0.00  0.00    +0.211 HD
ENDBRANCH  31  32
ENDBRANCH  22  31
ENDBRANCH  18  24
ENDBRANCH   1  18
TORSDOF 10
ENDMDL
MODEL 6
REMARK VINA RESULT:     -10.7      1.725      2.721
REMARK  Name = 445579
REMARK  10 active torsions:
REMARK  status: ('A' for Active; 'I' for Inactive)
REMARK    1  A    between atoms: C_1  and  O_18
REMARK    2  A    between atoms: C_4  and  C_9
REMARK    3  A    between atoms: N_8  and  C_11
REMARK    4  A    between atoms: C_11  and  C_12
REMARK    5  A    between atoms: O_18  and  C_24
REMARK    6  A    between atoms: C_20  and  O_27
REMARK    7  A    between atoms: C_21  and  O_25
REMARK    8  A    between atoms: C_22  and  C_31
REMARK    9  A    between atoms: C_23  and  O_29
REMARK   10  A    between atoms: C_31  and  O_32
REMARK                            x       y       z     vdW  Elec       q    Type
REMARK                         _______ _______ _______ _____ _____    ______ ____
ROOT
ATOM      1  C   UNL     1      34.864 -22.968 -16.513  0.00  0.00    +0.142 C 
ATOM      2  C   UNL     1      35.714 -22.298 -17.387  0.00  0.00    +0.042 C 
ATOM      3  C   UNL     1      33.552 -23.253 -16.883  0.00  0.00    +0.037 C 
ATOM      4  C   UNL     1      35.248 -21.907 -18.643  0.00  0.00    +0.056 C 
ATOM      5  C   UNL     1      33.087 -22.862 -18.138  0.00  0.00    +0.003 C 
ATOM      6  C   UNL     1      33.935 -22.190 -19.018  0.00  0.00    +0.005 C 
ENDROOT
BRANCH   4   9
ATOM      7  O   UNL     1      37.223 -21.680 -19.909  0.00  0.00    -0.270 OA
ATOM      8  N   UNL     1      35.666 -19.985 -20.051  0.00  0.00    -0.297 N 
ATOM      9  C   UNL     1      36.132 -21.206 -19.561  0.00  0.00    +0.246 C 
ATOM     10  H   UNL     1      34.791 -19.655 -19.742  0.00  0.00    +0.150 HD
BRANCH   8  11
ATOM     11  C   UNL     1      36.414 -19.186 -20.995  0.00  0.00    +0.117 C 
BRANCH  11  12
ATOM     12  C   UNL     1      35.581 -18.786 -22.177  0.00  0.00    -0.003 C 
ATOM     13  C   UNL     1      34.948 -19.765 -22.935  0.00  0.00    -0.003 C 
ATOM     14  C   UNL     1      35.451 -17.441 -22.505  0.00  0.00    -0.003 C 
ATOM     15  C   UNL     1      34.174 -19.393 -24.035  0.00  0.00    -0.000 C 
ATOM     16  C   UNL     1      34.677 -17.070 -23.604  0.00  0.00    -0.000 C 
ATOM     17  C   UNL     1      34.039 -18.046 -24.369  0.00  0.00    -0.000 C 
ENDBRANCH  11  12
ENDBRANCH   8  11
ENDBRANCH   4   9
BRANCH   1  18
ATOM     18  O   UNL     1      35.321 -23.352 -15.282  0.00  0.00    -0.451 OA
BRANCH  18  24
ATOM     19  O   UNL     1      36.169 -25.539 -14.973  0.00  0.00    -0.316 OA
ATOM     20  C   UNL     1      36.791 -25.185 -12.636  0.00  0.00    +0.169 C 
ATOM     21  C   UNL     1      35.552 -24.303 -12.448  0.00  0.00    +0.173 C 
ATOM     22  C   UNL     1      37.245 -25.157 -14.101  0.00  0.00    +0.177 C 
ATOM     23  C   UNL     1      34.469 -24.696 -13.452  0.00  0.00    +0.210 C 
ATOM     24  C   UNL     1      35.024 -24.687 -14.877  0.00  0.00    +0.318 C 
BRANCH  21  25
ATOM     25  O   UNL     1      35.045 -24.452 -11.125  0.00  0.00    -0.379 OA
ATOM     26  H   UNL     1      35.759 -24.303 -10.485  0.00  0.00    +0.211 HD
ENDBRANCH  21  25
BRANCH  20  27
ATOM     27  O   UNL     1      36.479 -26.532 -12.273  0.00  0.00    -0.379 OA
ATOM     28  H   UNL     1      35.971 -26.949 -12.987  0.00  0.00    +0.211 HD
ENDBRANCH  20  27
BRANCH  23  29
ATOM     29  O   UNL     1      33.369 -23.794 -13.370  0.00  0.00    -0.377 OA
ATOM     30  H   UNL     1      33.395 -23.183 -14.123  0.00  0.00    +0.211 HD
ENDBRANCH  23  29
BRANCH  22  31
ATOM     31  C   UNL     1      38.402 -26.113 -14.368  0.00  0.00    +0.169 C 
BRANCH  31  32
ATOM     32  O   UNL     1      37.891 -27.431 -14.453  0.00  0.00    -0.379 OA
ATOM     33  H   UNL     1      38.597 -28.035 -14.729  0.00  0.00    +0.211 HD
ENDBRANCH  31  32
ENDBRANCH  22  31
ENDBRANCH  18  24
ENDBRANCH   1  18
TORSDOF 10
ENDMDL
MODEL 7
REMARK VINA RESULT:     -10.0      7.548     12.914
REMARK  Name = 445579
REMARK  10 active torsions:
REMARK  status: ('A' for Active; 'I' for Inactive)
REMARK    1  A    between atoms: C_1  and  O_18
REMARK    2  A    between atoms: C_4  and  C_9
REMARK    3  A    between atoms: N_8  and  C_11
REMARK    4  A    between atoms: C_11  and  C_12
REMARK    5  A    between atoms: O_18  and  C_24
REMARK    6  A    between atoms: C_20  and  O_27
REMARK    7  A    between atoms: C_21  and  O_25
REMARK    8  A    between atoms: C_22  and  C_31
REMARK    9  A    between atoms: C_23  and  O_29
REMARK   10  A    between atoms: C_31  and  O_32
REMARK                            x       y       z     vdW  Elec       q    Type
REMARK                         _______ _______ _______ _____ _____    ______ ____
ROOT
ATOM      1  C   UNL     1      33.569 -14.633 -23.642  0.00  0.00    +0.142 C 
ATOM      2  C   UNL     1      34.152 -15.303 -22.571  0.00  0.00    +0.042 C 
ATOM      3  C   UNL     1      33.537 -15.214 -24.906  0.00  0.00    +0.037 C 
ATOM      4  C   UNL     1      34.710 -16.567 -22.767  0.00  0.00    +0.056 C 
ATOM      5  C   UNL     1      34.094 -16.477 -25.101  0.00  0.00    +0.003 C 
ATOM      6  C   UNL     1      34.680 -17.154 -24.032  0.00  0.00    +0.005 C 
ENDROOT
BRANCH   4   9
ATOM      7  O   UNL     1      35.304 -16.817 -20.500  0.00  0.00    -0.270 OA
ATOM      8  N   UNL     1      35.898 -18.508 -21.948  0.00  0.00    -0.297 N 
ATOM      9  C   UNL     1      35.321 -17.273 -21.651  0.00  0.00    +0.246 C 
ATOM     10  H   UNL     1      35.884 -18.825 -22.881  0.00  0.00    +0.150 HD
BRANCH   8  11
ATOM     11  C   UNL     1      36.516 -19.343 -20.943  0.00  0.00    +0.117 C 
BRANCH  11  12
ATOM     12  C   UNL     1      35.534 -20.290 -20.317  0.00  0.00    -0.003 C 
ATOM     13  C   UNL     1      35.992 -21.310 -19.491  0.00  0.00    -0.003 C 
ATOM     14  C   UNL     1      34.175 -20.138 -20.570  0.00  0.00    -0.003 C 
ATOM     15  C   UNL     1      35.079 -22.190 -18.909  0.00  0.00    -0.000 C 
ATOM     16  C   UNL     1      33.263 -21.018 -19.987  0.00  0.00    -0.000 C 
ATOM     17  C   UNL     1      33.715 -22.044 -19.157  0.00  0.00    -0.000 C 
ENDBRANCH  11  12
ENDBRANCH   8  11
ENDBRANCH   4   9
BRANCH   1  18
ATOM     18  O   UNL     1      33.022 -13.394 -23.450  0.00  0.00    -0.451 OA
BRANCH  18  24
ATOM     19  O   UNL     1      34.039 -11.441 -22.583  0.00  0.00    -0.316 OA
ATOM     20  C   UNL     1      31.944 -10.204 -22.361  0.00  0.00    +0.169 C 
ATOM     21  C   UNL     1      31.228 -11.500 -21.969  0.00  0.00    +0.173 C 
ATOM     22  C   UNL     1      33.162 -10.513 -23.240  0.00  0.00    +0.177 C 
ATOM     23  C   UNL     1      32.221 -12.483 -21.349  0.00  0.00    +0.210 C 
ATOM     24  C   UNL     1      33.422 -12.693 -22.273  0.00  0.00    +0.318 C 
BRANCH  21  25
ATOM     25  O   UNL     1      30.193 -11.222 -21.031  0.00  0.00    -0.379 OA
ATOM     26  H   UNL     1      30.324 -11.760 -20.235  0.00  0.00    +0.211 HD
ENDBRANCH  21  25
BRANCH  20  27
ATOM     27  O   UNL     1      32.385  -9.526 -21.181  0.00  0.00    -0.379 OA
ATOM     28  H   UNL     1      31.664  -8.976 -20.836  0.00  0.00    +0.211 HD
ENDBRANCH  20  27
BRANCH  23  29
ATOM     29  O   UNL     1      31.589 -13.737 -21.107  0.00  0.00    -0.377 OA
ATOM     30  H   UNL     1      32.249 -14.376 -20.795  0.00  0.00    +0.211 HD
ENDBRANCH  23  29
BRANCH  22  31
ATOM     31  C   UNL     1      33.980  -9.267 -23.559  0.00  0.00    +0.169 C 
BRANCH  31  32
ATOM     32  O   UNL     1      35.352  -9.620 -23.580  0.00  0.00    -0.379 OA
ATOM     33  H   UNL     1      35.545 -10.123 -24.385  0.00  0.00    +0.211 HD
ENDBRANCH  31  32
ENDBRANCH  22  31
ENDBRANCH  18  24
ENDBRANCH   1  18
TORSDOF 10
ENDMDL
MODEL 8
REMARK VINA RESULT:      -9.8     10.414     14.776
REMARK  Name = 445579
REMARK  10 active torsions:
REMARK  status: ('A' for Active; 'I' for Inactive)
REMARK    1  A    between atoms: C_1  and  O_18
REMARK    2  A    between atoms: C_4  and  C_9
REMARK    3  A    between atoms: N_8  and  C_11
REMARK    4  A    between atoms: C_11  and  C_12
REMARK    5  A    between atoms: O_18  and  C_24
REMARK    6  A    between atoms: C_20  and  O_27
REMARK    7  A    between atoms: C_21  and  O_25
REMARK    8  A    between atoms: C_22  and  C_31
REMARK    9  A    between atoms: C_23  and  O_29
REMARK   10  A    between atoms: C_31  and  O_32
REMARK                            x       y       z     vdW  Elec       q    Type
REMARK                         _______ _______ _______ _____ _____    ______ ____
ROOT
ATOM      1  C   UNL     1      32.109 -12.037 -22.026  0.00  0.00    +0.142 C 
ATOM      2  C   UNL     1      32.039 -10.733 -22.507  0.00  0.00    +0.042 C 
ATOM      3  C   UNL     1      31.850 -12.309 -20.686  0.00  0.00    +0.037 C 
ATOM      4  C   UNL     1      31.709  -9.691 -21.640  0.00  0.00    +0.056 C 
ATOM      5  C   UNL     1      31.520 -11.268 -19.819  0.00  0.00    +0.003 C 
ATOM      6  C   UNL     1      31.449  -9.959 -20.296  0.00  0.00    +0.005 C 
ENDROOT
BRANCH   4   9
ATOM      7  O   UNL     1      30.761  -7.969 -22.939  0.00  0.00    -0.270 OA
ATOM      8  N   UNL     1      32.585  -7.437 -21.636  0.00  0.00    -0.297 N 
ATOM      9  C   UNL     1      31.635  -8.327 -22.138  0.00  0.00    +0.246 C 
ATOM     10  H   UNL     1      33.259  -7.773 -20.999  0.00  0.00    +0.150 HD
BRANCH   8  11
ATOM     11  C   UNL     1      32.623  -6.041 -22.009  0.00  0.00    +0.117 C 
BRANCH  11  12
ATOM     12  C   UNL     1      33.416  -5.816 -23.263  0.00  0.00    -0.003 C 
ATOM     13  C   UNL     1      34.590  -6.532 -23.472  0.00  0.00    -0.003 C 
ATOM     14  C   UNL     1      32.971  -4.893 -24.203  0.00  0.00    -0.003 C 
ATOM     15  C   UNL     1      35.328  -6.322 -24.637  0.00  0.00    -0.000 C 
ATOM     16  C   UNL     1      33.709  -4.685 -25.368  0.00  0.00    -0.000 C 
ATOM     17  C   UNL     1      34.887  -5.398 -25.585  0.00  0.00    -0.000 C 
ENDBRANCH  11  12
ENDBRANCH   8  11
ENDBRANCH   4   9
BRANCH   1  18
ATOM     18  O   UNL     1      32.433 -13.059 -22.876  0.00  0.00    -0.451 OA
BRANCH  18  24
ATOM     19  O   UNL     1      34.544 -13.829 -22.136  0.00  0.00    -0.316 OA
ATOM     20  C   UNL     1      34.289 -16.064 -23.089  0.00  0.00    +0.169 C 
ATOM     21  C   UNL     1      33.544 -15.461 -24.285  0.00  0.00    +0.173 C 
ATOM     22  C   UNL     1      34.121 -15.171 -21.853  0.00  0.00    +0.177 C 
ATOM     23  C   UNL     1      33.971 -14.009 -24.493  0.00  0.00    +0.210 C 
ATOM     24  C   UNL     1      33.814 -13.208 -23.198  0.00  0.00    +0.318 C 
BRANCH  21  25
ATOM     25  O   UNL     1      33.828 -16.209 -25.463  0.00  0.00    -0.379 OA
ATOM     26  H   UNL     1      33.029 -16.268 -26.011  0.00  0.00    +0.211 HD
ENDBRANCH  21  25
BRANCH  20  27
ATOM     27  O   UNL     1      35.680 -16.171 -23.398  0.00  0.00    -0.379 OA
ATOM     28  H   UNL     1      36.110 -16.755 -22.753  0.00  0.00    +0.211 HD
ENDBRANCH  20  27
BRANCH  23  29
ATOM     29  O   UNL     1      33.186 -13.405 -25.517  0.00  0.00    -0.377 OA
ATOM     30  H   UNL     1      33.756 -13.177 -26.269  0.00  0.00    +0.211 HD
ENDBRANCH  23  29
BRANCH  22  31
ATOM     31  C   UNL     1      34.941 -15.662 -20.666  0.00  0.00    +0.169 C 
BRANCH  31  32
ATOM     32  O   UNL     1      35.053 -17.072 -20.745  0.00  0.00    -0.379 OA
ATOM     33  H   UNL     1      34.269 -17.435 -21.186  0.00  0.00    +0.211 HD
ENDBRANCH  31  32
ENDBRANCH  22  31
ENDBRANCH  18  24
ENDBRANCH   1  18
TORSDOF 10
ENDMDL
MODEL 9
REMARK VINA RESULT:      -9.6     10.776     15.573
REMARK  Name = 445579
REMARK  10 active torsions:
REMARK  status: ('A' for Active; 'I' for Inactive)
REMARK    1  A    between atoms: C_1  and  O_18
REMARK    2  A    between atoms: C_4  and  C_9
REMARK    3  A    between atoms: N_8  and  C_11
REMARK    4  A    between atoms: C_11  and  C_12
REMARK    5  A    between atoms: O_18  and  C_24
REMARK    6  A    between atoms: C_20  and  O_27
REMARK    7  A    between atoms: C_21  and  O_25
REMARK    8  A    between atoms: C_22  and  C_31
REMARK    9  A    between atoms: C_23  and  O_29
REMARK   10  A    between atoms: C_31  and  O_32
REMARK                            x       y       z     vdW  Elec       q    Type
REMARK                         _______ _______ _______ _____ _____    ______ ____
ROOT
ATOM      1  C   UNL     1      31.930 -10.776 -21.897  0.00  0.00    +0.142 C 
ATOM      2  C   UNL     1      32.528 -11.616 -22.832  0.00  0.00    +0.042 C 
ATOM      3  C   UNL     1      31.645 -11.235 -20.615  0.00  0.00    +0.037 C 
ATOM      4  C   UNL     1      32.842 -12.929 -22.480  0.00  0.00    +0.056 C 
ATOM      5  C   UNL     1      31.960 -12.547 -20.264  0.00  0.00    +0.003 C 
ATOM      6  C   UNL     1      32.559 -13.394 -21.196  0.00  0.00    +0.005 C 
ENDROOT
BRANCH   4   9
ATOM      7  O   UNL     1      33.390 -13.603 -24.671  0.00  0.00    -0.270 OA
ATOM      8  N   UNL     1      34.188 -14.888 -22.931  0.00  0.00    -0.297 N 
ATOM      9  C   UNL     1      33.468 -13.811 -23.453  0.00  0.00    +0.246 C 
ATOM     10  H   UNL     1      34.218 -15.007 -21.954  0.00  0.00    +0.150 HD
BRANCH   8  11
ATOM     11  C   UNL     1      34.892 -15.834 -23.766  0.00  0.00    +0.117 C 
BRANCH  11  12
ATOM     12  C   UNL     1      34.898 -17.213 -23.172  0.00  0.00    -0.003 C 
ATOM     13  C   UNL     1      34.474 -18.294 -23.938  0.00  0.00    -0.003 C 
ATOM     14  C   UNL     1      35.326 -17.396 -21.862  0.00  0.00    -0.003 C 
ATOM     15  C   UNL     1      34.479 -19.575 -23.385  0.00  0.00    -0.000 C 
ATOM     16  C   UNL     1      35.331 -18.677 -21.311  0.00  0.00    -0.000 C 
ATOM     17  C   UNL     1      34.908 -19.766 -22.072  0.00  0.00    -0.000 C 
ENDBRANCH  11  12
ENDBRANCH   8  11
ENDBRANCH   4   9
BRANCH   1  18
ATOM     18  O   UNL     1      31.621  -9.488 -22.242  0.00  0.00    -0.451 OA
BRANCH  18  24
ATOM     19  O   UNL     1      33.235  -8.088 -23.258  0.00  0.00    -0.316 OA
ATOM     20  C   UNL     1      31.727  -6.179 -23.493  0.00  0.00    +0.169 C 
ATOM     21  C   UNL     1      31.074  -6.541 -22.155  0.00  0.00    +0.173 C 
ATOM     22  C   UNL     1      32.321  -7.432 -24.151  0.00  0.00    +0.177 C 
ATOM     23  C   UNL     1      32.062  -7.307 -21.276  0.00  0.00    +0.210 C 
ATOM     24  C   UNL     1      32.636  -8.509 -22.030  0.00  0.00    +0.318 C 
BRANCH  21  25
ATOM     25  O   UNL     1      30.662  -5.357 -21.479  0.00  0.00    -0.379 OA
ATOM     26  H   UNL     1      30.740  -4.598 -22.077  0.00  0.00    +0.211 HD
ENDBRANCH  21  25
BRANCH  20  27
ATOM     27  O   UNL     1      32.775  -5.232 -23.272  0.00  0.00    -0.379 OA
ATOM     28  H   UNL     1      33.616  -5.701 -23.156  0.00  0.00    +0.211 HD
ENDBRANCH  20  27
BRANCH  23  29
ATOM     29  O   UNL     1      31.419  -7.760 -20.089  0.00  0.00    -0.377 OA
ATOM     30  H   UNL     1      32.080  -8.139 -19.488  0.00  0.00    +0.211 HD
ENDBRANCH  23  29
BRANCH  22  31
ATOM     31  C   UNL     1      33.089  -7.109 -25.427  0.00  0.00    +0.169 C 
BRANCH  31  32
ATOM     32  O   UNL     1      34.460  -6.963 -25.105  0.00  0.00    -0.379 OA
ATOM     33  H   UNL     1      34.810  -6.166 -25.532  0.00  0.00    +0.211 HD
ENDBRANCH  31  32
ENDBRANCH  22  31
ENDBRANCH  18  24
ENDBRANCH   1  18
TORSDOF 10
ENDMDL
