MODEL 1
REMARK VINA RESULT:     -12.4      0.000      0.000
REMARK  Name = 445480
REMARK  5 active torsions:
REMARK  status: ('A' for Active; 'I' for Inactive)
REMARK    1  A    between atoms: N_2  and  C_21
REMARK    2  A    between atoms: C_3  and  N_7
REMARK    3  A    between atoms: N_7  and  S_9
REMARK    4  A    between atoms: S_9  and  C_14
REMARK    5  A    between atoms: C_21  and  C_24
REMARK                            x       y       z     vdW  Elec       q    Type
REMARK                         _______ _______ _______ _____ _____    ______ ____
ROOT
ATOM      1  O   UNL     1      36.737 -21.108 -19.608  0.00  0.00    -0.273 OA
ATOM      2  N   UNL     1      35.292 -19.889 -21.007  0.00  0.00    -0.274 N 
ATOM      3  C   UNL     1      34.357 -21.590 -19.717  0.00  0.00    +0.153 C 
ATOM      4  C   UNL     1      33.260 -20.636 -20.176  0.00  0.00    +0.048 C 
ATOM      5  C   UNL     1      33.889 -19.909 -21.349  0.00  0.00    +0.096 C 
ATOM      6  C   UNL     1      35.630 -20.857 -20.061  0.00  0.00    +0.242 C 
ENDROOT
BRANCH   3   7
ATOM      7  N   UNL     1      34.296 -21.806 -18.267  0.00  0.00    -0.171 NA
ATOM      8  H   UNL     1      35.255 -21.913 -17.936  0.00  0.00    +0.149 HD
BRANCH   7   9
ATOM      9  S   UNL     1      33.406 -23.152 -17.689  0.00  0.00    +0.066 S 
ATOM     10  O   UNL     1      33.744 -24.324 -18.476  0.00  0.00    -0.152 OA
ATOM     11  O   UNL     1      32.026 -22.756 -17.484  0.00  0.00    -0.152 OA
BRANCH   9  14
ATOM     12  S   UNL     1      35.605 -23.044 -15.772  0.00  0.00    -0.066 S 
ATOM     13  N   UNL     1      33.979 -24.642 -12.619  0.00  0.00    -0.243 NA
ATOM     14  C   UNL     1      33.995 -23.503 -16.032  0.00  0.00    +0.153 C 
ATOM     15  C   UNL     1      33.395 -24.063 -14.958  0.00  0.00    +0.046 C 
ATOM     16  C   UNL     1      34.284 -24.131 -13.844  0.00  0.00    +0.089 C 
ATOM     17  C   UNL     1      35.541 -23.606 -14.148  0.00  0.00    +0.048 C 
ATOM     18  C   UNL     1      36.549 -23.587 -13.174  0.00  0.00    +0.010 C 
ATOM     19  C   UNL     1      36.243 -24.106 -11.923  0.00  0.00    +0.021 C 
ATOM     20  C   UNL     1      34.972 -24.608 -11.708  0.00  0.00    +0.099 C 
ENDBRANCH   9  14
ENDBRANCH   7   9
ENDBRANCH   3   7
BRANCH   2  21
ATOM     21  C   UNL     1      36.227 -19.024 -21.693  0.00  0.00    +0.120 C 
BRANCH  21  24
ATOM     22  N   UNL     1      33.592 -13.500 -22.652  0.00  0.00    -0.230 NA
ATOM     23  N   UNL     1      34.653 -14.208 -20.674  0.00  0.00    -0.343 N 
ATOM     24  C   UNL     1      35.494 -17.957 -22.458  0.00  0.00    -0.002 C 
ATOM     25  C   UNL     1      35.231 -16.737 -21.850  0.00  0.00    +0.000 C 
ATOM     26  C   UNL     1      35.087 -18.206 -23.760  0.00  0.00    -0.003 C 
ATOM     27  C   UNL     1      34.545 -15.735 -22.557  0.00  0.00    +0.031 C 
ATOM     28  C   UNL     1      34.126 -15.975 -23.883  0.00  0.00    +0.004 C 
ATOM     29  C   UNL     1      34.405 -17.219 -24.473  0.00  0.00    -0.000 C 
ATOM     30  C   UNL     1      34.249 -14.488 -22.005  0.00  0.00    +0.125 C 
ATOM     31  C   UNL     1      33.444 -14.965 -24.571  0.00  0.00    +0.021 C 
ATOM     32  C   UNL     1      33.207 -13.765 -23.919  0.00  0.00    +0.100 C 
ATOM     33  H   UNL     1      34.451 -13.333 -20.271  0.00  0.00    +0.144 HD
ATOM     34  H   UNL     1      35.136 -14.891 -20.153  0.00  0.00    +0.144 HD
ENDBRANCH  21  24
ENDBRANCH   2  21
TORSDOF 5
ENDMDL
MODEL 2
REMARK VINA RESULT:     -12.3      1.071      1.757
REMARK  Name = 445480
REMARK  5 active torsions:
REMARK  status: ('A' for Active; 'I' for Inactive)
REMARK    1  A    between atoms: N_2  and  C_21
REMARK    2  A    between atoms: C_3  and  N_7
REMARK    3  A    between atoms: N_7  and  S_9
REMARK    4  A    between atoms: S_9  and  C_14
REMARK    5  A    between atoms: C_21  and  C_24
REMARK                            x       y       z     vdW  Elec       q    Type
REMARK                         _______ _______ _______ _____ _____    ______ ____
ROOT
ATOM      1  O   UNL     1      36.904 -20.209 -19.851  0.00  0.00    -0.273 OA
ATOM      2  N   UNL     1      35.298 -19.352 -21.341  0.00  0.00    -0.274 N 
ATOM      3  C   UNL     1      34.735 -21.269 -20.141  0.00  0.00    +0.153 C 
ATOM      4  C   UNL     1      33.468 -20.608 -20.670  0.00  0.00    +0.048 C 
ATOM      5  C   UNL     1      33.973 -19.713 -21.786  0.00  0.00    +0.096 C 
ATOM      6  C   UNL     1      35.803 -20.231 -20.383  0.00  0.00    +0.242 C 
ENDROOT
BRANCH   3   7
ATOM      7  N   UNL     1      34.631 -21.535 -18.702  0.00  0.00    -0.171 NA
ATOM      8  H   UNL     1      35.575 -21.711 -18.357  0.00  0.00    +0.149 HD
BRANCH   7   9
ATOM      9  S   UNL     1      33.650 -22.845 -18.192  0.00  0.00    +0.066 S 
ATOM     10  O   UNL     1      33.961 -24.015 -18.993  0.00  0.00    -0.152 OA
ATOM     11  O   UNL     1      32.286 -22.383 -18.033  0.00  0.00    -0.152 OA
BRANCH   9  14
ATOM     12  S   UNL     1      35.766 -22.874 -16.181  0.00  0.00    -0.066 S 
ATOM     13  N   UNL     1      33.943 -24.490 -13.147  0.00  0.00    -0.243 NA
ATOM     14  C   UNL     1      34.153 -23.262 -16.523  0.00  0.00    +0.153 C 
ATOM     15  C   UNL     1      33.485 -23.827 -15.491  0.00  0.00    +0.046 C 
ATOM     16  C   UNL     1      34.322 -23.960 -14.343  0.00  0.00    +0.089 C 
ATOM     17  C   UNL     1      35.609 -23.475 -14.578  0.00  0.00    +0.048 C 
ATOM     18  C   UNL     1      36.573 -23.522 -13.560  0.00  0.00    +0.010 C 
ATOM     19  C   UNL     1      36.193 -24.062 -12.339  0.00  0.00    +0.021 C 
ATOM     20  C   UNL     1      34.896 -24.519 -12.194  0.00  0.00    +0.099 C 
ENDBRANCH   9  14
ENDBRANCH   7   9
ENDBRANCH   3   7
BRANCH   2  21
ATOM     21  C   UNL     1      36.030 -18.261 -21.947  0.00  0.00    +0.120 C 
BRANCH  21  24
ATOM     22  N   UNL     1      32.881 -13.290 -23.885  0.00  0.00    -0.230 NA
ATOM     23  N   UNL     1      33.791 -14.978 -25.251  0.00  0.00    -0.343 N 
ATOM     24  C   UNL     1      35.262 -16.975 -21.818  0.00  0.00    -0.002 C 
ATOM     25  C   UNL     1      34.791 -16.340 -22.959  0.00  0.00    +0.000 C 
ATOM     26  C   UNL     1      35.037 -16.437 -20.559  0.00  0.00    -0.003 C 
ATOM     27  C   UNL     1      34.075 -15.137 -22.846  0.00  0.00    +0.031 C 
ATOM     28  C   UNL     1      33.838 -14.579 -21.572  0.00  0.00    +0.004 C 
ATOM     29  C   UNL     1      34.327 -15.242 -20.434  0.00  0.00    -0.000 C 
ATOM     30  C   UNL     1      33.574 -14.449 -23.953  0.00  0.00    +0.125 C 
ATOM     31  C   UNL     1      33.123 -13.379 -21.480  0.00  0.00    +0.021 C 
ATOM     32  C   UNL     1      32.674 -12.787 -22.650  0.00  0.00    +0.100 C 
ATOM     33  H   UNL     1      33.444 -14.504 -26.041  0.00  0.00    +0.144 HD
ATOM     34  H   UNL     1      34.290 -15.820 -25.362  0.00  0.00    +0.144 HD
ENDBRANCH  21  24
ENDBRANCH   2  21
TORSDOF 5
ENDMDL
MODEL 3
REMARK VINA RESULT:     -12.3      2.904     10.483
REMARK  Name = 445480
REMARK  5 active torsions:
REMARK  status: ('A' for Active; 'I' for Inactive)
REMARK    1  A    between atoms: N_2  and  C_21
REMARK    2  A    between atoms: C_3  and  N_7
REMARK    3  A    between atoms: N_7  and  S_9
REMARK    4  A    between atoms: S_9  and  C_14
REMARK    5  A    between atoms: C_21  and  C_24
REMARK                            x       y       z     vdW  Elec       q    Type
REMARK                         _______ _______ _______ _____ _____    ______ ____
ROOT
ATOM      1  O   UNL     1      36.112 -21.623 -20.018  0.00  0.00    -0.273 OA
ATOM      2  N   UNL     1      33.962 -22.182 -19.246  0.00  0.00    -0.274 N 
ATOM      3  C   UNL     1      34.228 -20.110 -20.279  0.00  0.00    +0.153 C 
ATOM      4  C   UNL     1      32.753 -20.492 -20.275  0.00  0.00    +0.048 C 
ATOM      5  C   UNL     1      32.663 -21.553 -19.194  0.00  0.00    +0.096 C 
ATOM      6  C   UNL     1      34.924 -21.382 -19.862  0.00  0.00    +0.242 C 
ENDROOT
BRANCH   3   7
ATOM      7  N   UNL     1      34.672 -19.731 -21.626  0.00  0.00    -0.171 NA
ATOM      8  H   UNL     1      35.061 -20.566 -22.064  0.00  0.00    +0.149 HD
BRANCH   7   9
ATOM      9  S   UNL     1      35.843 -18.487 -21.770  0.00  0.00    +0.066 S 
ATOM     10  O   UNL     1      36.971 -18.980 -22.539  0.00  0.00    -0.152 OA
ATOM     11  O   UNL     1      36.031 -17.860 -20.476  0.00  0.00    -0.152 OA
BRANCH   9  14
ATOM     12  S   UNL     1      34.877 -15.737 -21.928  0.00  0.00    -0.066 S 
ATOM     13  N   UNL     1      33.711 -15.526 -25.633  0.00  0.00    -0.243 NA
ATOM     14  C   UNL     1      35.114 -17.189 -22.768  0.00  0.00    +0.153 C 
ATOM     15  C   UNL     1      34.721 -17.155 -24.061  0.00  0.00    +0.046 C 
ATOM     16  C   UNL     1      34.191 -15.876 -24.408  0.00  0.00    +0.089 C 
ATOM     17  C   UNL     1      34.214 -14.992 -23.328  0.00  0.00    +0.048 C 
ATOM     18  C   UNL     1      33.733 -13.684 -23.481  0.00  0.00    +0.010 C 
ATOM     19  C   UNL     1      33.243 -13.321 -24.728  0.00  0.00    +0.021 C 
ATOM     20  C   UNL     1      33.257 -14.261 -25.743  0.00  0.00    +0.099 C 
ENDBRANCH   9  14
ENDBRANCH   7   9
ENDBRANCH   3   7
BRANCH   2  21
ATOM     21  C   UNL     1      34.215 -23.451 -18.599  0.00  0.00    +0.120 C 
BRANCH  21  24
ATOM     22  N   UNL     1      29.902 -23.316 -14.154  0.00  0.00    -0.230 NA
ATOM     23  N   UNL     1      29.507 -23.279 -16.475  0.00  0.00    -0.343 N 
ATOM     24  C   UNL     1      33.678 -23.443 -17.195  0.00  0.00    -0.002 C 
ATOM     25  C   UNL     1      32.307 -23.389 -16.986  0.00  0.00    +0.000 C 
ATOM     26  C   UNL     1      34.560 -23.489 -16.125  0.00  0.00    -0.003 C 
ATOM     27  C   UNL     1      31.797 -23.380 -15.677  0.00  0.00    +0.031 C 
ATOM     28  C   UNL     1      32.683 -23.426 -14.580  0.00  0.00    +0.004 C 
ATOM     29  C   UNL     1      34.066 -23.480 -14.820  0.00  0.00    -0.000 C 
ATOM     30  C   UNL     1      30.431 -23.327 -15.399  0.00  0.00    +0.125 C 
ATOM     31  C   UNL     1      32.156 -23.416 -13.283  0.00  0.00    +0.021 C 
ATOM     32  C   UNL     1      30.779 -23.361 -13.129  0.00  0.00    +0.100 C 
ATOM     33  H   UNL     1      28.541 -23.241 -16.294  0.00  0.00    +0.144 HD
ATOM     34  H   UNL     1      29.835 -23.284 -17.404  0.00  0.00    +0.144 HD
ENDBRANCH  21  24
ENDBRANCH   2  21
TORSDOF 5
ENDMDL
MODEL 4
REMARK VINA RESULT:     -12.2      2.650     10.472
REMARK  Name = 445480
REMARK  5 active torsions:
REMARK  status: ('A' for Active; 'I' for Inactive)
REMARK    1  A    between atoms: N_2  and  C_21
REMARK    2  A    between atoms: C_3  and  N_7
REMARK    3  A    between atoms: N_7  and  S_9
REMARK    4  A    between atoms: S_9  and  C_14
REMARK    5  A    between atoms: C_21  and  C_24
REMARK                            x       y       z     vdW  Elec       q    Type
REMARK                         _______ _______ _______ _____ _____    ______ ____
ROOT
ATOM      1  O   UNL     1      32.348 -20.665 -19.886  0.00  0.00    -0.273 OA
ATOM      2  N   UNL     1      33.785 -22.122 -18.727  0.00  0.00    -0.274 N 
ATOM      3  C   UNL     1      34.699 -20.870 -20.467  0.00  0.00    +0.153 C 
ATOM      4  C   UNL     1      35.816 -21.373 -19.560  0.00  0.00    +0.048 C 
ATOM      5  C   UNL     1      35.171 -22.520 -18.806  0.00  0.00    +0.096 C 
ATOM      6  C   UNL     1      33.445 -21.163 -19.681  0.00  0.00    +0.242 C 
ENDROOT
BRANCH   3   7
ATOM      7  N   UNL     1      34.809 -19.423 -20.688  0.00  0.00    -0.171 NA
ATOM      8  H   UNL     1      33.861 -19.057 -20.777  0.00  0.00    +0.149 HD
BRANCH   7   9
ATOM      9  S   UNL     1      35.695 -18.880 -22.051  0.00  0.00    +0.066 S 
ATOM     10  O   UNL     1      35.370 -19.711 -23.195  0.00  0.00    -0.152 OA
ATOM     11  O   UNL     1      37.071 -18.643 -21.660  0.00  0.00    -0.152 OA
BRANCH   9  14
ATOM     12  S   UNL     1      34.579 -17.089 -24.069  0.00  0.00    -0.066 S 
ATOM     13  N   UNL     1      34.158 -13.792 -22.047  0.00  0.00    -0.243 NA
ATOM     14  C   UNL     1      35.084 -17.244 -22.460  0.00  0.00    +0.153 C 
ATOM     15  C   UNL     1      34.953 -16.118 -21.724  0.00  0.00    +0.046 C 
ATOM     16  C   UNL     1      34.409 -15.051 -22.501  0.00  0.00    +0.089 C 
ATOM     17  C   UNL     1      34.153 -15.443 -23.815  0.00  0.00    +0.048 C 
ATOM     18  C   UNL     1      33.614 -14.526 -24.729  0.00  0.00    +0.010 C 
ATOM     19  C   UNL     1      33.356 -13.240 -24.272  0.00  0.00    +0.021 C 
ATOM     20  C   UNL     1      33.641 -12.938 -22.953  0.00  0.00    +0.099 C 
ENDBRANCH   9  14
ENDBRANCH   7   9
ENDBRANCH   3   7
BRANCH   2  21
ATOM     21  C   UNL     1      32.861 -22.771 -17.823  0.00  0.00    +0.120 C 
BRANCH  21  24
ATOM     22  N   UNL     1      37.608 -23.542 -13.918  0.00  0.00    -0.230 NA
ATOM     23  N   UNL     1      37.751 -22.819 -16.154  0.00  0.00    -0.343 N 
ATOM     24  C   UNL     1      33.542 -23.112 -16.528  0.00  0.00    -0.002 C 
ATOM     25  C   UNL     1      34.923 -23.008 -16.431  0.00  0.00    +0.000 C 
ATOM     26  C   UNL     1      32.783 -23.530 -15.445  0.00  0.00    -0.003 C 
ATOM     27  C   UNL     1      35.568 -23.327 -15.224  0.00  0.00    +0.031 C 
ATOM     28  C   UNL     1      34.807 -23.753 -14.115  0.00  0.00    +0.004 C 
ATOM     29  C   UNL     1      33.411 -23.850 -14.241  0.00  0.00    -0.000 C 
ATOM     30  C   UNL     1      36.951 -23.243 -15.062  0.00  0.00    +0.125 C 
ATOM     31  C   UNL     1      35.467 -24.067 -12.921  0.00  0.00    +0.021 C 
ATOM     32  C   UNL     1      36.847 -23.945 -12.878  0.00  0.00    +0.100 C 
ATOM     33  H   UNL     1      38.728 -22.756 -16.054  0.00  0.00    +0.144 HD
ATOM     34  H   UNL     1      37.328 -22.588 -17.013  0.00  0.00    +0.144 HD
ENDBRANCH  21  24
ENDBRANCH   2  21
TORSDOF 5
ENDMDL
MODEL 5
REMARK VINA RESULT:     -11.8      2.509      3.316
REMARK  Name = 445480
REMARK  5 active torsions:
REMARK  status: ('A' for Active; 'I' for Inactive)
REMARK    1  A    between atoms: N_2  and  C_21
REMARK    2  A    between atoms: C_3  and  N_7
REMARK    3  A    between atoms: N_7  and  S_9
REMARK    4  A    between atoms: S_9  and  C_14
REMARK    5  A    between atoms: C_21  and  C_24
REMARK                            x       y       z     vdW  Elec       q    Type
REMARK                         _______ _______ _______ _____ _____    ______ ____
ROOT
ATOM      1  O   UNL     1      37.040 -19.256 -20.071  0.00  0.00    -0.273 OA
ATOM      2  N   UNL     1      35.375 -18.811 -21.672  0.00  0.00    -0.274 N 
ATOM      3  C   UNL     1      35.159 -20.758 -20.410  0.00  0.00    +0.153 C 
ATOM      4  C   UNL     1      33.813 -20.399 -21.028  0.00  0.00    +0.048 C 
ATOM      5  C   UNL     1      34.181 -19.459 -22.161  0.00  0.00    +0.096 C 
ATOM      6  C   UNL     1      35.999 -19.528 -20.651  0.00  0.00    +0.242 C 
ENDROOT
BRANCH   3   7
ATOM      7  N   UNL     1      35.033 -20.986 -18.966  0.00  0.00    -0.171 NA
ATOM      8  H   UNL     1      35.801 -20.490 -18.512  0.00  0.00    +0.149 HD
BRANCH   7   9
ATOM      9  S   UNL     1      35.067 -22.604 -18.399  0.00  0.00    +0.066 S 
ATOM     10  O   UNL     1      36.174 -22.763 -17.474  0.00  0.00    -0.152 OA
ATOM     11  O   UNL     1      34.888 -23.504 -19.521  0.00  0.00    -0.152 OA
BRANCH   9  14
ATOM     12  S   UNL     1      33.878 -23.575 -15.916  0.00  0.00    -0.066 S 
ATOM     13  N   UNL     1      30.110 -22.801 -16.494  0.00  0.00    -0.243 NA
ATOM     14  C   UNL     1      33.586 -22.850 -17.418  0.00  0.00    +0.153 C 
ATOM     15  C   UNL     1      32.286 -22.566 -17.657  0.00  0.00    +0.046 C 
ATOM     16  C   UNL     1      31.461 -22.954 -16.559  0.00  0.00    +0.089 C 
ATOM     17  C   UNL     1      32.205 -23.526 -15.526  0.00  0.00    +0.048 C 
ATOM     18  C   UNL     1      31.562 -23.970 -14.360  0.00  0.00    +0.010 C 
ATOM     19  C   UNL     1      30.184 -23.816 -14.289  0.00  0.00    +0.021 C 
ATOM     20  C   UNL     1      29.527 -23.239 -15.360  0.00  0.00    +0.099 C 
ENDBRANCH   9  14
ENDBRANCH   7   9
ENDBRANCH   3   7
BRANCH   2  21
ATOM     21  C   UNL     1      35.896 -17.614 -22.296  0.00  0.00    +0.120 C 
BRANCH  21  24
ATOM     22  N   UNL     1      32.430 -12.578 -23.297  0.00  0.00    -0.230 NA
ATOM     23  N   UNL     1      33.423 -13.932 -24.947  0.00  0.00    -0.343 N 
ATOM     24  C   UNL     1      35.055 -16.422 -21.935  0.00  0.00    -0.002 C 
ATOM     25  C   UNL     1      34.532 -15.622 -22.941  0.00  0.00    +0.000 C 
ATOM     26  C   UNL     1      34.813 -16.136 -20.599  0.00  0.00    -0.003 C 
ATOM     27  C   UNL     1      33.746 -14.505 -22.611  0.00  0.00    +0.031 C 
ATOM     28  C   UNL     1      33.492 -14.202 -21.257  0.00  0.00    +0.004 C 
ATOM     29  C   UNL     1      34.034 -15.029 -20.258  0.00  0.00    -0.000 C 
ATOM     30  C   UNL     1      33.191 -13.661 -23.574  0.00  0.00    +0.125 C 
ATOM     31  C   UNL     1      32.707 -13.085 -20.948  0.00  0.00    +0.021 C 
ATOM     32  C   UNL     1      32.208 -12.320 -21.990  0.00  0.00    +0.100 C 
ATOM     33  H   UNL     1      33.038 -13.345 -25.637  0.00  0.00    +0.144 HD
ATOM     34  H   UNL     1      33.970 -14.708 -25.210  0.00  0.00    +0.144 HD
ENDBRANCH  21  24
ENDBRANCH   2  21
TORSDOF 5
ENDMDL
MODEL 6
REMARK VINA RESULT:     -11.6      5.571     11.670
REMARK  Name = 445480
REMARK  5 active torsions:
REMARK  status: ('A' for Active; 'I' for Inactive)
REMARK    1  A    between atoms: N_2  and  C_21
REMARK    2  A    between atoms: C_3  and  N_7
REMARK    3  A    between atoms: N_7  and  S_9
REMARK    4  A    between atoms: S_9  and  C_14
REMARK    5  A    between atoms: C_21  and  C_24
REMARK                            x       y       z     vdW  Elec       q    Type
REMARK                         _______ _______ _______ _____ _____    ______ ____
ROOT
ATOM      1  O   UNL     1      33.667 -14.553 -23.979  0.00  0.00    -0.273 OA
ATOM      2  N   UNL     1      34.510 -15.856 -22.213  0.00  0.00    -0.274 N 
ATOM      3  C   UNL     1      33.531 -13.814 -21.668  0.00  0.00    +0.153 C 
ATOM      4  C   UNL     1      33.585 -14.699 -20.429  0.00  0.00    +0.048 C 
ATOM      5  C   UNL     1      34.635 -15.736 -20.779  0.00  0.00    +0.096 C 
ATOM      6  C   UNL     1      33.879 -14.757 -22.793  0.00  0.00    +0.242 C 
ENDROOT
BRANCH   3   7
ATOM      7  N   UNL     1      32.179 -13.282 -21.879  0.00  0.00    -0.171 NA
ATOM      8  H   UNL     1      32.078 -13.098 -22.877  0.00  0.00    +0.149 HD
BRANCH   7   9
ATOM      9  S   UNL     1      31.737 -11.849 -21.049  0.00  0.00    +0.066 S 
ATOM     10  O   UNL     1      32.292 -11.882 -19.708  0.00  0.00    -0.152 OA
ATOM     11  O   UNL     1      30.330 -11.584 -21.275  0.00  0.00    -0.152 OA
BRANCH   9  14
ATOM     12  S   UNL     1      32.207  -8.972 -21.202  0.00  0.00    -0.066 S 
ATOM     13  N   UNL     1      34.650  -8.735 -24.220  0.00  0.00    -0.243 NA
ATOM     14  C   UNL     1      32.561 -10.486 -21.873  0.00  0.00    +0.153 C 
ATOM     15  C   UNL     1      33.408 -10.445 -22.926  0.00  0.00    +0.046 C 
ATOM     16  C   UNL     1      33.805  -9.106 -23.220  0.00  0.00    +0.089 C 
ATOM     17  C   UNL     1      33.219  -8.186 -22.349  0.00  0.00    +0.048 C 
ATOM     18  C   UNL     1      33.494  -6.818 -22.484  0.00  0.00    +0.010 C 
ATOM     19  C   UNL     1      34.355  -6.433 -23.503  0.00  0.00    +0.021 C 
ATOM     20  C   UNL     1      34.890  -7.412 -24.321  0.00  0.00    +0.099 C 
ENDBRANCH   9  14
ENDBRANCH   7   9
ENDBRANCH   3   7
BRANCH   2  21
ATOM     21  C   UNL     1      35.107 -16.959 -22.935  0.00  0.00    +0.120 C 
BRANCH  21  24
ATOM     22  N   UNL     1      34.008 -21.834 -19.273  0.00  0.00    -0.230 NA
ATOM     23  N   UNL     1      32.400 -20.620 -20.490  0.00  0.00    -0.343 N 
ATOM     24  C   UNL     1      35.441 -18.085 -21.996  0.00  0.00    -0.002 C 
ATOM     25  C   UNL     1      34.425 -18.902 -21.517  0.00  0.00    +0.000 C 
ATOM     26  C   UNL     1      36.759 -18.293 -21.619  0.00  0.00    -0.003 C 
ATOM     27  C   UNL     1      34.729 -19.955 -20.638  0.00  0.00    +0.031 C 
ATOM     28  C   UNL     1      36.066 -20.177 -20.247  0.00  0.00    +0.004 C 
ATOM     29  C   UNL     1      37.074 -19.335 -20.747  0.00  0.00    -0.000 C 
ATOM     30  C   UNL     1      33.756 -20.811 -20.121  0.00  0.00    +0.125 C 
ATOM     31  C   UNL     1      36.349 -21.231 -19.370  0.00  0.00    +0.021 C 
ATOM     32  C   UNL     1      35.299 -22.017 -18.921  0.00  0.00    +0.100 C 
ATOM     33  H   UNL     1      31.703 -21.216 -20.133  0.00  0.00    +0.144 HD
ATOM     34  H   UNL     1      32.156 -19.890 -21.105  0.00  0.00    +0.144 HD
ENDBRANCH  21  24
ENDBRANCH   2  21
TORSDOF 5
ENDMDL
MODEL 7
REMARK VINA RESULT:     -11.6      2.378     10.696
REMARK  Name = 445480
REMARK  5 active torsions:
REMARK  status: ('A' for Active; 'I' for Inactive)
REMARK    1  A    between atoms: N_2  and  C_21
REMARK    2  A    between atoms: C_3  and  N_7
REMARK    3  A    between atoms: N_7  and  S_9
REMARK    4  A    between atoms: S_9  and  C_14
REMARK    5  A    between atoms: C_21  and  C_24
REMARK                            x       y       z     vdW  Elec       q    Type
REMARK                         _______ _______ _______ _____ _____    ______ ____
ROOT
ATOM      1  O   UNL     1      32.322 -20.691 -19.563  0.00  0.00    -0.273 OA
ATOM      2  N   UNL     1      33.931 -22.235 -18.815  0.00  0.00    -0.274 N 
ATOM      3  C   UNL     1      34.530 -20.822 -20.569  0.00  0.00    +0.153 C 
ATOM      4  C   UNL     1      35.786 -21.396 -19.925  0.00  0.00    +0.048 C 
ATOM      5  C   UNL     1      35.277 -22.613 -19.175  0.00  0.00    +0.096 C 
ATOM      6  C   UNL     1      33.434 -21.196 -19.603  0.00  0.00    +0.242 C 
ENDROOT
BRANCH   3   7
ATOM      7  N   UNL     1      34.611 -19.361 -20.674  0.00  0.00    -0.171 NA
ATOM      8  H   UNL     1      33.681 -19.023 -20.926  0.00  0.00    +0.149 HD
BRANCH   7   9
ATOM      9  S   UNL     1      35.719 -18.692 -21.798  0.00  0.00    +0.066 S 
ATOM     10  O   UNL     1      35.738 -19.510 -22.996  0.00  0.00    -0.152 OA
ATOM     11  O   UNL     1      36.943 -18.341 -21.105  0.00  0.00    -0.152 OA
BRANCH   9  14
ATOM     12  S   UNL     1      34.746 -16.050 -21.026  0.00  0.00    -0.066 S 
ATOM     13  N   UNL     1      33.857 -14.500 -24.482  0.00  0.00    -0.243 NA
ATOM     14  C   UNL     1      35.056 -17.107 -22.312  0.00  0.00    +0.153 C 
ATOM     15  C   UNL     1      34.759 -16.604 -23.532  0.00  0.00    +0.046 C 
ATOM     16  C   UNL     1      34.247 -15.276 -23.434  0.00  0.00    +0.089 C 
ATOM     17  C   UNL     1      34.183 -14.839 -22.110  0.00  0.00    +0.048 C 
ATOM     18  C   UNL     1      33.704 -13.554 -21.816  0.00  0.00    +0.010 C 
ATOM     19  C   UNL     1      33.305 -12.758 -22.882  0.00  0.00    +0.021 C 
ATOM     20  C   UNL     1      33.402 -13.272 -24.163  0.00  0.00    +0.099 C 
ENDBRANCH   9  14
ENDBRANCH   7   9
ENDBRANCH   3   7
BRANCH   2  21
ATOM     21  C   UNL     1      33.177 -22.971 -17.824  0.00  0.00    +0.120 C 
BRANCH  21  24
ATOM     22  N   UNL     1      34.395 -24.869 -12.054  0.00  0.00    -0.230 NA
ATOM     23  N   UNL     1      32.395 -25.231 -13.243  0.00  0.00    -0.343 N 
ATOM     24  C   UNL     1      33.987 -23.150 -16.571  0.00  0.00    -0.002 C 
ATOM     25  C   UNL     1      33.442 -23.836 -15.494  0.00  0.00    +0.000 C 
ATOM     26  C   UNL     1      35.270 -22.625 -16.506  0.00  0.00    -0.003 C 
ATOM     27  C   UNL     1      34.193 -24.006 -14.319  0.00  0.00    +0.031 C 
ATOM     28  C   UNL     1      35.499 -23.477 -14.239  0.00  0.00    +0.004 C 
ATOM     29  C   UNL     1      36.025 -22.787 -15.344  0.00  0.00    -0.000 C 
ATOM     30  C   UNL     1      33.704 -24.685 -13.202  0.00  0.00    +0.125 C 
ATOM     31  C   UNL     1      36.231 -23.657 -13.060  0.00  0.00    +0.021 C 
ATOM     32  C   UNL     1      35.641 -24.349 -12.014  0.00  0.00    +0.100 C 
ATOM     33  H   UNL     1      32.037 -25.712 -12.462  0.00  0.00    +0.144 HD
ATOM     34  H   UNL     1      31.845 -25.128 -14.053  0.00  0.00    +0.144 HD
ENDBRANCH  21  24
ENDBRANCH   2  21
TORSDOF 5
ENDMDL
MODEL 8
REMARK VINA RESULT:     -11.3      1.869      2.268
REMARK  Name = 445480
REMARK  5 active torsions:
REMARK  status: ('A' for Active; 'I' for Inactive)
REMARK    1  A    between atoms: N_2  and  C_21
REMARK    2  A    between atoms: C_3  and  N_7
REMARK    3  A    between atoms: N_7  and  S_9
REMARK    4  A    between atoms: S_9  and  C_14
REMARK    5  A    between atoms: C_21  and  C_24
REMARK                            x       y       z     vdW  Elec       q    Type
REMARK                         _______ _______ _______ _____ _____    ______ ____
ROOT
ATOM      1  O   UNL     1      36.312 -20.746 -19.648  0.00  0.00    -0.273 OA
ATOM      2  N   UNL     1      35.022 -19.529 -21.194  0.00  0.00    -0.274 N 
ATOM      3  C   UNL     1      33.991 -21.311 -20.100  0.00  0.00    +0.153 C 
ATOM      4  C   UNL     1      32.929 -20.382 -20.675  0.00  0.00    +0.048 C 
ATOM      5  C   UNL     1      33.681 -19.588 -21.727  0.00  0.00    +0.096 C 
ATOM      6  C   UNL     1      35.268 -20.519 -20.242  0.00  0.00    +0.242 C 
ENDROOT
BRANCH   3   7
ATOM      7  N   UNL     1      33.742 -21.583 -18.680  0.00  0.00    -0.171 NA
ATOM      8  H   UNL     1      34.199 -20.844 -18.144  0.00  0.00    +0.149 HD
BRANCH   7   9
ATOM      9  S   UNL     1      34.278 -23.081 -18.039  0.00  0.00    +0.066 S 
ATOM     10  O   UNL     1      35.558 -22.890 -17.384  0.00  0.00    -0.152 OA
ATOM     11  O   UNL     1      34.088 -24.117 -19.035  0.00  0.00    -0.152 OA
BRANCH   9  14
ATOM     12  S   UNL     1      33.897 -24.098 -15.330  0.00  0.00    -0.066 S 
ATOM     13  N   UNL     1      30.019 -24.070 -15.018  0.00  0.00    -0.243 NA
ATOM     14  C   UNL     1      33.136 -23.534 -16.734  0.00  0.00    +0.153 C 
ATOM     15  C   UNL     1      31.786 -23.510 -16.664  0.00  0.00    +0.046 C 
ATOM     16  C   UNL     1      31.323 -23.975 -15.397  0.00  0.00    +0.089 C 
ATOM     17  C   UNL     1      32.379 -24.335 -14.558  0.00  0.00    +0.048 C 
ATOM     18  C   UNL     1      32.117 -24.816 -13.267  0.00  0.00    +0.010 C 
ATOM     19  C   UNL     1      30.789 -24.915 -12.875  0.00  0.00    +0.021 C 
ATOM     20  C   UNL     1      29.806 -24.537 -13.771  0.00  0.00    +0.099 C 
ENDBRANCH   9  14
ENDBRANCH   7   9
ENDBRANCH   3   7
BRANCH   2  21
ATOM     21  C   UNL     1      36.005 -18.606 -21.717  0.00  0.00    +0.120 C 
BRANCH  21  24
ATOM     22  N   UNL     1      33.470 -13.054 -22.783  0.00  0.00    -0.230 NA
ATOM     23  N   UNL     1      34.374 -13.801 -20.741  0.00  0.00    -0.343 N 
ATOM     24  C   UNL     1      35.337 -17.523 -22.518  0.00  0.00    -0.002 C 
ATOM     25  C   UNL     1      35.032 -16.312 -21.911  0.00  0.00    +0.000 C 
ATOM     26  C   UNL     1      35.031 -17.748 -23.852  0.00  0.00    -0.003 C 
ATOM     27  C   UNL     1      34.406 -15.295 -22.652  0.00  0.00    +0.031 C 
ATOM     28  C   UNL     1      34.090 -15.511 -24.010  0.00  0.00    +0.004 C 
ATOM     29  C   UNL     1      34.409 -16.747 -24.598  0.00  0.00    -0.000 C 
ATOM     30  C   UNL     1      34.072 -14.056 -22.103  0.00  0.00    +0.125 C 
ATOM     31  C   UNL     1      33.466 -14.487 -24.732  0.00  0.00    +0.021 C 
ATOM     32  C   UNL     1      33.183 -13.297 -24.079  0.00  0.00    +0.100 C 
ATOM     33  H   UNL     1      34.144 -12.931 -20.340  0.00  0.00    +0.144 HD
ATOM     34  H   UNL     1      34.812 -14.494 -20.196  0.00  0.00    +0.144 HD
ENDBRANCH  21  24
ENDBRANCH   2  21
TORSDOF 5
ENDMDL
MODEL 9
REMARK VINA RESULT:     -11.1      4.715     10.518
REMARK  Name = 445480
REMARK  5 active torsions:
REMARK  status: ('A' for Active; 'I' for Inactive)
REMARK    1  A    between atoms: N_2  and  C_21
REMARK    2  A    between atoms: C_3  and  N_7
REMARK    3  A    between atoms: N_7  and  S_9
REMARK    4  A    between atoms: S_9  and  C_14
REMARK    5  A    between atoms: C_21  and  C_24
REMARK                            x       y       z     vdW  Elec       q    Type
REMARK                         _______ _______ _______ _____ _____    ______ ____
ROOT
ATOM      1  O   UNL     1      35.199 -16.338 -20.644  0.00  0.00    -0.273 OA
ATOM      2  N   UNL     1      35.533 -17.834 -22.428  0.00  0.00    -0.274 N 
ATOM      3  C   UNL     1      34.219 -15.953 -22.835  0.00  0.00    +0.153 C 
ATOM      4  C   UNL     1      34.704 -16.532 -24.159  0.00  0.00    +0.048 C 
ATOM      5  C   UNL     1      35.102 -17.952 -23.801  0.00  0.00    +0.096 C 
ATOM      6  C   UNL     1      35.041 -16.688 -21.805  0.00  0.00    +0.242 C 
ENDROOT
BRANCH   3   7
ATOM      7  N   UNL     1      34.503 -14.517 -22.751  0.00  0.00    -0.171 NA
ATOM      8  H   UNL     1      34.450 -14.254 -21.766  0.00  0.00    +0.149 HD
BRANCH   7   9
ATOM      9  S   UNL     1      33.491 -13.441 -23.621  0.00  0.00    +0.066 S 
ATOM     10  O   UNL     1      32.307 -14.153 -24.065  0.00  0.00    -0.152 OA
ATOM     11  O   UNL     1      34.299 -12.672 -24.547  0.00  0.00    -0.152 OA
BRANCH   9  14
ATOM     12  S   UNL     1      32.466 -12.858 -20.950  0.00  0.00    -0.066 S 
ATOM     13  N   UNL     1      31.961  -9.004 -21.127  0.00  0.00    -0.243 NA
ATOM     14  C   UNL     1      32.900 -12.213 -22.455  0.00  0.00    +0.153 C 
ATOM     15  C   UNL     1      32.739 -10.875 -22.556  0.00  0.00    +0.046 C 
ATOM     16  C   UNL     1      32.230 -10.321 -21.343  0.00  0.00    +0.089 C 
ATOM     17  C   UNL     1      32.031 -11.300 -20.368  0.00  0.00    +0.048 C 
ATOM     18  C   UNL     1      31.536 -10.942 -19.105  0.00  0.00    +0.010 C 
ATOM     19  C   UNL     1      31.258  -9.601 -18.880  0.00  0.00    +0.021 C 
ATOM     20  C   UNL     1      31.485  -8.698 -19.903  0.00  0.00    +0.099 C 
ENDBRANCH   9  14
ENDBRANCH   7   9
ENDBRANCH   3   7
BRANCH   2  21
ATOM     21  C   UNL     1      36.287 -18.884 -21.778  0.00  0.00    +0.120 C 
BRANCH  21  24
ATOM     22  N   UNL     1      34.752 -22.998 -17.408  0.00  0.00    -0.230 NA
ATOM     23  N   UNL     1      36.918 -22.195 -17.861  0.00  0.00    -0.343 N 
ATOM     24  C   UNL     1      35.376 -19.763 -20.967  0.00  0.00    -0.002 C 
ATOM     25  C   UNL     1      35.907 -20.551 -19.954  0.00  0.00    +0.000 C 
ATOM     26  C   UNL     1      34.017 -19.777 -21.242  0.00  0.00    -0.003 C 
ATOM     27  C   UNL     1      35.062 -21.376 -19.193  0.00  0.00    +0.031 C 
ATOM     28  C   UNL     1      33.677 -21.400 -19.462  0.00  0.00    +0.004 C 
ATOM     29  C   UNL     1      33.168 -20.593 -20.493  0.00  0.00    -0.000 C 
ATOM     30  C   UNL     1      35.532 -22.191 -18.162  0.00  0.00    +0.125 C 
ATOM     31  C   UNL     1      32.852 -22.229 -18.693  0.00  0.00    +0.021 C 
ATOM     32  C   UNL     1      33.432 -22.995 -17.693  0.00  0.00    +0.100 C 
ATOM     33  H   UNL     1      37.263 -22.766 -17.137  0.00  0.00    +0.144 HD
ATOM     34  H   UNL     1      37.535 -21.627 -18.377  0.00  0.00    +0.144 HD
ENDBRANCH  21  24
ENDBRANCH   2  21
TORSDOF 5
ENDMDL
