MODEL 1
REMARK VINA RESULT:     -11.9      0.000      0.000
REMARK  Name = 447735
REMARK  4 active torsions:
REMARK  status: ('A' for Active; 'I' for Inactive)
REMARK    1  A    between atoms: N_2  and  C_13
REMARK    2  A    between atoms: C_3  and  C_18
REMARK    3  A    between atoms: C_7  and  C_15
REMARK    4  A    between atoms: C_26  and  C_30
REMARK                            x       y       z     vdW  Elec       q    Type
REMARK                         _______ _______ _______ _____ _____    ______ ____
ROOT
ATOM      1  O   UNL     1      33.834 -24.211 -17.679  0.00  0.00    -0.270 OA
ATOM      2  N   UNL     1      35.105 -22.722 -16.375  0.00  0.00    -0.280 N 
ATOM      3  C   UNL     1      34.374 -23.125 -17.501  0.00  0.00    +0.249 C 
ATOM      4  H   UNL     1      35.471 -21.809 -16.402  0.00  0.00    +0.155 HD
ENDROOT
BRANCH   2  13
ATOM      5  N   UNL     1      38.594 -25.772 -12.427  0.00  0.00    -0.274 NA
ATOM      6  C   UNL     1      36.908 -24.737 -13.867  0.00  0.00    +0.010 C 
ATOM      7  C   UNL     1      38.224 -25.369 -13.598  0.00  0.00    +0.053 C 
ATOM      8  C   UNL     1      35.910 -24.919 -12.899  0.00  0.00    -0.019 C 
ATOM      9  C   UNL     1      36.226 -25.739 -11.684  0.00  0.00    +0.053 C 
ATOM     10  C   UNL     1      37.685 -25.529 -11.301  0.00  0.00    +0.130 C 
ATOM     11  C   UNL     1      36.645 -24.002 -15.025  0.00  0.00    +0.016 C 
ATOM     12  C   UNL     1      34.637 -24.382 -13.112  0.00  0.00    -0.003 C 
ATOM     13  C   UNL     1      35.375 -23.457 -15.221  0.00  0.00    +0.051 C 
ATOM     14  C   UNL     1      34.373 -23.650 -14.269  0.00  0.00    +0.014 C 
BRANCH   7  15
ATOM     15  C   UNL     1      39.185 -25.563 -14.745  0.00  0.00    +0.040 C 
ATOM     16  C   UNL     1      39.642 -24.199 -15.231  0.00  0.00    +0.006 C 
ATOM     17  C   UNL     1      40.349 -26.422 -14.282  0.00  0.00    +0.006 C 
ENDBRANCH   7  15
ENDBRANCH   2  13
BRANCH   3  18
ATOM     18  C   UNL     1      34.282 -22.119 -18.593  0.00  0.00    +0.054 C 
ATOM     19  C   UNL     1      35.369 -20.576 -20.083  0.00  0.00    +0.000 C 
ATOM     20  C   UNL     1      34.109 -20.244 -20.633  0.00  0.00    +0.000 C 
ATOM     21  C   UNL     1      35.441 -21.528 -19.052  0.00  0.00    +0.005 C 
ATOM     22  C   UNL     1      33.044 -21.815 -19.109  0.00  0.00    +0.005 C 
ATOM     23  C   UNL     1      32.954 -20.872 -20.135  0.00  0.00    +0.000 C 
ATOM     24  C   UNL     1      34.038 -19.293 -21.663  0.00  0.00    +0.003 C 
ATOM     25  C   UNL     1      36.522 -19.948 -20.581  0.00  0.00    +0.000 C 
ATOM     26  C   UNL     1      35.194 -18.678 -22.146  0.00  0.00    +0.031 C 
ATOM     27  C   UNL     1      36.434 -19.006 -21.606  0.00  0.00    +0.003 C 
BRANCH  26  30
ATOM     28  N   UNL     1      34.463 -17.989 -24.416  0.00  0.00    -0.343 N 
ATOM     29  N   UNL     1      35.641 -16.499 -23.054  0.00  0.00    -0.285 NA
ATOM     30  C   UNL     1      35.104 -17.696 -23.214  0.00  0.00    +0.117 C 
ATOM     31  H   UNL     1      34.414 -17.308 -25.126  0.00  0.00    +0.144 HD
ATOM     32  H   UNL     1      34.059 -18.876 -24.556  0.00  0.00    +0.144 HD
ATOM     33  H   UNL     1      35.582 -15.832 -23.777  0.00  0.00    +0.188 HD
ENDBRANCH  26  30
ENDBRANCH   3  18
TORSDOF 4
ENDMDL
MODEL 2
REMARK VINA RESULT:     -11.8      8.901     15.727
REMARK  Name = 447735
REMARK  4 active torsions:
REMARK  status: ('A' for Active; 'I' for Inactive)
REMARK    1  A    between atoms: N_2  and  C_13
REMARK    2  A    between atoms: C_3  and  C_18
REMARK    3  A    between atoms: C_7  and  C_15
REMARK    4  A    between atoms: C_26  and  C_30
REMARK                            x       y       z     vdW  Elec       q    Type
REMARK                         _______ _______ _______ _____ _____    ______ ____
ROOT
ATOM      1  O   UNL     1      31.098 -11.233 -22.125  0.00  0.00    -0.270 OA
ATOM      2  N   UNL     1      33.167 -10.154 -22.417  0.00  0.00    -0.280 N 
ATOM      3  C   UNL     1      32.300 -11.254 -22.361  0.00  0.00    +0.249 C 
ATOM      4  H   UNL     1      34.108 -10.357 -22.622  0.00  0.00    +0.155 HD
ENDROOT
BRANCH   2  13
ATOM      5  N   UNL     1      32.350  -4.350 -24.062  0.00  0.00    -0.274 NA
ATOM      6  C   UNL     1      32.725  -6.549 -23.056  0.00  0.00    +0.010 C 
ATOM      7  C   UNL     1      32.911  -5.514 -24.104  0.00  0.00    +0.053 C 
ATOM      8  C   UNL     1      32.226  -6.115 -21.821  0.00  0.00    -0.019 C 
ATOM      9  C   UNL     1      31.932  -4.657 -21.634  0.00  0.00    +0.053 C 
ATOM     10  C   UNL     1      31.434  -4.072 -22.950  0.00  0.00    +0.130 C 
ATOM     11  C   UNL     1      33.036  -7.895 -23.261  0.00  0.00    +0.016 C 
ATOM     12  C   UNL     1      32.066  -7.035 -20.780  0.00  0.00    -0.003 C 
ATOM     13  C   UNL     1      32.858  -8.808 -22.220  0.00  0.00    +0.051 C 
ATOM     14  C   UNL     1      32.378  -8.379 -20.983  0.00  0.00    +0.014 C 
BRANCH   7  15
ATOM     15  C   UNL     1      33.804  -5.822 -25.281  0.00  0.00    +0.040 C 
ATOM     16  C   UNL     1      33.591  -4.759 -26.343  0.00  0.00    +0.006 C 
ATOM     17  C   UNL     1      35.247  -5.877 -24.811  0.00  0.00    +0.006 C 
ENDBRANCH   7  15
ENDBRANCH   2  13
BRANCH   3  18
ATOM     18  C   UNL     1      32.936 -12.579 -22.591  0.00  0.00    +0.054 C 
ATOM     19  C   UNL     1      33.956 -14.567 -21.702  0.00  0.00    +0.000 C 
ATOM     20  C   UNL     1      34.122 -15.051 -23.020  0.00  0.00    +0.000 C 
ATOM     21  C   UNL     1      33.353 -13.314 -21.501  0.00  0.00    +0.005 C 
ATOM     22  C   UNL     1      33.086 -13.026 -23.883  0.00  0.00    +0.005 C 
ATOM     23  C   UNL     1      33.682 -14.269 -24.102  0.00  0.00    +0.000 C 
ATOM     24  C   UNL     1      34.725 -16.304 -23.221  0.00  0.00    +0.003 C 
ATOM     25  C   UNL     1      34.397 -15.349 -20.623  0.00  0.00    +0.000 C 
ATOM     26  C   UNL     1      35.157 -17.068 -22.136  0.00  0.00    +0.031 C 
ATOM     27  C   UNL     1      34.993 -16.591 -20.839  0.00  0.00    +0.003 C 
BRANCH  26  30
ATOM     28  N   UNL     1      35.088 -19.400 -22.985  0.00  0.00    -0.343 N 
ATOM     29  N   UNL     1      37.021 -18.575 -21.964  0.00  0.00    -0.285 NA
ATOM     30  C   UNL     1      35.778 -18.364 -22.361  0.00  0.00    +0.117 C 
ATOM     31  H   UNL     1      35.529 -20.270 -23.127  0.00  0.00    +0.144 HD
ATOM     32  H   UNL     1      34.160 -19.264 -23.285  0.00  0.00    +0.144 HD
ATOM     33  H   UNL     1      37.444 -19.452 -22.114  0.00  0.00    +0.188 HD
ENDBRANCH  26  30
ENDBRANCH   3  18
TORSDOF 4
ENDMDL
MODEL 3
REMARK VINA RESULT:     -11.6      2.133     10.392
REMARK  Name = 447735
REMARK  4 active torsions:
REMARK  status: ('A' for Active; 'I' for Inactive)
REMARK    1  A    between atoms: N_2  and  C_13
REMARK    2  A    between atoms: C_3  and  C_18
REMARK    3  A    between atoms: C_7  and  C_15
REMARK    4  A    between atoms: C_26  and  C_30
REMARK                            x       y       z     vdW  Elec       q    Type
REMARK                         _______ _______ _______ _____ _____    ______ ____
ROOT
ATOM      1  O   UNL     1      33.643 -21.663 -19.729  0.00  0.00    -0.270 OA
ATOM      2  N   UNL     1      35.547 -20.302 -19.955  0.00  0.00    -0.280 N 
ATOM      3  C   UNL     1      34.753 -21.293 -19.363  0.00  0.00    +0.249 C 
ATOM      4  H   UNL     1      36.417 -20.134 -19.527  0.00  0.00    +0.155 HD
ENDROOT
BRANCH   2  13
ATOM      5  N   UNL     1      34.849 -15.140 -23.106  0.00  0.00    -0.274 NA
ATOM      6  C   UNL     1      34.907 -17.368 -22.095  0.00  0.00    +0.010 C 
ATOM      7  C   UNL     1      34.801 -15.887 -22.053  0.00  0.00    +0.053 C 
ATOM      8  C   UNL     1      34.684 -17.981 -23.335  0.00  0.00    -0.019 C 
ATOM      9  C   UNL     1      34.345 -17.120 -24.515  0.00  0.00    +0.053 C 
ATOM     10  C   UNL     1      35.085 -15.794 -24.398  0.00  0.00    +0.130 C 
ATOM     11  C   UNL     1      35.198 -18.137 -20.967  0.00  0.00    +0.016 C 
ATOM     12  C   UNL     1      34.729 -19.376 -23.433  0.00  0.00    -0.003 C 
ATOM     13  C   UNL     1      35.257 -19.527 -21.078  0.00  0.00    +0.051 C 
ATOM     14  C   UNL     1      35.019 -20.144 -22.306  0.00  0.00    +0.014 C 
BRANCH   7  15
ATOM     15  C   UNL     1      34.622 -15.209 -20.716  0.00  0.00    +0.040 C 
ATOM     16  C   UNL     1      35.008 -13.748 -20.858  0.00  0.00    +0.006 C 
ATOM     17  C   UNL     1      33.183 -15.376 -20.261  0.00  0.00    +0.006 C 
ENDBRANCH   7  15
ENDBRANCH   2  13
BRANCH   3  18
ATOM     18  C   UNL     1      35.329 -21.930 -18.149  0.00  0.00    +0.054 C 
ATOM     19  C   UNL     1      35.049 -23.341 -16.222  0.00  0.00    +0.000 C 
ATOM     20  C   UNL     1      36.405 -23.120 -15.884  0.00  0.00    +0.000 C 
ATOM     21  C   UNL     1      34.520 -22.733 -17.372  0.00  0.00    +0.005 C 
ATOM     22  C   UNL     1      36.650 -21.698 -17.843  0.00  0.00    +0.005 C 
ATOM     23  C   UNL     1      37.193 -22.296 -16.705  0.00  0.00    +0.000 C 
ATOM     24  C   UNL     1      36.934 -23.729 -14.734  0.00  0.00    +0.003 C 
ATOM     25  C   UNL     1      34.263 -24.165 -15.401  0.00  0.00    +0.000 C 
ATOM     26  C   UNL     1      36.138 -24.545 -13.930  0.00  0.00    +0.031 C 
ATOM     27  C   UNL     1      34.804 -24.762 -14.262  0.00  0.00    +0.003 C 
BRANCH  26  30
ATOM     28  N   UNL     1      38.077 -25.217 -12.533  0.00  0.00    -0.343 N 
ATOM     29  N   UNL     1      35.900 -25.706 -11.840  0.00  0.00    -0.285 NA
ATOM     30  C   UNL     1      36.701 -25.168 -12.743  0.00  0.00    +0.117 C 
ATOM     31  H   UNL     1      38.437 -25.645 -11.722  0.00  0.00    +0.144 HD
ATOM     32  H   UNL     1      38.691 -24.825 -13.196  0.00  0.00    +0.144 HD
ATOM     33  H   UNL     1      36.279 -26.130 -11.035  0.00  0.00    +0.188 HD
ENDBRANCH  26  30
ENDBRANCH   3  18
TORSDOF 4
ENDMDL
MODEL 4
REMARK VINA RESULT:     -11.4      9.043     15.888
REMARK  Name = 447735
REMARK  4 active torsions:
REMARK  status: ('A' for Active; 'I' for Inactive)
REMARK    1  A    between atoms: N_2  and  C_13
REMARK    2  A    between atoms: C_3  and  C_18
REMARK    3  A    between atoms: C_7  and  C_15
REMARK    4  A    between atoms: C_26  and  C_30
REMARK                            x       y       z     vdW  Elec       q    Type
REMARK                         _______ _______ _______ _____ _____    ______ ____
ROOT
ATOM      1  O   UNL     1      30.646 -10.968 -22.114  0.00  0.00    -0.270 OA
ATOM      2  N   UNL     1      32.726  -9.895 -21.888  0.00  0.00    -0.280 N 
ATOM      3  C   UNL     1      31.856 -10.993 -21.914  0.00  0.00    +0.249 C 
ATOM      4  H   UNL     1      33.673 -10.100 -21.713  0.00  0.00    +0.155 HD
ENDROOT
BRANCH   2  13
ATOM      5  N   UNL     1      32.401  -4.668 -24.992  0.00  0.00    -0.274 NA
ATOM      6  C   UNL     1      32.510  -6.556 -23.439  0.00  0.00    +0.010 C 
ATOM      7  C   UNL     1      32.930  -5.794 -24.642  0.00  0.00    +0.053 C 
ATOM      8  C   UNL     1      31.780  -5.855 -22.470  0.00  0.00    -0.019 C 
ATOM      9  C   UNL     1      31.489  -4.402 -22.699  0.00  0.00    +0.053 C 
ATOM     10  C   UNL     1      31.284  -4.159 -24.188  0.00  0.00    +0.130 C 
ATOM     11  C   UNL     1      32.824  -7.904 -23.251  0.00  0.00    +0.016 C 
ATOM     12  C   UNL     1      31.389  -6.506 -21.296  0.00  0.00    -0.003 C 
ATOM     13  C   UNL     1      32.416  -8.549 -22.083  0.00  0.00    +0.051 C 
ATOM     14  C   UNL     1      31.704  -7.852 -21.107  0.00  0.00    +0.014 C 
BRANCH   7  15
ATOM     15  C   UNL     1      34.038  -6.349 -25.505  0.00  0.00    +0.040 C 
ATOM     16  C   UNL     1      33.895  -5.778 -26.904  0.00  0.00    +0.006 C 
ATOM     17  C   UNL     1      35.378  -6.001 -24.882  0.00  0.00    +0.006 C 
ENDBRANCH   7  15
ENDBRANCH   2  13
BRANCH   3  18
ATOM     18  C   UNL     1      32.485 -12.312 -21.641  0.00  0.00    +0.054 C 
ATOM     19  C   UNL     1      33.786 -14.183 -22.410  0.00  0.00    +0.000 C 
ATOM     20  C   UNL     1      33.662 -14.774 -21.130  0.00  0.00    +0.000 C 
ATOM     21  C   UNL     1      33.186 -12.936 -22.652  0.00  0.00    +0.005 C 
ATOM     22  C   UNL     1      32.349 -12.864 -20.389  0.00  0.00    +0.005 C 
ATOM     23  C   UNL     1      32.939 -14.102 -20.129  0.00  0.00    +0.000 C 
ATOM     24  C   UNL     1      34.262 -16.020 -20.888  0.00  0.00    +0.003 C 
ATOM     25  C   UNL     1      34.508 -14.855 -23.409  0.00  0.00    +0.000 C 
ATOM     26  C   UNL     1      34.976 -16.674 -21.893  0.00  0.00    +0.031 C 
ATOM     27  C   UNL     1      35.099 -16.092 -23.151  0.00  0.00    +0.003 C 
BRANCH  26  30
ATOM     28  N   UNL     1      35.009 -18.879 -20.753  0.00  0.00    -0.343 N 
ATOM     29  N   UNL     1      36.732 -18.283 -22.216  0.00  0.00    -0.285 NA
ATOM     30  C   UNL     1      35.592 -17.963 -21.626  0.00  0.00    +0.117 C 
ATOM     31  H   UNL     1      35.445 -19.747 -20.587  0.00  0.00    +0.144 HD
ATOM     32  H   UNL     1      34.163 -18.659 -20.302  0.00  0.00    +0.144 HD
ATOM     33  H   UNL     1      37.152 -19.155 -22.036  0.00  0.00    +0.188 HD
ENDBRANCH  26  30
ENDBRANCH   3  18
TORSDOF 4
ENDMDL
MODEL 5
REMARK VINA RESULT:     -11.1      1.055      2.709
REMARK  Name = 447735
REMARK  4 active torsions:
REMARK  status: ('A' for Active; 'I' for Inactive)
REMARK    1  A    between atoms: N_2  and  C_13
REMARK    2  A    between atoms: C_3  and  C_18
REMARK    3  A    between atoms: C_7  and  C_15
REMARK    4  A    between atoms: C_26  and  C_30
REMARK                            x       y       z     vdW  Elec       q    Type
REMARK                         _______ _______ _______ _____ _____    ______ ____
ROOT
ATOM      1  O   UNL     1      34.425 -23.531 -17.337  0.00  0.00    -0.270 OA
ATOM      2  N   UNL     1      36.503 -22.486 -16.988  0.00  0.00    -0.280 N 
ATOM      3  C   UNL     1      35.263 -22.680 -17.613  0.00  0.00    +0.249 C 
ATOM      4  H   UNL     1      37.053 -21.750 -17.341  0.00  0.00    +0.155 HD
ENDROOT
BRANCH   2  13
ATOM      5  N   UNL     1      36.388 -25.725 -11.835  0.00  0.00    -0.274 NA
ATOM      6  C   UNL     1      36.788 -24.348 -13.818  0.00  0.00    +0.010 C 
ATOM      7  C   UNL     1      35.990 -24.807 -12.653  0.00  0.00    +0.053 C 
ATOM      8  C   UNL     1      38.154 -24.660 -13.810  0.00  0.00    -0.019 C 
ATOM      9  C   UNL     1      38.715 -25.411 -12.640  0.00  0.00    +0.053 C 
ATOM     10  C   UNL     1      37.667 -26.386 -12.118  0.00  0.00    +0.130 C 
ATOM     11  C   UNL     1      36.233 -23.627 -14.877  0.00  0.00    +0.016 C 
ATOM     12  C   UNL     1      38.968 -24.222 -14.859  0.00  0.00    -0.003 C 
ATOM     13  C   UNL     1      37.050 -23.207 -15.927  0.00  0.00    +0.051 C 
ATOM     14  C   UNL     1      38.414 -23.501 -15.916  0.00  0.00    +0.014 C 
BRANCH   7  15
ATOM     15  C   UNL     1      34.646 -24.171 -12.396  0.00  0.00    +0.040 C 
ATOM     16  C   UNL     1      33.571 -25.036 -13.030  0.00  0.00    +0.006 C 
ATOM     17  C   UNL     1      34.443 -24.017 -10.900  0.00  0.00    +0.006 C 
ENDBRANCH   7  15
ENDBRANCH   2  13
BRANCH   3  18
ATOM     18  C   UNL     1      34.969 -21.761 -18.744  0.00  0.00    +0.054 C 
ATOM     19  C   UNL     1      35.746 -20.186 -20.387  0.00  0.00    +0.000 C 
ATOM     20  C   UNL     1      34.419 -20.046 -20.856  0.00  0.00    +0.000 C 
ATOM     21  C   UNL     1      36.009 -21.058 -19.318  0.00  0.00    +0.005 C 
ATOM     22  C   UNL     1      33.670 -21.643 -19.181  0.00  0.00    +0.005 C 
ATOM     23  C   UNL     1      33.391 -20.781 -20.242  0.00  0.00    +0.000 C 
ATOM     24  C   UNL     1      34.157 -19.173 -21.925  0.00  0.00    +0.003 C 
ATOM     25  C   UNL     1      36.772 -19.450 -21.001  0.00  0.00    +0.000 C 
ATOM     26  C   UNL     1      35.189 -18.450 -22.523  0.00  0.00    +0.031 C 
ATOM     27  C   UNL     1      36.495 -18.588 -22.062  0.00  0.00    +0.003 C 
BRANCH  26  30
ATOM     28  N   UNL     1      35.349 -16.232 -23.627  0.00  0.00    -0.343 N 
ATOM     29  N   UNL     1      34.199 -17.983 -24.662  0.00  0.00    -0.285 NA
ATOM     30  C   UNL     1      34.902 -17.551 -23.630  0.00  0.00    +0.117 C 
ATOM     31  H   UNL     1      35.143 -15.641 -24.387  0.00  0.00    +0.144 HD
ATOM     32  H   UNL     1      35.872 -15.890 -22.866  0.00  0.00    +0.144 HD
ATOM     33  H   UNL     1      34.002 -17.376 -25.413  0.00  0.00    +0.188 HD
ENDBRANCH  26  30
ENDBRANCH   3  18
TORSDOF 4
ENDMDL
MODEL 6
REMARK VINA RESULT:     -11.0      7.987     15.022
REMARK  Name = 447735
REMARK  4 active torsions:
REMARK  status: ('A' for Active; 'I' for Inactive)
REMARK    1  A    between atoms: N_2  and  C_13
REMARK    2  A    between atoms: C_3  and  C_18
REMARK    3  A    between atoms: C_7  and  C_15
REMARK    4  A    between atoms: C_26  and  C_30
REMARK                            x       y       z     vdW  Elec       q    Type
REMARK                         _______ _______ _______ _____ _____    ______ ____
ROOT
ATOM      1  O   UNL     1      33.079 -12.416 -24.450  0.00  0.00    -0.270 OA
ATOM      2  N   UNL     1      33.014 -11.291 -22.386  0.00  0.00    -0.280 N 
ATOM      3  C   UNL     1      33.258 -12.377 -23.238  0.00  0.00    +0.249 C 
ATOM      4  H   UNL     1      33.216 -11.436 -21.434  0.00  0.00    +0.155 HD
ENDROOT
BRANCH   2  13
ATOM      5  N   UNL     1      33.099  -5.845 -25.105  0.00  0.00    -0.274 NA
ATOM      6  C   UNL     1      32.822  -7.881 -23.775  0.00  0.00    +0.010 C 
ATOM      7  C   UNL     1      33.620  -6.870 -24.515  0.00  0.00    +0.053 C 
ATOM      8  C   UNL     1      31.522  -7.510 -23.404  0.00  0.00    -0.019 C 
ATOM      9  C   UNL     1      31.036  -6.137 -23.757  0.00  0.00    +0.053 C 
ATOM     10  C   UNL     1      31.637  -5.718 -25.092  0.00  0.00    +0.130 C 
ATOM     11  C   UNL     1      33.322  -9.141 -23.441  0.00  0.00    +0.016 C 
ATOM     12  C   UNL     1      30.734  -8.402 -22.670  0.00  0.00    -0.003 C 
ATOM     13  C   UNL     1      32.521 -10.031 -22.723  0.00  0.00    +0.051 C 
ATOM     14  C   UNL     1      31.233  -9.661 -22.336  0.00  0.00    +0.014 C 
BRANCH   7  15
ATOM     15  C   UNL     1      35.119  -7.034 -24.582  0.00  0.00    +0.040 C 
ATOM     16  C   UNL     1      35.703  -5.856 -25.340  0.00  0.00    +0.006 C 
ATOM     17  C   UNL     1      35.673  -7.135 -23.172  0.00  0.00    +0.006 C 
ENDBRANCH   7  15
ENDBRANCH   2  13
BRANCH   3  18
ATOM     18  C   UNL     1      33.762 -13.608 -22.573  0.00  0.00    +0.054 C 
ATOM     19  C   UNL     1      34.617 -15.849 -22.741  0.00  0.00    +0.000 C 
ATOM     20  C   UNL     1      34.705 -15.904 -21.330  0.00  0.00    +0.000 C 
ATOM     21  C   UNL     1      34.139 -14.679 -23.355  0.00  0.00    +0.005 C 
ATOM     22  C   UNL     1      33.837 -13.635 -21.199  0.00  0.00    +0.005 C 
ATOM     23  C   UNL     1      34.311 -14.788 -20.572  0.00  0.00    +0.000 C 
ATOM     24  C   UNL     1      35.183 -17.074 -20.717  0.00  0.00    +0.003 C 
ATOM     25  C   UNL     1      35.010 -16.965 -23.497  0.00  0.00    +0.000 C 
ATOM     26  C   UNL     1      35.569 -18.173 -21.484  0.00  0.00    +0.031 C 
ATOM     27  C   UNL     1      35.483 -18.119 -22.872  0.00  0.00    +0.003 C 
BRANCH  26  30
ATOM     28  N   UNL     1      35.288 -20.532 -20.763  0.00  0.00    -0.343 N 
ATOM     29  N   UNL     1      37.269 -19.384 -20.292  0.00  0.00    -0.285 NA
ATOM     30  C   UNL     1      36.063 -19.376 -20.834  0.00  0.00    +0.117 C 
ATOM     31  H   UNL     1      35.643 -21.336 -20.318  0.00  0.00    +0.144 HD
ATOM     32  H   UNL     1      34.387 -20.546 -21.158  0.00  0.00    +0.144 HD
ATOM     33  H   UNL     1      37.605 -20.197 -19.850  0.00  0.00    +0.188 HD
ENDBRANCH  26  30
ENDBRANCH   3  18
TORSDOF 4
ENDMDL
MODEL 7
REMARK VINA RESULT:     -10.8      3.265     11.056
REMARK  Name = 447735
REMARK  4 active torsions:
REMARK  status: ('A' for Active; 'I' for Inactive)
REMARK    1  A    between atoms: N_2  and  C_13
REMARK    2  A    between atoms: C_3  and  C_18
REMARK    3  A    between atoms: C_7  and  C_15
REMARK    4  A    between atoms: C_26  and  C_30
REMARK                            x       y       z     vdW  Elec       q    Type
REMARK                         _______ _______ _______ _____ _____    ______ ____
ROOT
ATOM      1  O   UNL     1      34.495 -20.026 -22.385  0.00  0.00    -0.270 OA
ATOM      2  N   UNL     1      34.966 -18.118 -21.094  0.00  0.00    -0.280 N 
ATOM      3  C   UNL     1      34.852 -19.493 -21.341  0.00  0.00    +0.249 C 
ATOM      4  H   UNL     1      35.270 -17.865 -20.193  0.00  0.00    +0.155 HD
ENDROOT
BRANCH   2  13
ATOM      5  N   UNL     1      33.561 -12.397 -22.632  0.00  0.00    -0.274 NA
ATOM      6  C   UNL     1      34.003 -14.788 -22.353  0.00  0.00    +0.010 C 
ATOM      7  C   UNL     1      33.510 -13.462 -21.902  0.00  0.00    +0.053 C 
ATOM      8  C   UNL     1      34.189 -14.956 -23.732  0.00  0.00    -0.019 C 
ATOM      9  C   UNL     1      33.868 -13.813 -24.647  0.00  0.00    +0.053 C 
ATOM     10  C   UNL     1      34.201 -12.501 -23.948  0.00  0.00    +0.130 C 
ATOM     11  C   UNL     1      34.265 -15.838 -21.470  0.00  0.00    +0.016 C 
ATOM     12  C   UNL     1      34.613 -16.194 -24.225  0.00  0.00    -0.003 C 
ATOM     13  C   UNL     1      34.703 -17.065 -21.970  0.00  0.00    +0.051 C 
ATOM     14  C   UNL     1      34.873 -17.243 -23.343  0.00  0.00    +0.014 C 
BRANCH   7  15
ATOM     15  C   UNL     1      32.909 -13.341 -20.522  0.00  0.00    +0.040 C 
ATOM     16  C   UNL     1      31.977 -12.143 -20.503  0.00  0.00    +0.006 C 
ATOM     17  C   UNL     1      32.185 -14.631 -20.179  0.00  0.00    +0.006 C 
ENDBRANCH   7  15
ENDBRANCH   2  13
BRANCH   3  18
ATOM     18  C   UNL     1      35.180 -20.376 -20.190  0.00  0.00    +0.054 C 
ATOM     19  C   UNL     1      34.467 -21.961 -18.529  0.00  0.00    +0.000 C 
ATOM     20  C   UNL     1      35.794 -22.025 -18.044  0.00  0.00    +0.000 C 
ATOM     21  C   UNL     1      34.173 -21.123 -19.617  0.00  0.00    +0.005 C 
ATOM     22  C   UNL     1      36.479 -20.419 -19.738  0.00  0.00    +0.005 C 
ATOM     23  C   UNL     1      36.790 -21.247 -18.659  0.00  0.00    +0.000 C 
ATOM     24  C   UNL     1      36.088 -22.863 -16.956  0.00  0.00    +0.003 C 
ATOM     25  C   UNL     1      33.473 -22.739 -17.913  0.00  0.00    +0.000 C 
ATOM     26  C   UNL     1      35.088 -23.629 -16.356  0.00  0.00    +0.031 C 
ATOM     27  C   UNL     1      33.782 -23.567 -16.834  0.00  0.00    +0.003 C 
BRANCH  26  30
ATOM     28  N   UNL     1      34.480 -24.746 -14.224  0.00  0.00    -0.343 N 
ATOM     29  N   UNL     1      36.604 -25.052 -15.151  0.00  0.00    -0.285 NA
ATOM     30  C   UNL     1      35.408 -24.493 -15.232  0.00  0.00    +0.117 C 
ATOM     31  H   UNL     1      34.719 -25.335 -13.472  0.00  0.00    +0.144 HD
ATOM     32  H   UNL     1      33.586 -24.337 -14.264  0.00  0.00    +0.144 HD
ATOM     33  H   UNL     1      36.824 -25.637 -14.390  0.00  0.00    +0.188 HD
ENDBRANCH  26  30
ENDBRANCH   3  18
TORSDOF 4
ENDMDL
MODEL 8
REMARK VINA RESULT:     -10.8      2.771     10.466
REMARK  Name = 447735
REMARK  4 active torsions:
REMARK  status: ('A' for Active; 'I' for Inactive)
REMARK    1  A    between atoms: N_2  and  C_13
REMARK    2  A    between atoms: C_3  and  C_18
REMARK    3  A    between atoms: C_7  and  C_15
REMARK    4  A    between atoms: C_26  and  C_30
REMARK                            x       y       z     vdW  Elec       q    Type
REMARK                         _______ _______ _______ _____ _____    ______ ____
ROOT
ATOM      1  O   UNL     1      36.527 -21.674 -20.655  0.00  0.00    -0.270 OA
ATOM      2  N   UNL     1      34.926 -20.050 -20.082  0.00  0.00    -0.280 N 
ATOM      3  C   UNL     1      35.731 -21.177 -19.866  0.00  0.00    +0.249 C 
ATOM      4  H   UNL     1      34.342 -19.788 -19.335  0.00  0.00    +0.155 HD
ENDROOT
BRANCH   2  13
ATOM      5  N   UNL     1      34.727 -14.829 -23.206  0.00  0.00    -0.274 NA
ATOM      6  C   UNL     1      34.649 -17.080 -22.251  0.00  0.00    +0.010 C 
ATOM      7  C   UNL     1      34.483 -15.605 -22.203  0.00  0.00    +0.053 C 
ATOM      8  C   UNL     1      34.719 -17.666 -23.522  0.00  0.00    -0.019 C 
ATOM      9  C   UNL     1      34.608 -16.785 -24.729  0.00  0.00    +0.053 C 
ATOM     10  C   UNL     1      35.257 -15.439 -24.431  0.00  0.00    +0.130 C 
ATOM     11  C   UNL     1      34.721 -17.871 -21.102  0.00  0.00    +0.016 C 
ATOM     12  C   UNL     1      34.835 -19.055 -23.636  0.00  0.00    -0.003 C 
ATOM     13  C   UNL     1      34.853 -19.255 -21.226  0.00  0.00    +0.051 C 
ATOM     14  C   UNL     1      34.906 -19.845 -22.488  0.00  0.00    +0.014 C 
BRANCH   7  15
ATOM     15  C   UNL     1      33.997 -14.970 -20.923  0.00  0.00    +0.040 C 
ATOM     16  C   UNL     1      35.129 -14.150 -20.329  0.00  0.00    +0.006 C 
ATOM     17  C   UNL     1      32.774 -14.121 -21.219  0.00  0.00    +0.006 C 
ENDBRANCH   7  15
ENDBRANCH   2  13
BRANCH   3  18
ATOM     18  C   UNL     1      35.564 -21.835 -18.543  0.00  0.00    +0.054 C 
ATOM     19  C   UNL     1      34.159 -22.985 -16.967  0.00  0.00    +0.000 C 
ATOM     20  C   UNL     1      35.254 -23.065 -16.075  0.00  0.00    +0.000 C 
ATOM     21  C   UNL     1      34.332 -22.360 -18.213  0.00  0.00    +0.005 C 
ATOM     22  C   UNL     1      36.645 -21.899 -17.695  0.00  0.00    +0.005 C 
ATOM     23  C   UNL     1      36.491 -22.517 -16.453  0.00  0.00    +0.000 C 
ATOM     24  C   UNL     1      35.081 -23.689 -14.828  0.00  0.00    +0.003 C 
ATOM     25  C   UNL     1      32.923 -23.532 -16.587  0.00  0.00    +0.000 C 
ATOM     26  C   UNL     1      33.845 -24.228 -14.468  0.00  0.00    +0.031 C 
ATOM     27  C   UNL     1      32.768 -24.150 -15.346  0.00  0.00    +0.003 C 
BRANCH  26  30
ATOM     28  N   UNL     1      34.740 -24.970 -12.275  0.00  0.00    -0.343 N 
ATOM     29  N   UNL     1      32.510 -25.384 -12.838  0.00  0.00    -0.285 NA
ATOM     30  C   UNL     1      33.682 -24.873 -13.175  0.00  0.00    +0.117 C 
ATOM     31  H   UNL     1      34.607 -25.411 -11.404  0.00  0.00    +0.144 HD
ATOM     32  H   UNL     1      35.621 -24.598 -12.508  0.00  0.00    +0.144 HD
ATOM     33  H   UNL     1      32.397 -25.822 -11.963  0.00  0.00    +0.188 HD
ENDBRANCH  26  30
ENDBRANCH   3  18
TORSDOF 4
ENDMDL
MODEL 9
REMARK VINA RESULT:     -10.1      2.576      4.492
REMARK  Name = 447735
REMARK  4 active torsions:
REMARK  status: ('A' for Active; 'I' for Inactive)
REMARK    1  A    between atoms: N_2  and  C_13
REMARK    2  A    between atoms: C_3  and  C_18
REMARK    3  A    between atoms: C_7  and  C_15
REMARK    4  A    between atoms: C_26  and  C_30
REMARK                            x       y       z     vdW  Elec       q    Type
REMARK                         _______ _______ _______ _____ _____    ______ ____
ROOT
ATOM      1  O   UNL     1      37.211 -21.521 -20.203  0.00  0.00    -0.270 OA
ATOM      2  N   UNL     1      35.328 -21.080 -18.865  0.00  0.00    -0.280 N 
ATOM      3  C   UNL     1      36.145 -20.953 -19.997  0.00  0.00    +0.249 C 
ATOM      4  H   UNL     1      34.501 -20.546 -18.868  0.00  0.00    +0.155 HD
ENDROOT
BRANCH   2  13
ATOM      5  N   UNL     1      33.767 -24.885 -14.377  0.00  0.00    -0.274 NA
ATOM      6  C   UNL     1      34.683 -23.264 -15.964  0.00  0.00    +0.010 C 
ATOM      7  C   UNL     1      33.582 -23.914 -15.209  0.00  0.00    +0.053 C 
ATOM      8  C   UNL     1      35.984 -23.468 -15.485  0.00  0.00    -0.019 C 
ATOM      9  C   UNL     1      36.176 -24.301 -14.254  0.00  0.00    +0.053 C 
ATOM     10  C   UNL     1      35.129 -25.408 -14.227  0.00  0.00    +0.130 C 
ATOM     11  C   UNL     1      34.460 -22.472 -17.093  0.00  0.00    +0.016 C 
ATOM     12  C   UNL     1      37.061 -22.850 -16.129  0.00  0.00    -0.003 C 
ATOM     13  C   UNL     1      35.543 -21.873 -17.738  0.00  0.00    +0.051 C 
ATOM     14  C   UNL     1      36.839 -22.058 -17.255  0.00  0.00    +0.014 C 
BRANCH   7  15
ATOM     15  C   UNL     1      32.171 -23.418 -15.410  0.00  0.00    +0.040 C 
ATOM     16  C   UNL     1      31.277 -24.607 -15.714  0.00  0.00    +0.006 C 
ATOM     17  C   UNL     1      31.722 -22.672 -14.166  0.00  0.00    +0.006 C 
ENDBRANCH   7  15
ENDBRANCH   2  13
BRANCH   3  18
ATOM     18  C   UNL     1      35.657 -20.001 -21.031  0.00  0.00    +0.054 C 
ATOM     19  C   UNL     1      35.175 -17.743 -21.702  0.00  0.00    +0.000 C 
ATOM     20  C   UNL     1      34.748 -18.226 -22.961  0.00  0.00    +0.000 C 
ATOM     21  C   UNL     1      35.634 -18.654 -20.736  0.00  0.00    +0.005 C 
ATOM     22  C   UNL     1      35.247 -20.498 -22.246  0.00  0.00    +0.005 C 
ATOM     23  C   UNL     1      34.789 -19.607 -23.219  0.00  0.00    +0.000 C 
ATOM     24  C   UNL     1      34.289 -17.315 -23.927  0.00  0.00    +0.003 C 
ATOM     25  C   UNL     1      35.133 -16.363 -21.446  0.00  0.00    +0.000 C 
ATOM     26  C   UNL     1      34.255 -15.947 -23.655  0.00  0.00    +0.031 C 
ATOM     27  C   UNL     1      34.676 -15.472 -22.417  0.00  0.00    +0.003 C 
BRANCH  26  30
ATOM     28  N   UNL     1      33.651 -13.656 -24.396  0.00  0.00    -0.343 N 
ATOM     29  N   UNL     1      33.453 -15.460 -25.868  0.00  0.00    -0.285 NA
ATOM     30  C   UNL     1      33.778 -15.017 -24.666  0.00  0.00    +0.117 C 
ATOM     31  H   UNL     1      33.326 -13.044 -25.096  0.00  0.00    +0.144 HD
ATOM     32  H   UNL     1      33.885 -13.306 -23.507  0.00  0.00    +0.144 HD
ATOM     33  H   UNL     1      33.129 -14.832 -26.554  0.00  0.00    +0.188 HD
ENDBRANCH  26  30
ENDBRANCH   3  18
TORSDOF 4
ENDMDL
