MODEL 1
REMARK VINA RESULT:     -11.5      0.000      0.000
REMARK  Name = 44144378
REMARK  5 active torsions:
REMARK  status: ('A' for Active; 'I' for Inactive)
REMARK    1  A    between atoms: C_1  and  C_3
REMARK    2  A    between atoms: C_1  and  C_18
REMARK    3  A    between atoms: C_4  and  C_9
REMARK    4  A    between atoms: C_8  and  O_16
REMARK    5  A    between atoms: C_19  and  C_24
REMARK                            x       y       z     vdW  Elec       q    Type
REMARK                         _______ _______ _______ _____ _____    ______ ____
ROOT
ATOM      1  C   UNL     1      32.673 -24.330 -13.484  0.00  0.00    +0.086 C 
ATOM      2  C   UNL     1      31.841 -25.511 -12.944  0.00  0.00    +0.019 C 
ENDROOT
BRANCH   1   3
ATOM      3  C   UNL     1      32.150 -23.806 -14.778  0.00  0.00    -0.007 C 
ATOM      4  C   UNL     1      32.542 -22.804 -16.942  0.00  0.00    +0.003 C 
ATOM      5  C   UNL     1      33.031 -23.293 -15.730  0.00  0.00    -0.003 C 
ATOM      6  C   UNL     1      30.780 -23.832 -15.039  0.00  0.00    +0.034 C 
ATOM      7  C   UNL     1      31.172 -22.829 -17.202  0.00  0.00    +0.037 C 
ATOM      8  C   UNL     1      30.291 -23.343 -16.250  0.00  0.00    +0.138 C 
BRANCH   4   9
ATOM      9  C   UNL     1      33.457 -22.271 -17.929  0.00  0.00    +0.000 C 
ATOM     10  C   UNL     1      34.823 -22.534 -17.828  0.00  0.00    -0.000 C 
ATOM     11  C   UNL     1      32.971 -21.495 -18.982  0.00  0.00    -0.000 C 
ATOM     12  C   UNL     1      35.219 -21.244 -19.833  0.00  0.00    -0.022 C 
ATOM     13  C   UNL     1      35.704 -22.021 -18.780  0.00  0.00    -0.004 C 
ATOM     14  C   UNL     1      33.852 -20.982 -19.933  0.00  0.00    -0.004 C 
ATOM     15  C   UNL     1      36.161 -20.695 -20.850  0.00  0.00    +0.031 C 
ENDBRANCH   4   9
BRANCH   8  16
ATOM     16  O   UNL     1      28.954 -23.367 -16.504  0.00  0.00    -0.471 OA
ATOM     17  C   UNL     1      28.092 -22.841 -15.494  0.00  0.00    +0.252 C 
ENDBRANCH   8  16
ENDBRANCH   1   3
BRANCH   1  18
ATOM     18  C   UNL     1      34.102 -24.724 -13.569  0.00  0.00    -0.087 C 
ATOM     19  C   UNL     1      35.260 -25.041 -13.614  0.00  0.00    -0.076 C 
BRANCH  19  24
ATOM     20  N   UNL     1      38.925 -25.019 -13.029  0.00  0.00    -0.336 NA
ATOM     21  N   UNL     1      38.373 -26.907 -14.421  0.00  0.00    -0.317 NA
ATOM     22  N   UNL     1      36.132 -27.319 -15.055  0.00  0.00    -0.334 N 
ATOM     23  N   UNL     1      40.592 -26.487 -13.785  0.00  0.00    -0.283 N 
ATOM     24  C   UNL     1      36.637 -25.421 -13.663  0.00  0.00    +0.179 C 
ATOM     25  C   UNL     1      37.614 -24.698 -13.010  0.00  0.00    +0.120 C 
ATOM     26  C   UNL     1      37.080 -26.527 -14.360  0.00  0.00    +0.186 C 
ATOM     27  C   UNL     1      37.268 -23.477 -12.218  0.00  0.00    +0.064 C 
ATOM     28  C   UNL     1      39.229 -26.119 -13.743  0.00  0.00    +0.196 C 
ATOM     29  H   UNL     1      36.428 -28.112 -15.559  0.00  0.00    +0.144 HD
ATOM     30  H   UNL     1      35.178 -27.077 -15.036  0.00  0.00    +0.144 HD
ATOM     31  H   UNL     1      41.262 -25.946 -13.307  0.00  0.00    +0.156 HD
ATOM     32  H   UNL     1      40.871 -27.283 -14.293  0.00  0.00    +0.156 HD
ENDBRANCH  19  24
ENDBRANCH   1  18
TORSDOF 5
ENDMDL
MODEL 2
REMARK VINA RESULT:     -10.7      4.047      6.913
REMARK  Name = 44144378
REMARK  5 active torsions:
REMARK  status: ('A' for Active; 'I' for Inactive)
REMARK    1  A    between atoms: C_1  and  C_3
REMARK    2  A    between atoms: C_1  and  C_18
REMARK    3  A    between atoms: C_4  and  C_9
REMARK    4  A    between atoms: C_8  and  O_16
REMARK    5  A    between atoms: C_19  and  C_24
REMARK                            x       y       z     vdW  Elec       q    Type
REMARK                         _______ _______ _______ _____ _____    ______ ____
ROOT
ATOM      1  C   UNL     1      34.115 -24.986 -13.878  0.00  0.00    +0.086 C 
ATOM      2  C   UNL     1      34.187 -24.644 -12.377  0.00  0.00    +0.019 C 
ENDROOT
BRANCH   1   3
ATOM      3  C   UNL     1      35.213 -24.353 -14.664  0.00  0.00    -0.007 C 
ATOM      4  C   UNL     1      35.945 -23.037 -16.553  0.00  0.00    +0.003 C 
ATOM      5  C   UNL     1      34.917 -23.630 -15.819  0.00  0.00    -0.003 C 
ATOM      6  C   UNL     1      36.536 -24.482 -14.241  0.00  0.00    +0.034 C 
ATOM      7  C   UNL     1      37.268 -23.167 -16.131  0.00  0.00    +0.037 C 
ATOM      8  C   UNL     1      37.564 -23.890 -14.975  0.00  0.00    +0.138 C 
BRANCH   4   9
ATOM      9  C   UNL     1      35.639 -22.286 -17.752  0.00  0.00    +0.000 C 
ATOM     10  C   UNL     1      34.347 -22.307 -18.277  0.00  0.00    -0.000 C 
ATOM     11  C   UNL     1      36.636 -21.541 -18.382  0.00  0.00    -0.000 C 
ATOM     12  C   UNL     1      35.048 -20.839 -20.063  0.00  0.00    -0.022 C 
ATOM     13  C   UNL     1      34.051 -21.584 -19.432  0.00  0.00    -0.004 C 
ATOM     14  C   UNL     1      36.340 -20.817 -19.537  0.00  0.00    -0.004 C 
ATOM     15  C   UNL     1      34.732 -20.065 -21.298  0.00  0.00    +0.031 C 
ENDBRANCH   4   9
BRANCH   8  16
ATOM     16  O   UNL     1      38.855 -24.017 -14.564  0.00  0.00    -0.471 OA
ATOM     17  C   UNL     1      39.362 -25.344 -14.419  0.00  0.00    +0.252 C 
ENDBRANCH   8  16
ENDBRANCH   1   3
BRANCH   1  18
ATOM     18  C   UNL     1      32.770 -24.638 -14.405  0.00  0.00    -0.087 C 
ATOM     19  C   UNL     1      31.692 -24.339 -14.844  0.00  0.00    -0.076 C 
BRANCH  19  24
ATOM     20  N   UNL     1      28.020 -24.250 -15.372  0.00  0.00    -0.336 NA
ATOM     21  N   UNL     1      29.060 -22.692 -16.889  0.00  0.00    -0.317 NA
ATOM     22  N   UNL     1      31.409 -22.416 -16.904  0.00  0.00    -0.334 N 
ATOM     23  N   UNL     1      26.731 -22.977 -16.864  0.00  0.00    -0.283 N 
ATOM     24  C   UNL     1      30.413 -23.982 -15.372  0.00  0.00    +0.179 C 
ATOM     25  C   UNL     1      29.248 -24.555 -14.904  0.00  0.00    +0.120 C 
ATOM     26  C   UNL     1      30.256 -23.047 -16.375  0.00  0.00    +0.186 C 
ATOM     27  C   UNL     1      29.279 -25.583 -13.818  0.00  0.00    +0.064 C 
ATOM     28  C   UNL     1      28.000 -23.324 -16.350  0.00  0.00    +0.196 C 
ATOM     29  H   UNL     1      31.318 -21.746 -17.621  0.00  0.00    +0.144 HD
ATOM     30  H   UNL     1      32.300 -22.645 -16.557  0.00  0.00    +0.144 HD
ATOM     31  H   UNL     1      25.921 -23.408 -16.506  0.00  0.00    +0.156 HD
ATOM     32  H   UNL     1      26.657 -22.306 -17.580  0.00  0.00    +0.156 HD
ENDBRANCH  19  24
ENDBRANCH   1  18
TORSDOF 5
ENDMDL
MODEL 3
REMARK VINA RESULT:     -10.4      2.624      4.769
REMARK  Name = 44144378
REMARK  5 active torsions:
REMARK  status: ('A' for Active; 'I' for Inactive)
REMARK    1  A    between atoms: C_1  and  C_3
REMARK    2  A    between atoms: C_1  and  C_18
REMARK    3  A    between atoms: C_4  and  C_9
REMARK    4  A    between atoms: C_8  and  O_16
REMARK    5  A    between atoms: C_19  and  C_24
REMARK                            x       y       z     vdW  Elec       q    Type
REMARK                         _______ _______ _______ _____ _____    ______ ____
ROOT
ATOM      1  C   UNL     1      37.409 -21.503 -17.748  0.00  0.00    +0.086 C 
ATOM      2  C   UNL     1      37.889 -20.148 -17.191  0.00  0.00    +0.019 C 
ENDROOT
BRANCH   1   3
ATOM      3  C   UNL     1      36.156 -21.381 -18.548  0.00  0.00    -0.007 C 
ATOM      4  C   UNL     1      34.920 -20.367 -20.360  0.00  0.00    +0.003 C 
ATOM      5  C   UNL     1      36.092 -20.479 -19.610  0.00  0.00    -0.003 C 
ATOM      6  C   UNL     1      35.050 -22.171 -18.236  0.00  0.00    +0.034 C 
ATOM      7  C   UNL     1      33.813 -21.157 -20.047  0.00  0.00    +0.037 C 
ATOM      8  C   UNL     1      33.878 -22.059 -18.985  0.00  0.00    +0.138 C 
BRANCH   4   9
ATOM      9  C   UNL     1      34.853 -19.431 -21.462  0.00  0.00    +0.000 C 
ATOM     10  C   UNL     1      35.331 -18.130 -21.303  0.00  0.00    -0.000 C 
ATOM     11  C   UNL     1      34.310 -19.830 -22.683  0.00  0.00    -0.000 C 
ATOM     12  C   UNL     1      34.723 -17.628 -23.586  0.00  0.00    -0.022 C 
ATOM     13  C   UNL     1      35.266 -17.228 -22.364  0.00  0.00    -0.004 C 
ATOM     14  C   UNL     1      34.245 -18.929 -23.745  0.00  0.00    -0.004 C 
ATOM     15  C   UNL     1      34.654 -16.663 -24.722  0.00  0.00    +0.031 C 
ENDBRANCH   4   9
BRANCH   8  16
ATOM     16  O   UNL     1      32.799 -22.829 -18.679  0.00  0.00    -0.471 OA
ATOM     17  C   UNL     1      32.642 -23.214 -17.313  0.00  0.00    +0.252 C 
ENDBRANCH   8  16
ENDBRANCH   1   3
BRANCH   1  18
ATOM     18  C   UNL     1      37.277 -22.480 -16.638  0.00  0.00    -0.087 C 
ATOM     19  C   UNL     1      37.195 -23.271 -15.737  0.00  0.00    -0.076 C 
BRANCH  19  24
ATOM     20  N   UNL     1      35.821 -25.206 -12.883  0.00  0.00    -0.336 NA
ATOM     21  N   UNL     1      38.079 -25.940 -13.304  0.00  0.00    -0.317 NA
ATOM     22  N   UNL     1      39.351 -24.973 -15.046  0.00  0.00    -0.334 N 
ATOM     23  N   UNL     1      36.805 -26.890 -11.578  0.00  0.00    -0.283 N 
ATOM     24  C   UNL     1      37.101 -24.209 -14.662  0.00  0.00    +0.179 C 
ATOM     25  C   UNL     1      35.954 -24.336 -13.905  0.00  0.00    +0.120 C 
ATOM     26  C   UNL     1      38.142 -25.046 -14.312  0.00  0.00    +0.186 C 
ATOM     27  C   UNL     1      34.753 -23.488 -14.181  0.00  0.00    +0.064 C 
ATOM     28  C   UNL     1      36.907 -25.966 -12.641  0.00  0.00    +0.196 C 
ATOM     29  H   UNL     1      40.106 -25.561 -14.812  0.00  0.00    +0.144 HD
ATOM     30  H   UNL     1      39.439 -24.334 -15.790  0.00  0.00    +0.144 HD
ATOM     31  H   UNL     1      35.970 -26.952 -11.058  0.00  0.00    +0.156 HD
ATOM     32  H   UNL     1      37.567 -27.471 -11.356  0.00  0.00    +0.156 HD
ENDBRANCH  19  24
ENDBRANCH   1  18
TORSDOF 5
ENDMDL
MODEL 4
REMARK VINA RESULT:     -10.3      4.202      7.479
REMARK  Name = 44144378
REMARK  5 active torsions:
REMARK  status: ('A' for Active; 'I' for Inactive)
REMARK    1  A    between atoms: C_1  and  C_3
REMARK    2  A    between atoms: C_1  and  C_18
REMARK    3  A    between atoms: C_4  and  C_9
REMARK    4  A    between atoms: C_8  and  O_16
REMARK    5  A    between atoms: C_19  and  C_24
REMARK                            x       y       z     vdW  Elec       q    Type
REMARK                         _______ _______ _______ _____ _____    ______ ____
ROOT
ATOM      1  C   UNL     1      37.245 -22.645 -15.625  0.00  0.00    +0.086 C 
ATOM      2  C   UNL     1      38.460 -23.544 -15.929  0.00  0.00    +0.019 C 
ENDROOT
BRANCH   1   3
ATOM      3  C   UNL     1      36.208 -23.340 -14.810  0.00  0.00    -0.007 C 
ATOM      4  C   UNL     1      33.885 -23.812 -14.339  0.00  0.00    +0.003 C 
ATOM      5  C   UNL     1      34.856 -23.160 -15.101  0.00  0.00    -0.003 C 
ATOM      6  C   UNL     1      36.590 -24.173 -13.759  0.00  0.00    +0.034 C 
ATOM      7  C   UNL     1      34.268 -24.644 -13.287  0.00  0.00    +0.037 C 
ATOM      8  C   UNL     1      35.620 -24.824 -12.996  0.00  0.00    +0.138 C 
BRANCH   4   9
ATOM      9  C   UNL     1      32.482 -23.625 -14.641  0.00  0.00    +0.000 C 
ATOM     10  C   UNL     1      32.086 -23.290 -15.935  0.00  0.00    -0.000 C 
ATOM     11  C   UNL     1      31.527 -23.781 -13.636  0.00  0.00    -0.000 C 
ATOM     12  C   UNL     1      29.777 -23.265 -15.222  0.00  0.00    -0.022 C 
ATOM     13  C   UNL     1      30.733 -23.110 -16.226  0.00  0.00    -0.004 C 
ATOM     14  C   UNL     1      30.175 -23.601 -13.927  0.00  0.00    -0.004 C 
ATOM     15  C   UNL     1      28.332 -23.073 -15.532  0.00  0.00    +0.031 C 
ENDBRANCH   4   9
BRANCH   8  16
ATOM     16  O   UNL     1      35.994 -25.635 -11.969  0.00  0.00    -0.471 OA
ATOM     17  C   UNL     1      37.315 -26.173 -12.015  0.00  0.00    +0.252 C 
ENDBRANCH   8  16
ENDBRANCH   1   3
BRANCH   1  18
ATOM     18  C   UNL     1      36.697 -22.101 -16.894  0.00  0.00    -0.087 C 
ATOM     19  C   UNL     1      36.246 -21.642 -17.909  0.00  0.00    -0.076 C 
BRANCH  19  24
ATOM     20  N   UNL     1      33.911 -20.936 -20.706  0.00  0.00    -0.336 NA
ATOM     21  N   UNL     1      35.925 -19.651 -21.033  0.00  0.00    -0.317 NA
ATOM     22  N   UNL     1      37.704 -19.790 -19.480  0.00  0.00    -0.334 N 
ATOM     23  N   UNL     1      34.153 -19.524 -22.565  0.00  0.00    -0.283 N 
ATOM     24  C   UNL     1      35.711 -21.090 -19.114  0.00  0.00    +0.179 C 
ATOM     25  C   UNL     1      34.456 -21.430 -19.575  0.00  0.00    +0.120 C 
ATOM     26  C   UNL     1      36.408 -20.187 -19.892  0.00  0.00    +0.186 C 
ATOM     27  C   UNL     1      33.598 -22.399 -18.825  0.00  0.00    +0.064 C 
ATOM     28  C   UNL     1      34.690 -20.064 -21.376  0.00  0.00    +0.196 C 
ATOM     29  H   UNL     1      38.216 -19.146 -20.022  0.00  0.00    +0.144 HD
ATOM     30  H   UNL     1      38.093 -20.156 -18.654  0.00  0.00    +0.144 HD
ATOM     31  H   UNL     1      33.253 -19.791 -22.864  0.00  0.00    +0.156 HD
ATOM     32  H   UNL     1      34.678 -18.882 -23.095  0.00  0.00    +0.156 HD
ENDBRANCH  19  24
ENDBRANCH   1  18
TORSDOF 5
ENDMDL
MODEL 5
REMARK VINA RESULT:     -10.3      2.733      4.686
REMARK  Name = 44144378
REMARK  5 active torsions:
REMARK  status: ('A' for Active; 'I' for Inactive)
REMARK    1  A    between atoms: C_1  and  C_3
REMARK    2  A    between atoms: C_1  and  C_18
REMARK    3  A    between atoms: C_4  and  C_9
REMARK    4  A    between atoms: C_8  and  O_16
REMARK    5  A    between atoms: C_19  and  C_24
REMARK                            x       y       z     vdW  Elec       q    Type
REMARK                         _______ _______ _______ _____ _____    ______ ____
ROOT
ATOM      1  C   UNL     1      37.050 -21.985 -17.454  0.00  0.00    +0.086 C 
ATOM      2  C   UNL     1      37.853 -20.698 -17.182  0.00  0.00    +0.019 C 
ENDROOT
BRANCH   1   3
ATOM      3  C   UNL     1      35.826 -21.735 -18.267  0.00  0.00    -0.007 C 
ATOM      4  C   UNL     1      34.721 -20.600 -20.092  0.00  0.00    +0.003 C 
ATOM      5  C   UNL     1      35.867 -20.833 -19.331  0.00  0.00    -0.003 C 
ATOM      6  C   UNL     1      34.640 -22.403 -17.965  0.00  0.00    +0.034 C 
ATOM      7  C   UNL     1      33.535 -21.269 -19.790  0.00  0.00    +0.037 C 
ATOM      8  C   UNL     1      33.493 -22.170 -18.726  0.00  0.00    +0.138 C 
BRANCH   4   9
ATOM      9  C   UNL     1      34.764 -19.664 -21.196  0.00  0.00    +0.000 C 
ATOM     10  C   UNL     1      34.251 -20.030 -22.441  0.00  0.00    -0.000 C 
ATOM     11  C   UNL     1      35.317 -18.397 -21.014  0.00  0.00    -0.000 C 
ATOM     12  C   UNL     1      34.846 -17.861 -23.323  0.00  0.00    -0.022 C 
ATOM     13  C   UNL     1      34.292 -19.129 -23.504  0.00  0.00    -0.004 C 
ATOM     14  C   UNL     1      35.358 -17.496 -22.078  0.00  0.00    -0.004 C 
ATOM     15  C   UNL     1      34.890 -16.898 -24.460  0.00  0.00    +0.031 C 
ENDBRANCH   4   9
BRANCH   8  16
ATOM     16  O   UNL     1      32.336 -22.822 -18.431  0.00  0.00    -0.471 OA
ATOM     17  C   UNL     1      32.005 -22.964 -17.049  0.00  0.00    +0.252 C 
ENDBRANCH   8  16
ENDBRANCH   1   3
BRANCH   1  18
ATOM     18  C   UNL     1      36.746 -22.665 -16.169  0.00  0.00    -0.087 C 
ATOM     19  C   UNL     1      36.503 -23.194 -15.117  0.00  0.00    -0.076 C 
BRANCH  19  24
ATOM     20  N   UNL     1      36.957 -25.071 -11.948  0.00  0.00    -0.336 NA
ATOM     21  N   UNL     1      34.649 -24.397 -12.127  0.00  0.00    -0.317 NA
ATOM     22  N   UNL     1      33.899 -23.167 -14.002  0.00  0.00    -0.334 N 
ATOM     23  N   UNL     1      35.407 -25.617 -10.273  0.00  0.00    -0.283 N 
ATOM     24  C   UNL     1      36.212 -23.819 -13.865  0.00  0.00    +0.179 C 
ATOM     25  C   UNL     1      37.185 -24.468 -13.133  0.00  0.00    +0.120 C 
ATOM     26  C   UNL     1      34.949 -23.815 -13.307  0.00  0.00    +0.186 C 
ATOM     27  C   UNL     1      38.596 -24.544 -13.626  0.00  0.00    +0.064 C 
ATOM     28  C   UNL     1      35.685 -24.998 -11.511  0.00  0.00    +0.196 C 
ATOM     29  H   UNL     1      32.991 -23.153 -13.621  0.00  0.00    +0.144 HD
ATOM     30  H   UNL     1      34.075 -22.729 -14.866  0.00  0.00    +0.144 HD
ATOM     31  H   UNL     1      36.127 -26.072  -9.778  0.00  0.00    +0.156 HD
ATOM     32  H   UNL     1      34.495 -25.595  -9.905  0.00  0.00    +0.156 HD
ENDBRANCH  19  24
ENDBRANCH   1  18
TORSDOF 5
ENDMDL
MODEL 6
REMARK VINA RESULT:     -10.1      4.033      6.979
REMARK  Name = 44144378
REMARK  5 active torsions:
REMARK  status: ('A' for Active; 'I' for Inactive)
REMARK    1  A    between atoms: C_1  and  C_3
REMARK    2  A    between atoms: C_1  and  C_18
REMARK    3  A    between atoms: C_4  and  C_9
REMARK    4  A    between atoms: C_8  and  O_16
REMARK    5  A    between atoms: C_19  and  C_24
REMARK                            x       y       z     vdW  Elec       q    Type
REMARK                         _______ _______ _______ _____ _____    ______ ____
ROOT
ATOM      1  C   UNL     1      32.306 -23.530 -17.035  0.00  0.00    +0.086 C 
ATOM      2  C   UNL     1      30.899 -22.923 -16.861  0.00  0.00    +0.019 C 
ENDROOT
BRANCH   1   3
ATOM      3  C   UNL     1      32.983 -23.789 -15.732  0.00  0.00    -0.007 C 
ATOM      4  C   UNL     1      34.957 -24.412 -14.486  0.00  0.00    +0.003 C 
ATOM      5  C   UNL     1      34.324 -24.171 -15.706  0.00  0.00    -0.003 C 
ATOM      6  C   UNL     1      32.275 -23.646 -14.539  0.00  0.00    +0.034 C 
ATOM      7  C   UNL     1      34.249 -24.270 -13.293  0.00  0.00    +0.037 C 
ATOM      8  C   UNL     1      32.908 -23.888 -13.319  0.00  0.00    +0.138 C 
BRANCH   4   9
ATOM      9  C   UNL     1      36.349 -24.809 -14.459  0.00  0.00    +0.000 C 
ATOM     10  C   UNL     1      37.330 -23.944 -14.944  0.00  0.00    -0.000 C 
ATOM     11  C   UNL     1      36.708 -26.056 -13.948  0.00  0.00    -0.000 C 
ATOM     12  C   UNL     1      39.031 -25.574 -14.407  0.00  0.00    -0.022 C 
ATOM     13  C   UNL     1      38.671 -24.327 -14.918  0.00  0.00    -0.004 C 
ATOM     14  C   UNL     1      38.049 -26.438 -13.922  0.00  0.00    -0.004 C 
ATOM     15  C   UNL     1      40.465 -25.983 -14.379  0.00  0.00    +0.031 C 
ENDBRANCH   4   9
BRANCH   8  16
ATOM     16  O   UNL     1      32.217 -23.749 -12.154  0.00  0.00    -0.471 OA
ATOM     17  C   UNL     1      30.804 -23.946 -12.211  0.00  0.00    +0.252 C 
ENDBRANCH   8  16
ENDBRANCH   1   3
BRANCH   1  18
ATOM     18  C   UNL     1      33.115 -22.664 -17.930  0.00  0.00    -0.087 C 
ATOM     19  C   UNL     1      33.750 -21.955 -18.664  0.00  0.00    -0.076 C 
BRANCH  19  24
ATOM     20  N   UNL     1      36.620 -20.196 -20.226  0.00  0.00    -0.336 NA
ATOM     21  N   UNL     1      34.599 -19.557 -21.375  0.00  0.00    -0.317 NA
ATOM     22  N   UNL     1      32.509 -20.441 -20.711  0.00  0.00    -0.334 N 
ATOM     23  N   UNL     1      36.680 -18.687 -22.023  0.00  0.00    -0.283 N 
ATOM     24  C   UNL     1      34.502 -21.108 -19.536  0.00  0.00    +0.179 C 
ATOM     25  C   UNL     1      35.871 -20.983 -19.427  0.00  0.00    +0.120 C 
ATOM     26  C   UNL     1      33.913 -20.363 -20.538  0.00  0.00    +0.186 C 
ATOM     27  C   UNL     1      36.631 -21.736 -18.381  0.00  0.00    +0.064 C 
ATOM     28  C   UNL     1      35.929 -19.521 -21.165  0.00  0.00    +0.196 C 
ATOM     29  H   UNL     1      32.070 -19.918 -21.420  0.00  0.00    +0.144 HD
ATOM     30  H   UNL     1      31.971 -21.018 -20.122  0.00  0.00    +0.144 HD
ATOM     31  H   UNL     1      37.657 -18.622 -21.915  0.00  0.00    +0.156 HD
ATOM     32  H   UNL     1      36.226 -18.170 -22.727  0.00  0.00    +0.156 HD
ENDBRANCH  19  24
ENDBRANCH   1  18
TORSDOF 5
ENDMDL
MODEL 7
REMARK VINA RESULT:      -9.9      3.719      6.858
REMARK  Name = 44144378
REMARK  5 active torsions:
REMARK  status: ('A' for Active; 'I' for Inactive)
REMARK    1  A    between atoms: C_1  and  C_3
REMARK    2  A    between atoms: C_1  and  C_18
REMARK    3  A    between atoms: C_4  and  C_9
REMARK    4  A    between atoms: C_8  and  O_16
REMARK    5  A    between atoms: C_19  and  C_24
REMARK                            x       y       z     vdW  Elec       q    Type
REMARK                         _______ _______ _______ _____ _____    ______ ____
ROOT
ATOM      1  C   UNL     1      32.261 -23.498 -17.180  0.00  0.00    +0.086 C 
ATOM      2  C   UNL     1      30.933 -22.751 -16.951  0.00  0.00    +0.019 C 
ENDROOT
BRANCH   1   3
ATOM      3  C   UNL     1      32.878 -23.971 -15.907  0.00  0.00    -0.007 C 
ATOM      4  C   UNL     1      34.833 -24.620 -14.644  0.00  0.00    +0.003 C 
ATOM      5  C   UNL     1      34.256 -24.180 -15.835  0.00  0.00    -0.003 C 
ATOM      6  C   UNL     1      32.079 -24.201 -14.788  0.00  0.00    +0.034 C 
ATOM      7  C   UNL     1      34.033 -24.852 -13.525  0.00  0.00    +0.037 C 
ATOM      8  C   UNL     1      32.656 -24.643 -13.597  0.00  0.00    +0.138 C 
BRANCH   4   9
ATOM      9  C   UNL     1      36.262 -24.837 -14.569  0.00  0.00    +0.000 C 
ATOM     10  C   UNL     1      37.139 -23.914 -15.139  0.00  0.00    -0.000 C 
ATOM     11  C   UNL     1      36.763 -25.969 -13.925  0.00  0.00    -0.000 C 
ATOM     12  C   UNL     1      39.017 -25.255 -14.424  0.00  0.00    -0.022 C 
ATOM     13  C   UNL     1      38.516 -24.123 -15.067  0.00  0.00    -0.004 C 
ATOM     14  C   UNL     1      38.140 -26.178 -13.853  0.00  0.00    -0.004 C 
ATOM     15  C   UNL     1      40.489 -25.478 -14.347  0.00  0.00    +0.031 C 
ENDBRANCH   4   9
BRANCH   8  16
ATOM     16  O   UNL     1      31.875 -24.869 -12.505  0.00  0.00    -0.471 OA
ATOM     17  C   UNL     1      30.478 -25.053 -12.734  0.00  0.00    +0.252 C 
ENDBRANCH   8  16
ENDBRANCH   1   3
BRANCH   1  18
ATOM     18  C   UNL     1      33.183 -22.647 -17.973  0.00  0.00    -0.087 C 
ATOM     19  C   UNL     1      33.915 -21.958 -18.633  0.00  0.00    -0.076 C 
BRANCH  19  24
ATOM     20  N   UNL     1      35.078 -19.558 -21.213  0.00  0.00    -0.336 NA
ATOM     21  N   UNL     1      36.982 -20.317 -19.945  0.00  0.00    -0.317 NA
ATOM     22  N   UNL     1      36.710 -21.869 -18.182  0.00  0.00    -0.334 N 
ATOM     23  N   UNL     1      37.238 -18.778 -21.697  0.00  0.00    -0.283 N 
ATOM     24  C   UNL     1      34.780 -21.138 -19.422  0.00  0.00    +0.179 C 
ATOM     25  C   UNL     1      34.299 -20.347 -20.444  0.00  0.00    +0.120 C 
ATOM     26  C   UNL     1      36.144 -21.083 -19.215  0.00  0.00    +0.186 C 
ATOM     27  C   UNL     1      32.840 -20.315 -20.771  0.00  0.00    +0.064 C 
ATOM     28  C   UNL     1      36.391 -19.592 -20.913  0.00  0.00    +0.196 C 
ATOM     29  H   UNL     1      37.681 -21.844 -18.019  0.00  0.00    +0.144 HD
ATOM     30  H   UNL     1      36.133 -22.442 -17.626  0.00  0.00    +0.144 HD
ATOM     31  H   UNL     1      36.859 -18.226 -22.419  0.00  0.00    +0.156 HD
ATOM     32  H   UNL     1      38.206 -18.763 -21.521  0.00  0.00    +0.156 HD
ENDBRANCH  19  24
ENDBRANCH   1  18
TORSDOF 5
ENDMDL
MODEL 8
REMARK VINA RESULT:      -9.9     11.649     14.652
REMARK  Name = 44144378
REMARK  5 active torsions:
REMARK  status: ('A' for Active; 'I' for Inactive)
REMARK    1  A    between atoms: C_1  and  C_3
REMARK    2  A    between atoms: C_1  and  C_18
REMARK    3  A    between atoms: C_4  and  C_9
REMARK    4  A    between atoms: C_8  and  O_16
REMARK    5  A    between atoms: C_19  and  C_24
REMARK                            x       y       z     vdW  Elec       q    Type
REMARK                         _______ _______ _______ _____ _____    ______ ____
ROOT
ATOM      1  C   UNL     1      33.493 -11.935 -23.892  0.00  0.00    +0.086 C 
ATOM      2  C   UNL     1      34.710 -11.267 -24.562  0.00  0.00    +0.019 C 
ENDROOT
BRANCH   1   3
ATOM      3  C   UNL     1      32.846 -11.057 -22.875  0.00  0.00    -0.007 C 
ATOM      4  C   UNL     1      32.063  -8.878 -22.186  0.00  0.00    +0.003 C 
ATOM      5  C   UNL     1      32.669  -9.699 -23.137  0.00  0.00    -0.003 C 
ATOM      6  C   UNL     1      32.417 -11.595 -21.662  0.00  0.00    +0.034 C 
ATOM      7  C   UNL     1      31.633  -9.416 -20.972  0.00  0.00    +0.037 C 
ATOM      8  C   UNL     1      31.811 -10.774 -20.710  0.00  0.00    +0.138 C 
BRANCH   4   9
ATOM      9  C   UNL     1      31.878  -7.468 -22.458  0.00  0.00    +0.000 C 
ATOM     10  C   UNL     1      31.607  -7.038 -23.757  0.00  0.00    -0.000 C 
ATOM     11  C   UNL     1      31.971  -6.540 -21.420  0.00  0.00    -0.000 C 
ATOM     12  C   UNL     1      31.523  -4.751 -22.982  0.00  0.00    -0.022 C 
ATOM     13  C   UNL     1      31.430  -5.680 -24.019  0.00  0.00    -0.004 C 
ATOM     14  C   UNL     1      31.794  -5.182 -21.683  0.00  0.00    -0.004 C 
ATOM     15  C   UNL     1      31.334  -3.299 -23.262  0.00  0.00    +0.031 C 
ENDBRANCH   4   9
BRANCH   8  16
ATOM     16  O   UNL     1      31.393 -11.299 -19.526  0.00  0.00    -0.471 OA
ATOM     17  C   UNL     1      31.437 -10.443 -18.384  0.00  0.00    +0.252 C 
ENDBRANCH   8  16
ENDBRANCH   1   3
BRANCH   1  18
ATOM     18  C   UNL     1      33.892 -13.251 -23.330  0.00  0.00    -0.087 C 
ATOM     19  C   UNL     1      34.232 -14.317 -22.892  0.00  0.00    -0.076 C 
BRANCH  19  24
ATOM     20  N   UNL     1      35.063 -17.015 -20.483  0.00  0.00    -0.336 NA
ATOM     21  N   UNL     1      35.412 -17.839 -22.722  0.00  0.00    -0.317 NA
ATOM     22  N   UNL     1      35.005 -16.449 -24.591  0.00  0.00    -0.334 N 
ATOM     23  N   UNL     1      35.813 -19.207 -20.858  0.00  0.00    -0.283 N 
ATOM     24  C   UNL     1      34.642 -15.584 -22.373  0.00  0.00    +0.179 C 
ATOM     25  C   UNL     1      34.683 -15.836 -21.017  0.00  0.00    +0.120 C 
ATOM     26  C   UNL     1      35.022 -16.634 -23.186  0.00  0.00    +0.186 C 
ATOM     27  C   UNL     1      34.296 -14.783 -20.028  0.00  0.00    +0.064 C 
ATOM     28  C   UNL     1      35.410 -17.958 -21.380  0.00  0.00    +0.196 C 
ATOM     29  H   UNL     1      35.272 -17.185 -25.187  0.00  0.00    +0.144 HD
ATOM     30  H   UNL     1      34.726 -15.585 -24.971  0.00  0.00    +0.144 HD
ATOM     31  H   UNL     1      35.830 -19.350 -19.884  0.00  0.00    +0.156 HD
ATOM     32  H   UNL     1      36.077 -19.933 -21.468  0.00  0.00    +0.156 HD
ENDBRANCH  19  24
ENDBRANCH   1  18
TORSDOF 5
ENDMDL
MODEL 9
REMARK VINA RESULT:      -9.8      5.576      8.920
REMARK  Name = 44144378
REMARK  5 active torsions:
REMARK  status: ('A' for Active; 'I' for Inactive)
REMARK    1  A    between atoms: C_1  and  C_3
REMARK    2  A    between atoms: C_1  and  C_18
REMARK    3  A    between atoms: C_4  and  C_9
REMARK    4  A    between atoms: C_8  and  O_16
REMARK    5  A    between atoms: C_19  and  C_24
REMARK                            x       y       z     vdW  Elec       q    Type
REMARK                         _______ _______ _______ _____ _____    ______ ____
ROOT
ATOM      1  C   UNL     1      36.456 -19.549 -21.809  0.00  0.00    +0.086 C 
ATOM      2  C   UNL     1      37.440 -18.544 -21.179  0.00  0.00    +0.019 C 
ENDROOT
BRANCH   1   3
ATOM      3  C   UNL     1      35.470 -18.893 -22.715  0.00  0.00    -0.007 C 
ATOM      4  C   UNL     1      34.377 -16.895 -23.524  0.00  0.00    +0.003 C 
ATOM      5  C   UNL     1      35.299 -17.509 -22.675  0.00  0.00    -0.003 C 
ATOM      6  C   UNL     1      34.720 -19.663 -23.604  0.00  0.00    +0.034 C 
ATOM      7  C   UNL     1      33.626 -17.666 -24.412  0.00  0.00    +0.037 C 
ATOM      8  C   UNL     1      33.797 -19.049 -24.452  0.00  0.00    +0.138 C 
BRANCH   4   9
ATOM      9  C   UNL     1      34.199 -15.459 -23.483  0.00  0.00    +0.000 C 
ATOM     10  C   UNL     1      34.531 -14.748 -22.329  0.00  0.00    -0.000 C 
ATOM     11  C   UNL     1      33.697 -14.787 -24.597  0.00  0.00    -0.000 C 
ATOM     12  C   UNL     1      33.858 -12.692 -23.404  0.00  0.00    -0.022 C 
ATOM     13  C   UNL     1      34.361 -13.365 -22.289  0.00  0.00    -0.004 C 
ATOM     14  C   UNL     1      33.526 -13.403 -24.557  0.00  0.00    -0.004 C 
ATOM     15  C   UNL     1      33.675 -11.212 -23.361  0.00  0.00    +0.031 C 
ENDBRANCH   4   9
BRANCH   8  16
ATOM     16  O   UNL     1      33.065 -19.801 -25.319  0.00  0.00    -0.471 OA
ATOM     17  C   UNL     1      31.720 -19.389 -25.559  0.00  0.00    +0.252 C 
ENDBRANCH   8  16
ENDBRANCH   1   3
BRANCH   1  18
ATOM     18  C   UNL     1      35.799 -20.343 -20.740  0.00  0.00    -0.087 C 
ATOM     19  C   UNL     1      35.255 -20.996 -19.891  0.00  0.00    -0.076 C 
BRANCH  19  24
ATOM     20  N   UNL     1      34.732 -23.064 -16.853  0.00  0.00    -0.336 NA
ATOM     21  N   UNL     1      32.614 -22.771 -17.967  0.00  0.00    -0.317 NA
ATOM     22  N   UNL     1      32.470 -21.511 -19.963  0.00  0.00    -0.334 N 
ATOM     23  N   UNL     1      32.771 -24.018 -15.986  0.00  0.00    -0.283 N 
ATOM     24  C   UNL     1      34.605 -21.777 -18.884  0.00  0.00    +0.179 C 
ATOM     25  C   UNL     1      35.302 -22.321 -17.825  0.00  0.00    +0.120 C 
ATOM     26  C   UNL     1      33.250 -22.038 -18.904  0.00  0.00    +0.186 C 
ATOM     27  C   UNL     1      36.776 -22.113 -17.685  0.00  0.00    +0.064 C 
ATOM     28  C   UNL     1      33.404 -23.247 -16.985  0.00  0.00    +0.196 C 
ATOM     29  H   UNL     1      31.501 -21.686 -19.995  0.00  0.00    +0.144 HD
ATOM     30  H   UNL     1      32.895 -20.970 -20.667  0.00  0.00    +0.144 HD
ATOM     31  H   UNL     1      33.300 -24.392 -15.244  0.00  0.00    +0.156 HD
ATOM     32  H   UNL     1      31.802 -24.184 -16.032  0.00  0.00    +0.156 HD
ENDBRANCH  19  24
ENDBRANCH   1  18
TORSDOF 5
ENDMDL
