MODEL 1
REMARK VINA RESULT:     -11.7      0.000      0.000
REMARK  Name = 6852140
REMARK  4 active torsions:
REMARK  status: ('A' for Active; 'I' for Inactive)
REMARK    1  A    between atoms: C_2  and  N_18
REMARK    2  A    between atoms: C_5  and  C_13
REMARK    3  A    between atoms: C_19  and  C_21
REMARK    4  A    between atoms: C_24  and  O_28
REMARK                            x       y       z     vdW  Elec       q    Type
REMARK                         _______ _______ _______ _____ _____    ______ ____
ROOT
ATOM      1  C   UNL     1      31.821 -23.975 -15.177  0.00  0.00    +0.014 C 
ATOM      2  C   UNL     1      33.102 -23.546 -15.566  0.00  0.00    +0.050 C 
ATOM      3  C   UNL     1      31.686 -24.810 -14.042  0.00  0.00    +0.001 C 
ATOM      4  C   UNL     1      30.673 -23.594 -15.891  0.00  0.00    +0.004 C 
ATOM      5  C   UNL     1      29.410 -24.030 -15.491  0.00  0.00    +0.031 C 
ATOM      6  C   UNL     1      30.405 -25.238 -13.654  0.00  0.00    +0.000 C 
ATOM      7  C   UNL     1      34.232 -23.935 -14.845  0.00  0.00    +0.015 C 
ATOM      8  C   UNL     1      32.834 -25.190 -13.328  0.00  0.00    +0.000 C 
ATOM      9  C   UNL     1      29.276 -24.849 -14.375  0.00  0.00    +0.003 C 
ATOM     10  C   UNL     1      34.097 -24.755 -13.729  0.00  0.00    +0.001 C 
ENDROOT
BRANCH   5  13
ATOM     11  N   UNL     1      27.545 -22.451 -15.936  0.00  0.00    -0.343 N 
ATOM     12  N   UNL     1      27.787 -24.384 -17.227  0.00  0.00    -0.285 NA
ATOM     13  C   UNL     1      28.230 -23.626 -16.240  0.00  0.00    +0.117 C 
ATOM     14  H   UNL     1      26.748 -22.198 -16.455  0.00  0.00    +0.144 HD
ATOM     15  H   UNL     1      27.858 -21.875 -15.202  0.00  0.00    +0.144 HD
ATOM     16  H   UNL     1      26.989 -24.112 -17.736  0.00  0.00    +0.188 HD
ENDBRANCH   5  13
BRANCH   2  18
ATOM     17  O   UNL     1      33.731 -24.314 -18.325  0.00  0.00    -0.270 OA
ATOM     18  N   UNL     1      33.298 -22.721 -16.680  0.00  0.00    -0.280 N 
ATOM     19  C   UNL     1      33.596 -23.144 -17.975  0.00  0.00    +0.249 C 
ATOM     20  H   UNL     1      33.217 -21.750 -16.536  0.00  0.00    +0.155 HD
BRANCH  19  21
ATOM     21  C   UNL     1      33.796 -22.042 -18.935  0.00  0.00    +0.053 C 
ATOM     22  C   UNL     1      35.062 -21.525 -19.161  0.00  0.00    +0.016 C 
ATOM     23  C   UNL     1      32.685 -21.545 -19.600  0.00  0.00    +0.004 C 
ATOM     24  C   UNL     1      35.221 -20.483 -20.075  0.00  0.00    +0.130 C 
ATOM     25  C   UNL     1      36.255 -22.066 -18.441  0.00  0.00    +0.034 C 
ATOM     26  C   UNL     1      32.845 -20.503 -20.513  0.00  0.00    +0.003 C 
ATOM     27  C   UNL     1      34.113 -19.972 -20.751  0.00  0.00    +0.036 C 
BRANCH  24  28
ATOM     28  O   UNL     1      36.452 -19.951 -20.321  0.00  0.00    -0.506 OA
ATOM     29  H   UNL     1      36.534 -19.042 -20.534  0.00  0.00    +0.292 HD
ENDBRANCH  24  28
ENDBRANCH  19  21
ENDBRANCH   2  18
TORSDOF 4
ENDMDL
MODEL 2
REMARK VINA RESULT:     -11.1      1.822      4.261
REMARK  Name = 6852140
REMARK  4 active torsions:
REMARK  status: ('A' for Active; 'I' for Inactive)
REMARK    1  A    between atoms: C_2  and  N_18
REMARK    2  A    between atoms: C_5  and  C_13
REMARK    3  A    between atoms: C_19  and  C_21
REMARK    4  A    between atoms: C_24  and  O_28
REMARK                            x       y       z     vdW  Elec       q    Type
REMARK                         _______ _______ _______ _____ _____    ______ ____
ROOT
ATOM      1  C   UNL     1      33.300 -23.698 -15.095  0.00  0.00    +0.014 C 
ATOM      2  C   UNL     1      32.434 -23.209 -16.088  0.00  0.00    +0.050 C 
ATOM      3  C   UNL     1      32.773 -24.497 -14.052  0.00  0.00    +0.001 C 
ATOM      4  C   UNL     1      34.674 -23.408 -15.112  0.00  0.00    +0.004 C 
ATOM      5  C   UNL     1      35.517 -23.901 -14.117  0.00  0.00    +0.031 C 
ATOM      6  C   UNL     1      33.639 -24.985 -13.058  0.00  0.00    +0.000 C 
ATOM      7  C   UNL     1      31.071 -23.506 -16.054  0.00  0.00    +0.015 C 
ATOM      8  C   UNL     1      31.399 -24.787 -14.034  0.00  0.00    +0.000 C 
ATOM      9  C   UNL     1      35.002 -24.689 -13.093  0.00  0.00    +0.003 C 
ATOM     10  C   UNL     1      30.556 -24.293 -15.029  0.00  0.00    +0.001 C 
ENDROOT
BRANCH   5  13
ATOM     11  N   UNL     1      37.647 -23.565 -15.350  0.00  0.00    -0.343 N 
ATOM     12  N   UNL     1      37.583 -23.341 -13.025  0.00  0.00    -0.285 NA
ATOM     13  C   UNL     1      36.939 -23.594 -14.149  0.00  0.00    +0.117 C 
ATOM     14  H   UNL     1      38.608 -23.355 -15.348  0.00  0.00    +0.144 HD
ATOM     15  H   UNL     1      37.185 -23.753 -16.199  0.00  0.00    +0.144 HD
ATOM     16  H   UNL     1      38.545 -23.132 -13.045  0.00  0.00    +0.188 HD
ENDBRANCH   5  13
BRANCH   2  18
ATOM     17  O   UNL     1      33.724 -24.045 -18.585  0.00  0.00    -0.270 OA
ATOM     18  N   UNL     1      32.897 -22.413 -17.144  0.00  0.00    -0.280 N 
ATOM     19  C   UNL     1      33.505 -22.867 -18.313  0.00  0.00    +0.249 C 
ATOM     20  H   UNL     1      32.782 -21.439 -17.051  0.00  0.00    +0.155 HD
BRANCH  19  21
ATOM     21  C   UNL     1      33.934 -21.790 -19.225  0.00  0.00    +0.053 C 
ATOM     22  C   UNL     1      35.258 -21.383 -19.262  0.00  0.00    +0.016 C 
ATOM     23  C   UNL     1      32.977 -21.204 -20.038  0.00  0.00    +0.004 C 
ATOM     24  C   UNL     1      35.634 -20.362 -20.134  0.00  0.00    +0.130 C 
ATOM     25  C   UNL     1      36.285 -22.020 -18.382  0.00  0.00    +0.034 C 
ATOM     26  C   UNL     1      33.353 -20.183 -20.910  0.00  0.00    +0.003 C 
ATOM     27  C   UNL     1      34.682 -19.761 -20.959  0.00  0.00    +0.036 C 
BRANCH  24  28
ATOM     28  O   UNL     1      36.928 -19.936 -20.196  0.00  0.00    -0.506 OA
ATOM     29  H   UNL     1      37.444 -20.118 -20.956  0.00  0.00    +0.292 HD
ENDBRANCH  24  28
ENDBRANCH  19  21
ENDBRANCH   2  18
TORSDOF 4
ENDMDL
MODEL 3
REMARK VINA RESULT:     -10.4      2.650      6.687
REMARK  Name = 6852140
REMARK  4 active torsions:
REMARK  status: ('A' for Active; 'I' for Inactive)
REMARK    1  A    between atoms: C_2  and  N_18
REMARK    2  A    between atoms: C_5  and  C_13
REMARK    3  A    between atoms: C_19  and  C_21
REMARK    4  A    between atoms: C_24  and  O_28
REMARK                            x       y       z     vdW  Elec       q    Type
REMARK                         _______ _______ _______ _____ _____    ______ ____
ROOT
ATOM      1  C   UNL     1      34.947 -22.529 -17.321  0.00  0.00    +0.014 C 
ATOM      2  C   UNL     1      34.428 -23.290 -16.260  0.00  0.00    +0.050 C 
ATOM      3  C   UNL     1      36.337 -22.264 -17.366  0.00  0.00    +0.001 C 
ATOM      4  C   UNL     1      34.118 -22.023 -18.335  0.00  0.00    +0.004 C 
ATOM      5  C   UNL     1      34.651 -21.269 -19.380  0.00  0.00    +0.031 C 
ATOM      6  C   UNL     1      36.857 -21.503 -18.427  0.00  0.00    +0.000 C 
ATOM      7  C   UNL     1      35.267 -23.783 -15.260  0.00  0.00    +0.015 C 
ATOM      8  C   UNL     1      37.167 -22.769 -16.352  0.00  0.00    +0.000 C 
ATOM      9  C   UNL     1      36.017 -21.009 -19.427  0.00  0.00    +0.003 C 
ATOM     10  C   UNL     1      36.634 -23.523 -15.307  0.00  0.00    +0.001 C 
ENDROOT
BRANCH   5  13
ATOM     11  N   UNL     1      32.396 -20.906 -20.354  0.00  0.00    -0.343 N 
ATOM     12  N   UNL     1      34.299 -20.130 -21.467  0.00  0.00    -0.285 NA
ATOM     13  C   UNL     1      33.779 -20.753 -20.424  0.00  0.00    +0.117 C 
ATOM     14  H   UNL     1      31.825 -20.549 -21.072  0.00  0.00    +0.144 HD
ATOM     15  H   UNL     1      31.989 -21.369 -19.586  0.00  0.00    +0.144 HD
ATOM     16  H   UNL     1      33.710 -19.780 -22.174  0.00  0.00    +0.188 HD
ENDBRANCH   5  13
BRANCH   2  18
ATOM     17  O   UNL     1      32.562 -22.615 -14.101  0.00  0.00    -0.270 OA
ATOM     18  N   UNL     1      33.062 -23.583 -16.161  0.00  0.00    -0.280 N 
ATOM     19  C   UNL     1      32.220 -23.235 -15.106  0.00  0.00    +0.249 C 
ATOM     20  H   UNL     1      32.658 -24.081 -16.908  0.00  0.00    +0.155 HD
BRANCH  19  21
ATOM     21  C   UNL     1      30.837 -23.722 -15.256  0.00  0.00    +0.053 C 
ATOM     22  C   UNL     1      30.365 -24.761 -14.469  0.00  0.00    +0.016 C 
ATOM     23  C   UNL     1      30.028 -23.112 -16.202  0.00  0.00    +0.004 C 
ATOM     24  C   UNL     1      29.052 -25.202 -14.633  0.00  0.00    +0.130 C 
ATOM     25  C   UNL     1      31.243 -25.414 -13.450  0.00  0.00    +0.034 C 
ATOM     26  C   UNL     1      28.715 -23.552 -16.366  0.00  0.00    +0.003 C 
ATOM     27  C   UNL     1      28.226 -24.598 -15.581  0.00  0.00    +0.036 C 
BRANCH  24  28
ATOM     28  O   UNL     1      28.557 -26.221 -13.875  0.00  0.00    -0.506 OA
ATOM     29  H   UNL     1      28.270 -26.056 -12.999  0.00  0.00    +0.292 HD
ENDBRANCH  24  28
ENDBRANCH  19  21
ENDBRANCH   2  18
TORSDOF 4
ENDMDL
MODEL 4
REMARK VINA RESULT:     -10.4      3.181      5.965
REMARK  Name = 6852140
REMARK  4 active torsions:
REMARK  status: ('A' for Active; 'I' for Inactive)
REMARK    1  A    between atoms: C_2  and  N_18
REMARK    2  A    between atoms: C_5  and  C_13
REMARK    3  A    between atoms: C_19  and  C_21
REMARK    4  A    between atoms: C_24  and  O_28
REMARK                            x       y       z     vdW  Elec       q    Type
REMARK                         _______ _______ _______ _____ _____    ______ ____
ROOT
ATOM      1  C   UNL     1      32.253 -24.130 -15.008  0.00  0.00    +0.014 C 
ATOM      2  C   UNL     1      32.795 -24.843 -13.925  0.00  0.00    +0.050 C 
ATOM      3  C   UNL     1      30.857 -23.899 -15.055  0.00  0.00    +0.001 C 
ATOM      4  C   UNL     1      33.065 -23.645 -16.046  0.00  0.00    +0.004 C 
ATOM      5  C   UNL     1      32.509 -22.940 -17.114  0.00  0.00    +0.031 C 
ATOM      6  C   UNL     1      30.315 -23.186 -16.137  0.00  0.00    +0.000 C 
ATOM      7  C   UNL     1      31.973 -25.319 -12.903  0.00  0.00    +0.015 C 
ATOM      8  C   UNL     1      30.045 -24.384 -14.017  0.00  0.00    +0.000 C 
ATOM      9  C   UNL     1      31.138 -22.710 -17.159  0.00  0.00    +0.003 C 
ATOM     10  C   UNL     1      30.601 -25.090 -12.950  0.00  0.00    +0.001 C 
ENDROOT
BRANCH   5  13
ATOM     11  N   UNL     1      32.880 -21.556 -19.142  0.00  0.00    -0.343 N 
ATOM     12  N   UNL     1      34.622 -22.835 -18.254  0.00  0.00    -0.285 NA
ATOM     13  C   UNL     1      33.363 -22.442 -18.180  0.00  0.00    +0.117 C 
ATOM     14  H   UNL     1      33.476 -21.232 -19.855  0.00  0.00    +0.144 HD
ATOM     15  H   UNL     1      31.944 -21.253 -19.107  0.00  0.00    +0.144 HD
ATOM     16  H   UNL     1      35.202 -22.499 -18.975  0.00  0.00    +0.188 HD
ENDBRANCH   5  13
BRANCH   2  18
ATOM     17  O   UNL     1      34.712 -23.836 -11.948  0.00  0.00    -0.270 OA
ATOM     18  N   UNL     1      34.168 -25.103 -13.826  0.00  0.00    -0.280 N 
ATOM     19  C   UNL     1      35.034 -24.594 -12.860  0.00  0.00    +0.249 C 
ATOM     20  H   UNL     1      34.558 -25.703 -14.503  0.00  0.00    +0.155 HD
BRANCH  19  21
ATOM     21  C   UNL     1      36.439 -25.005 -13.037  0.00  0.00    +0.053 C 
ATOM     22  C   UNL     1      37.201 -24.485 -14.071  0.00  0.00    +0.016 C 
ATOM     23  C   UNL     1      36.970 -25.921 -12.142  0.00  0.00    +0.004 C 
ATOM     24  C   UNL     1      38.527 -24.892 -14.215  0.00  0.00    +0.130 C 
ATOM     25  C   UNL     1      36.623 -23.497 -15.032  0.00  0.00    +0.034 C 
ATOM     26  C   UNL     1      38.296 -26.328 -12.286  0.00  0.00    +0.003 C 
ATOM     27  C   UNL     1      39.076 -25.814 -13.322  0.00  0.00    +0.036 C 
BRANCH  24  28
ATOM     28  O   UNL     1      39.305 -24.400 -15.221  0.00  0.00    -0.506 OA
ATOM     29  H   UNL     1      38.967 -24.354 -16.093  0.00  0.00    +0.292 HD
ENDBRANCH  24  28
ENDBRANCH  19  21
ENDBRANCH   2  18
TORSDOF 4
ENDMDL
MODEL 5
REMARK VINA RESULT:     -10.4      2.102      4.537
REMARK  Name = 6852140
REMARK  4 active torsions:
REMARK  status: ('A' for Active; 'I' for Inactive)
REMARK    1  A    between atoms: C_2  and  N_18
REMARK    2  A    between atoms: C_5  and  C_13
REMARK    3  A    between atoms: C_19  and  C_21
REMARK    4  A    between atoms: C_24  and  O_28
REMARK                            x       y       z     vdW  Elec       q    Type
REMARK                         _______ _______ _______ _____ _____    ______ ____
ROOT
ATOM      1  C   UNL     1      33.441 -23.606 -15.017  0.00  0.00    +0.014 C 
ATOM      2  C   UNL     1      32.837 -23.119 -16.189  0.00  0.00    +0.050 C 
ATOM      3  C   UNL     1      32.662 -24.343 -14.094  0.00  0.00    +0.001 C 
ATOM      4  C   UNL     1      34.798 -23.374 -14.741  0.00  0.00    +0.004 C 
ATOM      5  C   UNL     1      35.380 -23.864 -13.572  0.00  0.00    +0.031 C 
ATOM      6  C   UNL     1      33.265 -24.829 -12.921  0.00  0.00    +0.000 C 
ATOM      7  C   UNL     1      31.487 -23.358 -16.447  0.00  0.00    +0.015 C 
ATOM      8  C   UNL     1      31.304 -24.575 -14.370  0.00  0.00    +0.000 C 
ATOM      9  C   UNL     1      34.616 -24.591 -12.664  0.00  0.00    +0.003 C 
ATOM     10  C   UNL     1      30.722 -24.084 -15.538  0.00  0.00    +0.001 C 
ENDROOT
BRANCH   5  13
ATOM     11  N   UNL     1      37.237 -23.327 -12.014  0.00  0.00    -0.343 N 
ATOM     12  N   UNL     1      37.665 -23.661 -14.287  0.00  0.00    -0.285 NA
ATOM     13  C   UNL     1      36.787 -23.618 -13.301  0.00  0.00    +0.117 C 
ATOM     14  H   UNL     1      38.194 -23.163 -11.853  0.00  0.00    +0.144 HD
ATOM     15  H   UNL     1      36.598 -23.287 -11.266  0.00  0.00    +0.144 HD
ATOM     16  H   UNL     1      38.618 -23.495 -14.105  0.00  0.00    +0.188 HD
ENDBRANCH   5  13
BRANCH   2  18
ATOM     17  O   UNL     1      33.749 -23.954 -18.848  0.00  0.00    -0.270 OA
ATOM     18  N   UNL     1      33.557 -22.383 -17.139  0.00  0.00    -0.280 N 
ATOM     19  C   UNL     1      33.965 -22.834 -18.393  0.00  0.00    +0.249 C 
ATOM     20  H   UNL     1      33.797 -21.459 -16.897  0.00  0.00    +0.155 HD
BRANCH  19  21
ATOM     21  C   UNL     1      34.752 -21.849 -19.158  0.00  0.00    +0.053 C 
ATOM     22  C   UNL     1      34.124 -20.936 -19.991  0.00  0.00    +0.016 C 
ATOM     23  C   UNL     1      36.132 -21.864 -19.018  0.00  0.00    +0.004 C 
ATOM     24  C   UNL     1      34.894 -20.017 -20.702  0.00  0.00    +0.130 C 
ATOM     25  C   UNL     1      32.636 -20.925 -20.137  0.00  0.00    +0.034 C 
ATOM     26  C   UNL     1      36.902 -20.944 -19.729  0.00  0.00    +0.003 C 
ATOM     27  C   UNL     1      36.283 -20.020 -20.572  0.00  0.00    +0.036 C 
BRANCH  24  28
ATOM     28  O   UNL     1      34.307 -19.106 -21.530  0.00  0.00    -0.506 OA
ATOM     29  H   UNL     1      34.789 -18.751 -22.251  0.00  0.00    +0.292 HD
ENDBRANCH  24  28
ENDBRANCH  19  21
ENDBRANCH   2  18
TORSDOF 4
ENDMDL
MODEL 6
REMARK VINA RESULT:     -10.2      2.640      7.190
REMARK  Name = 6852140
REMARK  4 active torsions:
REMARK  status: ('A' for Active; 'I' for Inactive)
REMARK    1  A    between atoms: C_2  and  N_18
REMARK    2  A    between atoms: C_5  and  C_13
REMARK    3  A    between atoms: C_19  and  C_21
REMARK    4  A    between atoms: C_24  and  O_28
REMARK                            x       y       z     vdW  Elec       q    Type
REMARK                         _______ _______ _______ _____ _____    ______ ____
ROOT
ATOM      1  C   UNL     1      35.015 -22.822 -16.854  0.00  0.00    +0.014 C 
ATOM      2  C   UNL     1      33.725 -23.010 -17.378  0.00  0.00    +0.050 C 
ATOM      3  C   UNL     1      35.993 -22.167 -17.641  0.00  0.00    +0.001 C 
ATOM      4  C   UNL     1      35.357 -23.271 -15.568  0.00  0.00    +0.004 C 
ATOM      5  C   UNL     1      36.642 -23.076 -15.064  0.00  0.00    +0.031 C 
ATOM      6  C   UNL     1      37.283 -21.979 -17.116  0.00  0.00    +0.000 C 
ATOM      7  C   UNL     1      33.405 -22.558 -18.659  0.00  0.00    +0.015 C 
ATOM      8  C   UNL     1      35.652 -21.718 -18.927  0.00  0.00    +0.000 C 
ATOM      9  C   UNL     1      37.604 -22.430 -15.836  0.00  0.00    +0.003 C 
ATOM     10  C   UNL     1      34.366 -21.913 -19.431  0.00  0.00    +0.001 C 
ENDROOT
BRANCH   5  13
ATOM     11  N   UNL     1      36.085 -23.422 -12.669  0.00  0.00    -0.343 N 
ATOM     12  N   UNL     1      38.160 -24.097 -13.505  0.00  0.00    -0.285 NA
ATOM     13  C   UNL     1      36.980 -23.546 -13.730  0.00  0.00    +0.117 C 
ATOM     14  H   UNL     1      36.334 -23.747 -11.774  0.00  0.00    +0.144 HD
ATOM     15  H   UNL     1      35.201 -23.012 -12.815  0.00  0.00    +0.144 HD
ATOM     16  H   UNL     1      38.390 -24.416 -12.602  0.00  0.00    +0.188 HD
ENDBRANCH   5  13
BRANCH   2  18
ATOM     17  O   UNL     1      30.934 -22.196 -17.001  0.00  0.00    -0.270 OA
ATOM     18  N   UNL     1      32.718 -23.652 -16.647  0.00  0.00    -0.280 N 
ATOM     19  C   UNL     1      31.402 -23.217 -16.502  0.00  0.00    +0.249 C 
ATOM     20  H   UNL     1      32.963 -24.491 -16.192  0.00  0.00    +0.155 HD
BRANCH  19  21
ATOM     21  C   UNL     1      30.578 -24.075 -15.630  0.00  0.00    +0.053 C 
ATOM     22  C   UNL     1      30.938 -24.293 -14.310  0.00  0.00    +0.016 C 
ATOM     23  C   UNL     1      29.438 -24.652 -16.170  0.00  0.00    +0.004 C 
ATOM     24  C   UNL     1      30.141 -25.110 -13.510  0.00  0.00    +0.130 C 
ATOM     25  C   UNL     1      32.168 -23.667 -13.734  0.00  0.00    +0.034 C 
ATOM     26  C   UNL     1      28.640 -25.469 -15.370  0.00  0.00    +0.003 C 
ATOM     27  C   UNL     1      28.991 -25.698 -14.039  0.00  0.00    +0.036 C 
BRANCH  24  28
ATOM     28  O   UNL     1      30.467 -25.346 -12.207  0.00  0.00    -0.506 OA
ATOM     29  H   UNL     1      31.355 -25.527 -11.973  0.00  0.00    +0.292 HD
ENDBRANCH  24  28
ENDBRANCH  19  21
ENDBRANCH   2  18
TORSDOF 4
ENDMDL
MODEL 7
REMARK VINA RESULT:      -9.9      2.903      6.534
REMARK  Name = 6852140
REMARK  4 active torsions:
REMARK  status: ('A' for Active; 'I' for Inactive)
REMARK    1  A    between atoms: C_2  and  N_18
REMARK    2  A    between atoms: C_5  and  C_13
REMARK    3  A    between atoms: C_19  and  C_21
REMARK    4  A    between atoms: C_24  and  O_28
REMARK                            x       y       z     vdW  Elec       q    Type
REMARK                         _______ _______ _______ _____ _____    ______ ____
ROOT
ATOM      1  C   UNL     1      35.198 -23.202 -15.995  0.00  0.00    +0.014 C 
ATOM      2  C   UNL     1      34.596 -23.925 -14.952  0.00  0.00    +0.050 C 
ATOM      3  C   UNL     1      36.564 -22.844 -15.890  0.00  0.00    +0.001 C 
ATOM      4  C   UNL     1      34.475 -22.824 -17.138  0.00  0.00    +0.004 C 
ATOM      5  C   UNL     1      35.089 -22.105 -18.164  0.00  0.00    +0.031 C 
ATOM      6  C   UNL     1      37.166 -22.120 -16.934  0.00  0.00    +0.000 C 
ATOM      7  C   UNL     1      35.331 -24.291 -13.823  0.00  0.00    +0.015 C 
ATOM      8  C   UNL     1      37.287 -23.222 -14.748  0.00  0.00    +0.000 C 
ATOM      9  C   UNL     1      36.432 -21.754 -18.062  0.00  0.00    +0.003 C 
ATOM     10  C   UNL     1      36.673 -23.940 -13.722  0.00  0.00    +0.001 C 
ENDROOT
BRANCH   5  13
ATOM     11  N   UNL     1      33.015 -22.155 -19.529  0.00  0.00    -0.343 N 
ATOM     12  N   UNL     1      34.880 -20.953 -20.262  0.00  0.00    -0.285 NA
ATOM     13  C   UNL     1      34.327 -21.722 -19.342  0.00  0.00    +0.117 C 
ATOM     14  H   UNL     1      32.518 -21.884 -20.334  0.00  0.00    +0.144 HD
ATOM     15  H   UNL     1      32.586 -22.732 -18.856  0.00  0.00    +0.144 HD
ATOM     16  H   UNL     1      34.365 -20.692 -21.060  0.00  0.00    +0.188 HD
ENDBRANCH   5  13
BRANCH   2  18
ATOM     17  O   UNL     1      32.267 -22.560 -13.809  0.00  0.00    -0.270 OA
ATOM     18  N   UNL     1      33.249 -24.306 -15.000  0.00  0.00    -0.280 N 
ATOM     19  C   UNL     1      32.178 -23.614 -14.435  0.00  0.00    +0.249 C 
ATOM     20  H   UNL     1      33.038 -25.141 -15.477  0.00  0.00    +0.155 HD
BRANCH  19  21
ATOM     21  C   UNL     1      30.875 -24.283 -14.604  0.00  0.00    +0.053 C 
ATOM     22  C   UNL     1      30.020 -23.914 -15.630  0.00  0.00    +0.016 C 
ATOM     23  C   UNL     1      30.536 -25.288 -13.711  0.00  0.00    +0.004 C 
ATOM     24  C   UNL     1      28.794 -24.564 -15.766  0.00  0.00    +0.130 C 
ATOM     25  C   UNL     1      30.393 -22.830 -16.591  0.00  0.00    +0.034 C 
ATOM     26  C   UNL     1      29.310 -25.938 -13.846  0.00  0.00    +0.003 C 
ATOM     27  C   UNL     1      28.438 -25.576 -14.874  0.00  0.00    +0.036 C 
BRANCH  24  28
ATOM     28  O   UNL     1      27.929 -24.225 -16.764  0.00  0.00    -0.506 OA
ATOM     29  H   UNL     1      27.067 -24.592 -16.781  0.00  0.00    +0.292 HD
ENDBRANCH  24  28
ENDBRANCH  19  21
ENDBRANCH   2  18
TORSDOF 4
ENDMDL
MODEL 8
REMARK VINA RESULT:      -9.8      3.351      6.198
REMARK  Name = 6852140
REMARK  4 active torsions:
REMARK  status: ('A' for Active; 'I' for Inactive)
REMARK    1  A    between atoms: C_2  and  N_18
REMARK    2  A    between atoms: C_5  and  C_13
REMARK    3  A    between atoms: C_19  and  C_21
REMARK    4  A    between atoms: C_24  and  O_28
REMARK                            x       y       z     vdW  Elec       q    Type
REMARK                         _______ _______ _______ _____ _____    ______ ____
ROOT
ATOM      1  C   UNL     1      33.266 -23.274 -16.038  0.00  0.00    +0.014 C 
ATOM      2  C   UNL     1      34.650 -23.172 -16.255  0.00  0.00    +0.050 C 
ATOM      3  C   UNL     1      32.374 -22.900 -17.071  0.00  0.00    +0.001 C 
ATOM      4  C   UNL     1      32.747 -23.737 -14.817  0.00  0.00    +0.004 C 
ATOM      5  C   UNL     1      31.370 -23.832 -14.619  0.00  0.00    +0.031 C 
ATOM      6  C   UNL     1      30.990 -23.002 -16.854  0.00  0.00    +0.000 C 
ATOM      7  C   UNL     1      35.147 -22.709 -17.473  0.00  0.00    +0.015 C 
ATOM      8  C   UNL     1      32.893 -22.437 -18.292  0.00  0.00    +0.000 C 
ATOM      9  C   UNL     1      30.493 -23.466 -15.636  0.00  0.00    +0.003 C 
ATOM     10  C   UNL     1      34.270 -22.342 -18.489  0.00  0.00    +0.001 C 
ENDROOT
BRANCH   5  13
ATOM     11  N   UNL     1      30.109 -25.493 -13.272  0.00  0.00    -0.343 N 
ATOM     12  N   UNL     1      31.068 -23.627 -12.244  0.00  0.00    -0.285 NA
ATOM     13  C   UNL     1      30.848 -24.314 -13.351  0.00  0.00    +0.117 C 
ATOM     14  H   UNL     1      29.765 -25.801 -12.403  0.00  0.00    +0.144 HD
ATOM     15  H   UNL     1      29.931 -26.019 -14.086  0.00  0.00    +0.144 HD
ATOM     16  H   UNL     1      30.716 -23.952 -11.384  0.00  0.00    +0.188 HD
ENDBRANCH   5  13
BRANCH   2  18
ATOM     17  O   UNL     1      35.514 -25.850 -15.430  0.00  0.00    -0.270 OA
ATOM     18  N   UNL     1      35.580 -23.527 -15.269  0.00  0.00    -0.280 N 
ATOM     19  C   UNL     1      35.953 -24.823 -14.918  0.00  0.00    +0.249 C 
ATOM     20  H   UNL     1      36.011 -22.790 -14.777  0.00  0.00    +0.155 HD
BRANCH  19  21
ATOM     21  C   UNL     1      36.921 -24.889 -13.807  0.00  0.00    +0.053 C 
ATOM     22  C   UNL     1      36.515 -24.654 -12.503  0.00  0.00    +0.016 C 
ATOM     23  C   UNL     1      38.240 -25.193 -14.106  0.00  0.00    +0.004 C 
ATOM     24  C   UNL     1      37.451 -24.723 -11.472  0.00  0.00    +0.130 C 
ATOM     25  C   UNL     1      35.090 -24.328 -12.187  0.00  0.00    +0.034 C 
ATOM     26  C   UNL     1      39.177 -25.262 -13.076  0.00  0.00    +0.003 C 
ATOM     27  C   UNL     1      38.783 -25.027 -11.758  0.00  0.00    +0.036 C 
BRANCH  24  28
ATOM     28  O   UNL     1      37.086 -24.498 -10.178  0.00  0.00    -0.506 OA
ATOM     29  H   UNL     1      36.181 -24.389  -9.960  0.00  0.00    +0.292 HD
ENDBRANCH  24  28
ENDBRANCH  19  21
ENDBRANCH   2  18
TORSDOF 4
ENDMDL
MODEL 9
REMARK VINA RESULT:      -9.8      2.860      6.865
REMARK  Name = 6852140
REMARK  4 active torsions:
REMARK  status: ('A' for Active; 'I' for Inactive)
REMARK    1  A    between atoms: C_2  and  N_18
REMARK    2  A    between atoms: C_5  and  C_13
REMARK    3  A    between atoms: C_19  and  C_21
REMARK    4  A    between atoms: C_24  and  O_28
REMARK                            x       y       z     vdW  Elec       q    Type
REMARK                         _______ _______ _______ _____ _____    ______ ____
ROOT
ATOM      1  C   UNL     1      35.250 -23.450 -15.782  0.00  0.00    +0.014 C 
ATOM      2  C   UNL     1      34.222 -23.131 -16.686  0.00  0.00    +0.050 C 
ATOM      3  C   UNL     1      36.571 -23.022 -16.059  0.00  0.00    +0.001 C 
ATOM      4  C   UNL     1      34.996 -24.184 -14.613  0.00  0.00    +0.004 C 
ATOM      5  C   UNL     1      36.029 -24.492 -13.728  0.00  0.00    +0.031 C 
ATOM      6  C   UNL     1      37.599 -23.341 -15.155  0.00  0.00    +0.000 C 
ATOM      7  C   UNL     1      34.493 -22.401 -17.844  0.00  0.00    +0.015 C 
ATOM      8  C   UNL     1      36.825 -22.287 -17.228  0.00  0.00    +0.000 C 
ATOM      9  C   UNL     1      37.328 -24.071 -13.997  0.00  0.00    +0.003 C 
ATOM     10  C   UNL     1      35.792 -21.980 -18.114  0.00  0.00    +0.001 C 
ENDROOT
BRANCH   5  13
ATOM     11  N   UNL     1      36.656 -26.193 -12.030  0.00  0.00    -0.343 N 
ATOM     12  N   UNL     1      34.617 -25.062 -11.869  0.00  0.00    -0.285 NA
ATOM     13  C   UNL     1      35.750 -25.253 -12.520  0.00  0.00    +0.117 C 
ATOM     14  H   UNL     1      36.447 -26.697 -11.211  0.00  0.00    +0.144 HD
ATOM     15  H   UNL     1      37.505 -26.352 -12.502  0.00  0.00    +0.144 HD
ATOM     16  H   UNL     1      34.427 -25.576 -11.051  0.00  0.00    +0.188 HD
ENDBRANCH   5  13
BRANCH   2  18
ATOM     17  O   UNL     1      32.413 -22.351 -14.515  0.00  0.00    -0.270 OA
ATOM     18  N   UNL     1      32.897 -23.528 -16.466  0.00  0.00    -0.280 N 
ATOM     19  C   UNL     1      32.081 -23.123 -15.411  0.00  0.00    +0.249 C 
ATOM     20  H   UNL     1      32.505 -24.153 -17.119  0.00  0.00    +0.155 HD
BRANCH  19  21
ATOM     21  C   UNL     1      30.744 -23.746 -15.413  0.00  0.00    +0.053 C 
ATOM     22  C   UNL     1      30.473 -24.836 -14.601  0.00  0.00    +0.016 C 
ATOM     23  C   UNL     1      29.774 -23.209 -16.246  0.00  0.00    +0.004 C 
ATOM     24  C   UNL     1      29.200 -25.405 -14.624  0.00  0.00    +0.130 C 
ATOM     25  C   UNL     1      31.523 -25.409 -13.705  0.00  0.00    +0.034 C 
ATOM     26  C   UNL     1      28.501 -23.778 -16.268  0.00  0.00    +0.003 C 
ATOM     27  C   UNL     1      28.213 -24.877 -15.457  0.00  0.00    +0.036 C 
BRANCH  24  28
ATOM     28  O   UNL     1      28.899 -26.478 -13.838  0.00  0.00    -0.506 OA
ATOM     29  H   UNL     1      29.081 -27.345 -14.142  0.00  0.00    +0.292 HD
ENDBRANCH  24  28
ENDBRANCH  19  21
ENDBRANCH   2  18
TORSDOF 4
ENDMDL
