MODEL 1
REMARK VINA RESULT:     -12.8      0.000      0.000
REMARK  Name = 1712
REMARK  5 active torsions:
REMARK  status: ('A' for Active; 'I' for Inactive)
REMARK    1  A    between atoms: C_1  and  N_18
REMARK    2  A    between atoms: C_2  and  S_7
REMARK    3  A    between atoms: S_7  and  N_10
REMARK    4  A    between atoms: N_18  and  C_20
REMARK    5  A    between atoms: C_20  and  C_26
REMARK                            x       y       z     vdW  Elec       q    Type
REMARK                         _______ _______ _______ _____ _____    ______ ____
ROOT
ATOM      1  C   UNL     1      35.106 -20.199 -20.625  0.00  0.00    +0.045 C 
ATOM      2  C   UNL     1      34.233 -22.151 -18.797  0.00  0.00    +0.125 C 
ATOM      3  C   UNL     1      36.030 -20.960 -19.887  0.00  0.00    +0.016 C 
ATOM      4  C   UNL     1      33.734 -20.438 -20.426  0.00  0.00    +0.016 C 
ATOM      5  C   UNL     1      35.597 -21.928 -18.981  0.00  0.00    +0.021 C 
ATOM      6  C   UNL     1      33.301 -21.406 -19.520  0.00  0.00    +0.021 C 
ENDROOT
BRANCH   2   7
ATOM      7  S   UNL     1      33.691 -23.362 -17.662  0.00  0.00    +0.075 S 
ATOM      8  O   UNL     1      34.604 -23.347 -16.525  0.00  0.00    -0.150 OA
ATOM      9  O   UNL     1      33.483 -24.614 -18.379  0.00  0.00    -0.150 OA
BRANCH   7  10
ATOM     10  N   UNL     1      32.172 -22.740 -17.136  0.00  0.00    -0.199 N 
ATOM     11  H   UNL     1      31.703 -22.047 -17.654  0.00  0.00    +0.175 HD
ATOM     12  N   UNL     1      32.280 -22.961 -14.790  0.00  0.00    -0.228 NA
ATOM     13  C   UNL     1      31.612 -23.264 -15.920  0.00  0.00    +0.147 C 
ATOM     14  C   UNL     1      30.459 -24.023 -15.975  0.00  0.00    +0.036 C 
ATOM     15  C   UNL     1      29.952 -24.508 -14.774  0.00  0.00    +0.005 C 
ATOM     16  C   UNL     1      31.758 -23.452 -13.643  0.00  0.00    +0.100 C 
ATOM     17  C   UNL     1      30.608 -24.222 -13.582  0.00  0.00    +0.021 C 
ENDBRANCH   7  10
ENDBRANCH   2   7
BRANCH   1  18
ATOM     18  N   UNL     1      35.536 -19.237 -21.527  0.00  0.00    -0.328 N 
ATOM     19  H   UNL     1      36.074 -19.531 -22.298  0.00  0.00    +0.147 HD
BRANCH  18  20
ATOM     20  C   UNL     1      35.242 -17.831 -21.401  0.00  0.00    +0.127 C 
BRANCH  20  26
ATOM     21  S   UNL     1      34.119 -14.445 -20.864  0.00  0.00    -0.104 S 
ATOM     22  O   UNL     1      35.306 -19.298 -23.948  0.00  0.00    -0.210 OA
ATOM     23  N   UNL     1      34.438 -17.425 -25.026  0.00  0.00    -0.333 NA
ATOM     24  N   UNL     1      33.186 -12.694 -22.535  0.00  0.00    -0.262 NA
ATOM     25  C   UNL     1      34.318 -16.126 -23.112  0.00  0.00    +0.033 C 
ATOM     26  C   UNL     1      34.811 -17.297 -22.715  0.00  0.00    +0.092 C 
ATOM     27  C   UNL     1      34.105 -16.267 -24.561  0.00  0.00    +0.142 C 
ATOM     28  C   UNL     1      33.991 -14.908 -22.496  0.00  0.00    +0.114 C 
ATOM     29  C   UNL     1      34.894 -18.147 -23.942  0.00  0.00    +0.202 C 
ATOM     30  C   UNL     1      33.477 -13.845 -23.221  0.00  0.00    +0.069 C 
ATOM     31  C   UNL     1      33.552 -15.102 -25.304  0.00  0.00    +0.034 C 
ATOM     32  C   UNL     1      33.265 -13.969 -24.632  0.00  0.00    +0.018 C 
ATOM     33  C   UNL     1      33.487 -12.896 -21.270  0.00  0.00    +0.183 C 
ENDBRANCH  20  26
ENDBRANCH  18  20
ENDBRANCH   1  18
TORSDOF 5
ENDMDL
MODEL 2
REMARK VINA RESULT:     -12.6      3.844      6.831
REMARK  Name = 1712
REMARK  5 active torsions:
REMARK  status: ('A' for Active; 'I' for Inactive)
REMARK    1  A    between atoms: C_1  and  N_18
REMARK    2  A    between atoms: C_2  and  S_7
REMARK    3  A    between atoms: S_7  and  N_10
REMARK    4  A    between atoms: N_18  and  C_20
REMARK    5  A    between atoms: C_20  and  C_26
REMARK                            x       y       z     vdW  Elec       q    Type
REMARK                         _______ _______ _______ _____ _____    ______ ____
ROOT
ATOM      1  C   UNL     1      34.029 -14.506 -23.675  0.00  0.00    +0.045 C 
ATOM      2  C   UNL     1      34.838 -17.087 -22.902  0.00  0.00    +0.125 C 
ATOM      3  C   UNL     1      34.012 -15.572 -24.593  0.00  0.00    +0.016 C 
ATOM      4  C   UNL     1      34.461 -14.762 -22.361  0.00  0.00    +0.016 C 
ATOM      5  C   UNL     1      34.413 -16.852 -24.209  0.00  0.00    +0.021 C 
ATOM      6  C   UNL     1      34.862 -16.042 -21.978  0.00  0.00    +0.021 C 
ENDROOT
BRANCH   2   7
ATOM      7  S   UNL     1      35.340 -18.688 -22.422  0.00  0.00    +0.075 S 
ATOM      8  O   UNL     1      36.796 -18.689 -22.329  0.00  0.00    -0.150 OA
ATOM      9  O   UNL     1      34.691 -19.662 -23.292  0.00  0.00    -0.150 OA
BRANCH   7  10
ATOM     10  N   UNL     1      34.703 -18.827 -20.826  0.00  0.00    -0.199 N 
ATOM     11  H   UNL     1      34.405 -18.031 -20.330  0.00  0.00    +0.175 HD
ATOM     12  N   UNL     1      35.800 -20.731 -19.969  0.00  0.00    -0.228 NA
ATOM     13  C   UNL     1      34.621 -20.138 -20.242  0.00  0.00    +0.147 C 
ATOM     14  C   UNL     1      33.382 -20.699 -20.001  0.00  0.00    +0.036 C 
ATOM     15  C   UNL     1      33.350 -21.968 -19.435  0.00  0.00    +0.005 C 
ATOM     16  C   UNL     1      35.729 -21.965 -19.421  0.00  0.00    +0.100 C 
ATOM     17  C   UNL     1      34.542 -22.620 -19.136  0.00  0.00    +0.021 C 
ENDBRANCH   7  10
ENDBRANCH   2   7
BRANCH   1  18
ATOM     18  N   UNL     1      33.629 -13.234 -24.056  0.00  0.00    -0.328 N 
ATOM     19  H   UNL     1      32.916 -13.153 -24.731  0.00  0.00    +0.147 HD
BRANCH  18  20
ATOM     20  C   UNL     1      34.198 -12.021 -23.523  0.00  0.00    +0.127 C 
BRANCH  20  26
ATOM     21  S   UNL     1      35.285  -8.616 -24.014  0.00  0.00    -0.104 S 
ATOM     22  O   UNL     1      31.647 -12.923 -22.374  0.00  0.00    -0.210 OA
ATOM     23  N   UNL     1      31.010 -10.700 -22.093  0.00  0.00    -0.333 NA
ATOM     24  N   UNL     1      34.093  -6.374 -23.483  0.00  0.00    -0.262 NA
ATOM     25  C   UNL     1      32.963  -9.816 -22.972  0.00  0.00    +0.033 C 
ATOM     26  C   UNL     1      33.112 -11.137 -23.036  0.00  0.00    +0.092 C 
ATOM     27  C   UNL     1      31.634  -9.605 -22.375  0.00  0.00    +0.142 C 
ATOM     28  C   UNL     1      33.734  -8.696 -23.319  0.00  0.00    +0.114 C 
ATOM     29  C   UNL     1      31.857 -11.722 -22.471  0.00  0.00    +0.202 C 
ATOM     30  C   UNL     1      33.271  -7.407 -23.114  0.00  0.00    +0.069 C 
ATOM     31  C   UNL     1      31.174  -8.205 -22.172  0.00  0.00    +0.034 C 
ATOM     32  C   UNL     1      31.980  -7.187 -22.534  0.00  0.00    +0.018 C 
ATOM     33  C   UNL     1      35.196  -6.896 -23.976  0.00  0.00    +0.183 C 
ENDBRANCH  20  26
ENDBRANCH  18  20
ENDBRANCH   1  18
TORSDOF 5
ENDMDL
MODEL 3
REMARK VINA RESULT:     -11.8      2.913      3.359
REMARK  Name = 1712
REMARK  5 active torsions:
REMARK  status: ('A' for Active; 'I' for Inactive)
REMARK    1  A    between atoms: C_1  and  N_18
REMARK    2  A    between atoms: C_2  and  S_7
REMARK    3  A    between atoms: S_7  and  N_10
REMARK    4  A    between atoms: N_18  and  C_20
REMARK    5  A    between atoms: C_20  and  C_26
REMARK                            x       y       z     vdW  Elec       q    Type
REMARK                         _______ _______ _______ _____ _____    ______ ____
ROOT
ATOM      1  C   UNL     1      34.582 -21.054 -19.928  0.00  0.00    +0.045 C 
ATOM      2  C   UNL     1      34.687 -22.586 -17.571  0.00  0.00    +0.125 C 
ATOM      3  C   UNL     1      35.805 -21.288 -19.274  0.00  0.00    +0.016 C 
ATOM      4  C   UNL     1      33.413 -21.605 -19.374  0.00  0.00    +0.016 C 
ATOM      5  C   UNL     1      35.857 -22.048 -18.106  0.00  0.00    +0.021 C 
ATOM      6  C   UNL     1      33.465 -22.365 -18.205  0.00  0.00    +0.021 C 
ENDROOT
BRANCH   2   7
ATOM      7  S   UNL     1      34.752 -23.536 -16.108  0.00  0.00    +0.075 S 
ATOM      8  O   UNL     1      34.235 -24.865 -16.416  0.00  0.00    -0.150 OA
ATOM      9  O   UNL     1      34.134 -22.775 -15.029  0.00  0.00    -0.150 OA
BRANCH   7  10
ATOM     10  N   UNL     1      36.445 -23.675 -15.818  0.00  0.00    -0.199 N 
ATOM     11  H   UNL     1      37.094 -23.163 -16.352  0.00  0.00    +0.175 HD
ATOM     12  N   UNL     1      36.674 -25.874 -14.994  0.00  0.00    -0.228 NA
ATOM     13  C   UNL     1      36.881 -24.562 -14.772  0.00  0.00    +0.147 C 
ATOM     14  C   UNL     1      37.469 -24.037 -13.638  0.00  0.00    +0.036 C 
ATOM     15  C   UNL     1      37.876 -24.930 -12.653  0.00  0.00    +0.005 C 
ATOM     16  C   UNL     1      37.081 -26.712 -14.015  0.00  0.00    +0.100 C 
ATOM     17  C   UNL     1      37.682 -26.295 -12.838  0.00  0.00    +0.021 C 
ENDBRANCH   7  10
ENDBRANCH   2   7
BRANCH   1  18
ATOM     18  N   UNL     1      34.530 -20.300 -21.091  0.00  0.00    -0.328 N 
ATOM     19  H   UNL     1      33.885 -20.563 -21.787  0.00  0.00    +0.147 HD
BRANCH  18  20
ATOM     20  C   UNL     1      35.369 -19.154 -21.342  0.00  0.00    +0.127 C 
BRANCH  20  26
ATOM     21  S   UNL     1      34.783 -15.686 -20.536  0.00  0.00    -0.104 S 
ATOM     22  O   UNL     1      35.041 -20.448 -23.961  0.00  0.00    -0.210 OA
ATOM     23  N   UNL     1      34.377 -18.407 -24.865  0.00  0.00    -0.333 NA
ATOM     24  N   UNL     1      33.995 -13.719 -22.032  0.00  0.00    -0.262 NA
ATOM     25  C   UNL     1      34.579 -17.230 -22.880  0.00  0.00    +0.033 C 
ATOM     26  C   UNL     1      34.927 -18.481 -22.587  0.00  0.00    +0.092 C 
ATOM     27  C   UNL     1      34.247 -17.246 -24.313  0.00  0.00    +0.142 C 
ATOM     28  C   UNL     1      34.475 -16.021 -22.175  0.00  0.00    +0.114 C 
ATOM     29  C   UNL     1      34.800 -19.254 -23.860  0.00  0.00    +0.202 C 
ATOM     30  C   UNL     1      34.069 -14.852 -22.799  0.00  0.00    +0.069 C 
ATOM     31  C   UNL     1      33.815 -15.971 -24.946  0.00  0.00    +0.034 C 
ATOM     32  C   UNL     1      33.742 -14.855 -24.193  0.00  0.00    +0.018 C 
ATOM     33  C   UNL     1      34.353 -14.041 -20.806  0.00  0.00    +0.183 C 
ENDBRANCH  20  26
ENDBRANCH  18  20
ENDBRANCH   1  18
TORSDOF 5
ENDMDL
MODEL 4
REMARK VINA RESULT:     -11.5      2.414     10.395
REMARK  Name = 1712
REMARK  5 active torsions:
REMARK  status: ('A' for Active; 'I' for Inactive)
REMARK    1  A    between atoms: C_1  and  N_18
REMARK    2  A    between atoms: C_2  and  S_7
REMARK    3  A    between atoms: S_7  and  N_10
REMARK    4  A    between atoms: N_18  and  C_20
REMARK    5  A    between atoms: C_20  and  C_26
REMARK                            x       y       z     vdW  Elec       q    Type
REMARK                         _______ _______ _______ _____ _____    ______ ____
ROOT
ATOM      1  C   UNL     1      33.795 -22.109 -19.149  0.00  0.00    +0.045 C 
ATOM      2  C   UNL     1      35.308 -20.050 -20.328  0.00  0.00    +0.125 C 
ATOM      3  C   UNL     1      35.195 -22.075 -19.014  0.00  0.00    +0.016 C 
ATOM      4  C   UNL     1      33.171 -21.089 -19.889  0.00  0.00    +0.016 C 
ATOM      5  C   UNL     1      35.945 -21.054 -19.598  0.00  0.00    +0.021 C 
ATOM      6  C   UNL     1      33.920 -20.068 -20.473  0.00  0.00    +0.021 C 
ENDROOT
BRANCH   2   7
ATOM      7  S   UNL     1      36.246 -18.774 -21.060  0.00  0.00    +0.075 S 
ATOM      8  O   UNL     1      37.641 -18.974 -20.684  0.00  0.00    -0.150 OA
ATOM      9  O   UNL     1      35.613 -17.496 -20.757  0.00  0.00    -0.150 OA
BRANCH   7  10
ATOM     10  N   UNL     1      36.094 -19.106 -22.745  0.00  0.00    -0.199 N 
ATOM     11  H   UNL     1      36.636 -19.808 -23.173  0.00  0.00    +0.175 HD
ATOM     12  N   UNL     1      35.458 -17.024 -23.652  0.00  0.00    -0.228 NA
ATOM     13  C   UNL     1      35.154 -18.328 -23.506  0.00  0.00    +0.147 C 
ATOM     14  C   UNL     1      34.031 -18.939 -24.027  0.00  0.00    +0.036 C 
ATOM     15  C   UNL     1      33.149 -18.148 -24.756  0.00  0.00    +0.005 C 
ATOM     16  C   UNL     1      34.578 -16.287 -24.366  0.00  0.00    +0.100 C 
ATOM     17  C   UNL     1      33.422 -16.796 -24.934  0.00  0.00    +0.021 C 
ENDBRANCH   7  10
ENDBRANCH   2   7
BRANCH   1  18
ATOM     18  N   UNL     1      33.050 -23.123 -18.567  0.00  0.00    -0.328 N 
ATOM     19  H   UNL     1      32.110 -23.227 -18.844  0.00  0.00    +0.147 HD
BRANCH  18  20
ATOM     20  C   UNL     1      33.569 -24.034 -17.577  0.00  0.00    +0.127 C 
BRANCH  20  26
ATOM     21  S   UNL     1      35.879 -25.095 -15.016  0.00  0.00    -0.104 S 
ATOM     22  O   UNL     1      30.910 -22.840 -17.187  0.00  0.00    -0.210 OA
ATOM     23  N   UNL     1      31.205 -22.986 -14.881  0.00  0.00    -0.333 NA
ATOM     24  N   UNL     1      35.679 -25.020 -12.431  0.00  0.00    -0.262 NA
ATOM     25  C   UNL     1      33.314 -23.936 -15.005  0.00  0.00    +0.033 C 
ATOM     26  C   UNL     1      32.932 -23.756 -16.267  0.00  0.00    +0.092 C 
ATOM     27  C   UNL     1      32.197 -23.438 -14.188  0.00  0.00    +0.142 C 
ATOM     28  C   UNL     1      34.448 -24.452 -14.358  0.00  0.00    +0.114 C 
ATOM     29  C   UNL     1      31.570 -23.143 -16.203  0.00  0.00    +0.202 C 
ATOM     30  C   UNL     1      34.533 -24.499 -12.976  0.00  0.00    +0.069 C 
ATOM     31  C   UNL     1      32.328 -23.506 -12.707  0.00  0.00    +0.034 C 
ATOM     32  C   UNL     1      33.453 -24.018 -12.169  0.00  0.00    +0.018 C 
ATOM     33  C   UNL     1      36.469 -25.372 -13.423  0.00  0.00    +0.183 C 
ENDBRANCH  20  26
ENDBRANCH  18  20
ENDBRANCH   1  18
TORSDOF 5
ENDMDL
MODEL 5
REMARK VINA RESULT:     -11.4      2.769     10.348
REMARK  Name = 1712
REMARK  5 active torsions:
REMARK  status: ('A' for Active; 'I' for Inactive)
REMARK    1  A    between atoms: C_1  and  N_18
REMARK    2  A    between atoms: C_2  and  S_7
REMARK    3  A    between atoms: S_7  and  N_10
REMARK    4  A    between atoms: N_18  and  C_20
REMARK    5  A    between atoms: C_20  and  C_26
REMARK                            x       y       z     vdW  Elec       q    Type
REMARK                         _______ _______ _______ _____ _____    ______ ____
ROOT
ATOM      1  C   UNL     1      35.755 -21.330 -19.020  0.00  0.00    +0.045 C 
ATOM      2  C   UNL     1      35.167 -20.058 -21.460  0.00  0.00    +0.125 C 
ATOM      3  C   UNL     1      34.443 -21.315 -19.527  0.00  0.00    +0.016 C 
ATOM      4  C   UNL     1      36.765 -20.692 -19.763  0.00  0.00    +0.016 C 
ATOM      5  C   UNL     1      34.152 -20.685 -20.737  0.00  0.00    +0.021 C 
ATOM      6  C   UNL     1      36.474 -20.062 -20.972  0.00  0.00    +0.021 C 
ENDROOT
BRANCH   2   7
ATOM      7  S   UNL     1      34.801 -19.268 -22.973  0.00  0.00    +0.075 S 
ATOM      8  O   UNL     1      33.399 -18.868 -22.939  0.00  0.00    -0.150 OA
ATOM      9  O   UNL     1      35.264 -20.116 -24.065  0.00  0.00    -0.150 OA
BRANCH   7  10
ATOM     10  N   UNL     1      35.766 -17.842 -22.902  0.00  0.00    -0.199 N 
ATOM     11  H   UNL     1      36.665 -17.819 -23.303  0.00  0.00    +0.175 HD
ATOM     12  N   UNL     1      35.051 -16.803 -20.908  0.00  0.00    -0.228 NA
ATOM     13  C   UNL     1      35.220 -16.688 -22.240  0.00  0.00    +0.147 C 
ATOM     14  C   UNL     1      34.909 -15.564 -22.980  0.00  0.00    +0.036 C 
ATOM     15  C   UNL     1      34.384 -14.472 -22.298  0.00  0.00    +0.005 C 
ATOM     16  C   UNL     1      34.538 -15.722 -20.280  0.00  0.00    +0.100 C 
ATOM     17  C   UNL     1      34.192 -14.544 -20.923  0.00  0.00    +0.021 C 
ENDBRANCH   7  10
ENDBRANCH   2   7
BRANCH   1  18
ATOM     18  N   UNL     1      36.046 -21.958 -17.818  0.00  0.00    -0.328 N 
ATOM     19  H   UNL     1      36.924 -21.787 -17.406  0.00  0.00    +0.147 HD
BRANCH  18  20
ATOM     20  C   UNL     1      35.138 -22.847 -17.137  0.00  0.00    +0.127 C 
BRANCH  20  26
ATOM     21  S   UNL     1      32.391 -24.107 -15.167  0.00  0.00    -0.104 S 
ATOM     22  O   UNL     1      37.925 -22.487 -16.274  0.00  0.00    -0.210 OA
ATOM     23  N   UNL     1      37.356 -23.299 -14.166  0.00  0.00    -0.333 NA
ATOM     24  N   UNL     1      32.317 -24.920 -12.704  0.00  0.00    -0.262 NA
ATOM     25  C   UNL     1      35.123 -23.644 -14.677  0.00  0.00    +0.033 C 
ATOM     26  C   UNL     1      35.670 -23.160 -15.789  0.00  0.00    +0.092 C 
ATOM     27  C   UNL     1      36.222 -23.708 -13.701  0.00  0.00    +0.142 C 
ATOM     28  C   UNL     1      33.843 -24.063 -14.282  0.00  0.00    +0.114 C 
ATOM     29  C   UNL     1      37.114 -22.932 -15.474  0.00  0.00    +0.202 C 
ATOM     30  C   UNL     1      33.598 -24.532 -13.001  0.00  0.00    +0.069 C 
ATOM     31  C   UNL     1      35.918 -24.218 -12.337  0.00  0.00    +0.034 C 
ATOM     32  C   UNL     1      34.659 -24.599 -12.042  0.00  0.00    +0.018 C 
ATOM     33  C   UNL     1      31.584 -24.737 -13.782  0.00  0.00    +0.183 C 
ENDBRANCH  20  26
ENDBRANCH  18  20
ENDBRANCH   1  18
TORSDOF 5
ENDMDL
MODEL 6
REMARK VINA RESULT:     -11.2      5.780      9.307
REMARK  Name = 1712
REMARK  5 active torsions:
REMARK  status: ('A' for Active; 'I' for Inactive)
REMARK    1  A    between atoms: C_1  and  N_18
REMARK    2  A    between atoms: C_2  and  S_7
REMARK    3  A    between atoms: S_7  and  N_10
REMARK    4  A    between atoms: N_18  and  C_20
REMARK    5  A    between atoms: C_20  and  C_26
REMARK                            x       y       z     vdW  Elec       q    Type
REMARK                         _______ _______ _______ _____ _____    ______ ____
ROOT
ATOM      1  C   UNL     1      32.501 -12.799 -21.433  0.00  0.00    +0.045 C 
ATOM      2  C   UNL     1      33.426 -14.551 -23.430  0.00  0.00    +0.125 C 
ATOM      3  C   UNL     1      32.215 -12.561 -22.789  0.00  0.00    +0.016 C 
ATOM      4  C   UNL     1      33.261 -13.934 -21.099  0.00  0.00    +0.016 C 
ATOM      5  C   UNL     1      32.674 -13.430 -23.779  0.00  0.00    +0.021 C 
ATOM      6  C   UNL     1      33.719 -14.803 -22.089  0.00  0.00    +0.021 C 
ENDROOT
BRANCH   2   7
ATOM      7  S   UNL     1      34.001 -15.638 -24.668  0.00  0.00    +0.075 S 
ATOM      8  O   UNL     1      34.458 -14.830 -25.793  0.00  0.00    -0.150 OA
ATOM      9  O   UNL     1      32.985 -16.657 -24.903  0.00  0.00    -0.150 OA
BRANCH   7  10
ATOM     10  N   UNL     1      35.382 -16.360 -23.933  0.00  0.00    -0.199 N 
ATOM     11  H   UNL     1      36.273 -15.953 -24.022  0.00  0.00    +0.175 HD
ATOM     12  N   UNL     1      34.843 -18.656 -23.907  0.00  0.00    -0.228 NA
ATOM     13  C   UNL     1      35.193 -17.574 -23.185  0.00  0.00    +0.147 C 
ATOM     14  C   UNL     1      35.374 -17.564 -21.816  0.00  0.00    +0.036 C 
ATOM     15  C   UNL     1      35.182 -18.761 -21.134  0.00  0.00    +0.005 C 
ATOM     16  C   UNL     1      34.664 -19.801 -23.209  0.00  0.00    +0.100 C 
ATOM     17  C   UNL     1      34.820 -19.904 -21.837  0.00  0.00    +0.021 C 
ENDBRANCH   7  10
ENDBRANCH   2   7
BRANCH   1  18
ATOM     18  N   UNL     1      32.044 -11.935 -20.448  0.00  0.00    -0.328 N 
ATOM     19  H   UNL     1      32.434 -12.011 -19.547  0.00  0.00    +0.147 HD
BRANCH  18  20
ATOM     20  C   UNL     1      31.029 -10.935 -20.666  0.00  0.00    +0.127 C 
BRANCH  20  26
ATOM     21  S   UNL     1      31.108  -9.062 -23.749  0.00  0.00    -0.104 S 
ATOM     22  O   UNL     1      31.890 -10.018 -18.009  0.00  0.00    -0.210 OA
ATOM     23  N   UNL     1      32.461  -7.955 -18.927  0.00  0.00    -0.333 NA
ATOM     24  N   UNL     1      31.899  -6.639 -24.229  0.00  0.00    -0.262 NA
ATOM     25  C   UNL     1      31.832  -8.512 -21.086  0.00  0.00    +0.033 C 
ATOM     26  C   UNL     1      31.581  -9.595 -20.353  0.00  0.00    +0.092 C 
ATOM     27  C   UNL     1      32.379  -7.524 -20.143  0.00  0.00    +0.142 C 
ATOM     28  C   UNL     1      31.697  -8.155 -22.436  0.00  0.00    +0.114 C 
ATOM     29  C   UNL     1      31.983  -9.249 -18.956  0.00  0.00    +0.202 C 
ATOM     30  C   UNL     1      32.066  -6.899 -22.893  0.00  0.00    +0.069 C 
ATOM     31  C   UNL     1      32.762  -6.188 -20.673  0.00  0.00    +0.034 C 
ATOM     32  C   UNL     1      32.599  -5.929 -21.986  0.00  0.00    +0.018 C 
ATOM     33  C   UNL     1      31.395  -7.719 -24.788  0.00  0.00    +0.183 C 
ENDBRANCH  20  26
ENDBRANCH  18  20
ENDBRANCH   1  18
TORSDOF 5
ENDMDL
MODEL 7
REMARK VINA RESULT:     -11.0      2.044     10.591
REMARK  Name = 1712
REMARK  5 active torsions:
REMARK  status: ('A' for Active; 'I' for Inactive)
REMARK    1  A    between atoms: C_1  and  N_18
REMARK    2  A    between atoms: C_2  and  S_7
REMARK    3  A    between atoms: S_7  and  N_10
REMARK    4  A    between atoms: N_18  and  C_20
REMARK    5  A    between atoms: C_20  and  C_26
REMARK                            x       y       z     vdW  Elec       q    Type
REMARK                         _______ _______ _______ _____ _____    ______ ____
ROOT
ATOM      1  C   UNL     1      34.445 -21.959 -19.107  0.00  0.00    +0.045 C 
ATOM      2  C   UNL     1      35.505 -19.957 -20.775  0.00  0.00    +0.125 C 
ATOM      3  C   UNL     1      35.835 -21.763 -19.204  0.00  0.00    +0.016 C 
ATOM      4  C   UNL     1      33.599 -21.130 -19.865  0.00  0.00    +0.016 C 
ATOM      5  C   UNL     1      36.360 -20.770 -20.031  0.00  0.00    +0.021 C 
ATOM      6  C   UNL     1      34.124 -20.137 -20.692  0.00  0.00    +0.021 C 
ENDROOT
BRANCH   2   7
ATOM      7  S   UNL     1      36.163 -18.715 -21.811  0.00  0.00    +0.075 S 
ATOM      8  O   UNL     1      36.084 -19.195 -23.187  0.00  0.00    -0.150 OA
ATOM      9  O   UNL     1      37.458 -18.305 -21.284  0.00  0.00    -0.150 OA
BRANCH   7  10
ATOM     10  N   UNL     1      35.032 -17.427 -21.629  0.00  0.00    -0.199 N 
ATOM     11  H   UNL     1      34.654 -17.207 -20.748  0.00  0.00    +0.175 HD
ATOM     12  N   UNL     1      33.942 -17.365 -23.720  0.00  0.00    -0.228 NA
ATOM     13  C   UNL     1      34.658 -16.685 -22.803  0.00  0.00    +0.147 C 
ATOM     14  C   UNL     1      35.038 -15.363 -22.921  0.00  0.00    +0.036 C 
ATOM     15  C   UNL     1      34.654 -14.684 -24.072  0.00  0.00    +0.005 C 
ATOM     16  C   UNL     1      33.587 -16.672 -24.826  0.00  0.00    +0.100 C 
ATOM     17  C   UNL     1      33.914 -15.345 -25.048  0.00  0.00    +0.021 C 
ENDBRANCH   7  10
ENDBRANCH   2   7
BRANCH   1  18
ATOM     18  N   UNL     1      33.922 -22.945 -18.283  0.00  0.00    -0.328 N 
ATOM     19  H   UNL     1      34.382 -23.816 -18.253  0.00  0.00    +0.147 HD
BRANCH  18  20
ATOM     20  C   UNL     1      32.744 -22.770 -17.471  0.00  0.00    +0.127 C 
BRANCH  20  26
ATOM     21  S   UNL     1      29.479 -23.850 -16.379  0.00  0.00    -0.104 S 
ATOM     22  O   UNL     1      35.307 -23.192 -16.094  0.00  0.00    -0.210 OA
ATOM     23  N   UNL     1      34.185 -24.321 -14.394  0.00  0.00    -0.333 NA
ATOM     24  N   UNL     1      28.759 -25.160 -14.259  0.00  0.00    -0.262 NA
ATOM     25  C   UNL     1      32.084 -24.078 -15.340  0.00  0.00    +0.033 C 
ATOM     26  C   UNL     1      32.923 -23.480 -16.182  0.00  0.00    +0.092 C 
ATOM     27  C   UNL     1      32.928 -24.583 -14.245  0.00  0.00    +0.142 C 
ATOM     28  C   UNL     1      30.700 -24.304 -15.285  0.00  0.00    +0.114 C 
ATOM     29  C   UNL     1      34.285 -23.629 -15.583  0.00  0.00    +0.202 C 
ATOM     30  C   UNL     1      30.119 -24.987 -14.229  0.00  0.00    +0.069 C 
ATOM     31  C   UNL     1      32.266 -25.312 -13.130  0.00  0.00    +0.034 C 
ATOM     32  C   UNL     1      30.929 -25.483 -13.158  0.00  0.00    +0.018 C 
ATOM     33  C   UNL     1      28.309 -24.595 -15.359  0.00  0.00    +0.183 C 
ENDBRANCH  20  26
ENDBRANCH  18  20
ENDBRANCH   1  18
TORSDOF 5
ENDMDL
MODEL 8
REMARK VINA RESULT:     -11.0      2.342      9.898
REMARK  Name = 1712
REMARK  5 active torsions:
REMARK  status: ('A' for Active; 'I' for Inactive)
REMARK    1  A    between atoms: C_1  and  N_18
REMARK    2  A    between atoms: C_2  and  S_7
REMARK    3  A    between atoms: S_7  and  N_10
REMARK    4  A    between atoms: N_18  and  C_20
REMARK    5  A    between atoms: C_20  and  C_26
REMARK                            x       y       z     vdW  Elec       q    Type
REMARK                         _______ _______ _______ _____ _____    ______ ____
ROOT
ATOM      1  C   UNL     1      35.357 -19.361 -20.803  0.00  0.00    +0.045 C 
ATOM      2  C   UNL     1      34.822 -17.573 -22.909  0.00  0.00    +0.125 C 
ATOM      3  C   UNL     1      35.648 -17.990 -20.677  0.00  0.00    +0.016 C 
ATOM      4  C   UNL     1      34.793 -19.815 -22.009  0.00  0.00    +0.016 C 
ATOM      5  C   UNL     1      35.383 -17.104 -21.721  0.00  0.00    +0.021 C 
ATOM      6  C   UNL     1      34.528 -18.929 -23.053  0.00  0.00    +0.021 C 
ENDROOT
BRANCH   2   7
ATOM      7  S   UNL     1      34.491 -16.464 -24.216  0.00  0.00    +0.075 S 
ATOM      8  O   UNL     1      33.044 -16.376 -24.369  0.00  0.00    -0.150 OA
ATOM      9  O   UNL     1      35.298 -16.846 -25.368  0.00  0.00    -0.150 OA
BRANCH   7  10
ATOM     10  N   UNL     1      35.055 -14.959 -23.592  0.00  0.00    -0.199 N 
ATOM     11  H   UNL     1      36.018 -14.760 -23.544  0.00  0.00    +0.175 HD
ATOM     12  N   UNL     1      33.381 -14.353 -22.045  0.00  0.00    -0.228 NA
ATOM     13  C   UNL     1      34.078 -14.004 -23.143  0.00  0.00    +0.147 C 
ATOM     14  C   UNL     1      33.913 -12.823 -23.839  0.00  0.00    +0.036 C 
ATOM     15  C   UNL     1      32.957 -11.929 -23.369  0.00  0.00    +0.005 C 
ATOM     16  C   UNL     1      32.460 -13.460 -21.618  0.00  0.00    +0.100 C 
ATOM     17  C   UNL     1      32.213 -12.246 -22.238  0.00  0.00    +0.021 C 
ENDBRANCH   7  10
ENDBRANCH   2   7
BRANCH   1  18
ATOM     18  N   UNL     1      35.620 -20.242 -19.765  0.00  0.00    -0.328 N 
ATOM     19  H   UNL     1      35.941 -19.871 -18.911  0.00  0.00    +0.147 HD
BRANCH  18  20
ATOM     20  C   UNL     1      35.452 -21.671 -19.864  0.00  0.00    +0.127 C 
BRANCH  20  26
ATOM     21  S   UNL     1      37.299 -22.510 -16.880  0.00  0.00    -0.104 S 
ATOM     22  O   UNL     1      32.544 -21.841 -20.259  0.00  0.00    -0.210 OA
ATOM     23  N   UNL     1      32.313 -22.617 -18.076  0.00  0.00    -0.333 NA
ATOM     24  N   UNL     1      36.478 -23.389 -14.582  0.00  0.00    -0.262 NA
ATOM     25  C   UNL     1      34.577 -22.547 -17.594  0.00  0.00    +0.033 C 
ATOM     26  C   UNL     1      34.470 -22.124 -18.851  0.00  0.00    +0.092 C 
ATOM     27  C   UNL     1      33.201 -22.839 -17.164  0.00  0.00    +0.142 C 
ATOM     28  C   UNL     1      35.627 -22.751 -16.684  0.00  0.00    +0.114 C 
ATOM     29  C   UNL     1      33.011 -22.165 -19.177  0.00  0.00    +0.202 C 
ATOM     30  C   UNL     1      35.392 -23.219 -15.401  0.00  0.00    +0.069 C 
ATOM     31  C   UNL     1      32.991 -23.339 -15.779  0.00  0.00    +0.034 C 
ATOM     32  C   UNL     1      34.057 -23.507 -14.971  0.00  0.00    +0.018 C 
ATOM     33  C   UNL     1      37.551 -23.043 -15.263  0.00  0.00    +0.183 C 
ENDBRANCH  20  26
ENDBRANCH  18  20
ENDBRANCH   1  18
TORSDOF 5
ENDMDL
MODEL 9
REMARK VINA RESULT:     -10.9      5.715     12.355
REMARK  Name = 1712
REMARK  5 active torsions:
REMARK  status: ('A' for Active; 'I' for Inactive)
REMARK    1  A    between atoms: C_1  and  N_18
REMARK    2  A    between atoms: C_2  and  S_7
REMARK    3  A    between atoms: S_7  and  N_10
REMARK    4  A    between atoms: N_18  and  C_20
REMARK    5  A    between atoms: C_20  and  C_26
REMARK                            x       y       z     vdW  Elec       q    Type
REMARK                         _______ _______ _______ _____ _____    ______ ____
ROOT
ATOM      1  C   UNL     1      32.909 -12.480 -22.250  0.00  0.00    +0.045 C 
ATOM      2  C   UNL     1      32.254  -9.746 -22.354  0.00  0.00    +0.125 C 
ATOM      3  C   UNL     1      33.486 -11.637 -23.217  0.00  0.00    +0.016 C 
ATOM      4  C   UNL     1      31.995 -11.922 -21.337  0.00  0.00    +0.016 C 
ATOM      5  C   UNL     1      33.162 -10.281 -23.268  0.00  0.00    +0.021 C 
ATOM      6  C   UNL     1      31.671 -10.567 -21.389  0.00  0.00    +0.021 C 
ENDROOT
BRANCH   2   7
ATOM      7  S   UNL     1      31.847  -8.050 -22.419  0.00  0.00    +0.075 S 
ATOM      8  O   UNL     1      31.142  -7.713 -21.188  0.00  0.00    -0.150 OA
ATOM      9  O   UNL     1      31.201  -7.774 -23.697  0.00  0.00    -0.150 OA
BRANCH   7  10
ATOM     10  N   UNL     1      33.391  -7.285 -22.377  0.00  0.00    -0.199 N 
ATOM     11  H   UNL     1      33.988  -7.392 -21.602  0.00  0.00    +0.175 HD
ATOM     12  N   UNL     1      33.073  -5.353 -23.693  0.00  0.00    -0.228 NA
ATOM     13  C   UNL     1      33.780  -6.484 -23.507  0.00  0.00    +0.147 C 
ATOM     14  C   UNL     1      34.821  -6.905 -24.312  0.00  0.00    +0.036 C 
ATOM     15  C   UNL     1      35.163  -6.100 -25.392  0.00  0.00    +0.005 C 
ATOM     16  C   UNL     1      33.434  -4.596 -24.754  0.00  0.00    +0.100 C 
ATOM     17  C   UNL     1      34.462  -4.922 -25.624  0.00  0.00    +0.021 C 
ENDBRANCH   7  10
ENDBRANCH   2   7
BRANCH   1  18
ATOM     18  N   UNL     1      33.232 -13.828 -22.198  0.00  0.00    -0.328 N 
ATOM     19  H   UNL     1      32.582 -14.446 -21.791  0.00  0.00    +0.147 HD
BRANCH  18  20
ATOM     20  C   UNL     1      34.466 -14.377 -22.702  0.00  0.00    +0.127 C 
BRANCH  20  26
ATOM     21  S   UNL     1      35.576 -17.318 -20.932  0.00  0.00    -0.104 S 
ATOM     22  O   UNL     1      33.209 -14.271 -25.358  0.00  0.00    -0.210 OA
ATOM     23  N   UNL     1      33.358 -16.591 -25.499  0.00  0.00    -0.333 NA
ATOM     24  N   UNL     1      35.492 -19.822 -21.606  0.00  0.00    -0.262 NA
ATOM     25  C   UNL     1      34.358 -16.857 -23.426  0.00  0.00    +0.033 C 
ATOM     26  C   UNL     1      34.171 -15.547 -23.564  0.00  0.00    +0.092 C 
ATOM     27  C   UNL     1      33.832 -17.455 -24.664  0.00  0.00    +0.142 C 
ATOM     28  C   UNL     1      34.899 -17.702 -22.445  0.00  0.00    +0.114 C 
ATOM     29  C   UNL     1      33.526 -15.359 -24.899  0.00  0.00    +0.202 C 
ATOM     30  C   UNL     1      34.946 -19.076 -22.618  0.00  0.00    +0.069 C 
ATOM     31  C   UNL     1      33.900 -18.934 -24.811  0.00  0.00    +0.034 C 
ATOM     32  C   UNL     1      34.437 -19.670 -23.817  0.00  0.00    +0.018 C 
ATOM     33  C   UNL     1      35.864 -18.993 -20.653  0.00  0.00    +0.183 C 
ENDBRANCH  20  26
ENDBRANCH  18  20
ENDBRANCH   1  18
TORSDOF 5
ENDMDL
