MODEL 1
REMARK VINA RESULT:     -12.5      0.000      0.000
REMARK  Name = 24941249
REMARK  6 active torsions:
REMARK  status: ('A' for Active; 'I' for Inactive)
REMARK    1  A    between atoms: N_1  and  C_13
REMARK    2  A    between atoms: N_2  and  C_26
REMARK    3  A    between atoms: C_14  and  C_19
REMARK    4  A    between atoms: C_19  and  C_20
REMARK    5  A    between atoms: C_20  and  C_23
REMARK    6  A    between atoms: C_26  and  C_28
REMARK                            x       y       z     vdW  Elec       q    Type
REMARK                         _______ _______ _______ _____ _____    ______ ____
ROOT
ATOM      1  N   UNL     1      33.200 -13.693 -23.047  0.00  0.00    -0.230 N 
ATOM      2  N   UNL     1      35.232 -17.739 -21.208  0.00  0.00    -0.316 N 
ATOM      3  N   UNL     1      33.010 -13.237 -24.298  0.00  0.00    -0.169 NA
ATOM      4  N   UNL     1      35.082 -17.282 -23.539  0.00  0.00    -0.229 NA
ATOM      5  C   UNL     1      33.828 -14.906 -22.982  0.00  0.00    +0.088 A 
ATOM      6  C   UNL     1      34.064 -15.268 -24.303  0.00  0.00    +0.052 A 
ATOM      7  C   UNL     1      33.538 -14.200 -25.059  0.00  0.00    +0.082 A 
ATOM      8  C   UNL     1      34.201 -15.702 -21.905  0.00  0.00    +0.053 C 
ATOM      9  C   UNL     1      34.828 -16.884 -22.269  0.00  0.00    +0.130 C 
ATOM     10  C   UNL     1      34.703 -16.480 -24.564  0.00  0.00    +0.103 C 
ATOM     11  C   UNL     1      33.518 -14.058 -26.525  0.00  0.00    +0.054 C 
ATOM     12  H   UNL     1      35.054 -17.459 -20.282  0.00  0.00    +0.148 HD
ENDROOT
BRANCH   1  13
ATOM     13  C   UNL     1      32.763 -12.930 -21.964  0.00  0.00    +0.082 C 
ATOM     14  C   UNL     1      31.940 -10.841 -21.071  0.00  0.00    -0.020 C 
ATOM     15  C   UNL     1      32.377 -11.603 -22.155  0.00  0.00    +0.015 C 
ATOM     16  C   UNL     1      32.711 -13.495 -20.689  0.00  0.00    +0.019 C 
ATOM     17  C   UNL     1      31.888 -11.406 -19.797  0.00  0.00    -0.004 C 
ATOM     18  C   UNL     1      32.273 -12.733 -19.606  0.00  0.00    +0.001 C 
BRANCH  14  19
ATOM     19  C   UNL     1      31.529  -9.422 -21.275  0.00  0.00    +0.036 C 
BRANCH  19  20
ATOM     20  C   UNL     1      32.724  -8.509 -21.573  0.00  0.00    +0.089 C 
BRANCH  20  23
ATOM     21  O   UNL     1      32.656  -6.170 -20.931  0.00  0.00    -0.275 OA
ATOM     22  N   UNL     1      33.136  -7.747 -19.328  0.00  0.00    -0.329 N 
ATOM     23  C   UNL     1      32.827  -7.342 -20.609  0.00  0.00    +0.220 C 
ATOM     24  H   UNL     1      33.231  -7.080 -18.611  0.00  0.00    +0.145 HD
ATOM     25  H   UNL     1      33.263  -8.703 -19.132  0.00  0.00    +0.145 HD
ENDBRANCH  20  23
ENDBRANCH  19  20
ENDBRANCH  14  19
ENDBRANCH   1  13
BRANCH   2  26
ATOM     26  C   UNL     1      35.886 -18.985 -21.434  0.00  0.00    +0.093 C 
ATOM     27  C   UNL     1      37.381 -18.830 -21.162  0.00  0.00    +0.026 C 
BRANCH  26  28
ATOM     28  C   UNL     1      35.243 -20.071 -20.599  0.00  0.00    -0.005 C 
ATOM     29  C   UNL     1      33.853 -20.179 -20.546  0.00  0.00    -0.003 C 
ATOM     30  C   UNL     1      36.039 -20.963 -19.883  0.00  0.00    -0.003 C 
ATOM     31  C   UNL     1      33.260 -21.180 -19.776  0.00  0.00    -0.000 C 
ATOM     32  C   UNL     1      35.447 -21.964 -19.113  0.00  0.00    -0.000 C 
ATOM     33  C   UNL     1      34.057 -22.073 -19.060  0.00  0.00    -0.000 C 
ENDBRANCH  26  28
ENDBRANCH   2  26
TORSDOF 6
ENDMDL
MODEL 2
REMARK VINA RESULT:     -12.2      8.128     13.438
REMARK  Name = 24941249
REMARK  6 active torsions:
REMARK  status: ('A' for Active; 'I' for Inactive)
REMARK    1  A    between atoms: N_1  and  C_13
REMARK    2  A    between atoms: N_2  and  C_26
REMARK    3  A    between atoms: C_14  and  C_19
REMARK    4  A    between atoms: C_19  and  C_20
REMARK    5  A    between atoms: C_20  and  C_23
REMARK    6  A    between atoms: C_26  and  C_28
REMARK                            x       y       z     vdW  Elec       q    Type
REMARK                         _______ _______ _______ _____ _____    ______ ____
ROOT
ATOM      1  N   UNL     1      33.974 -24.410 -13.429  0.00  0.00    -0.230 N 
ATOM      2  N   UNL     1      34.644 -22.525 -17.887  0.00  0.00    -0.316 N 
ATOM      3  N   UNL     1      32.894 -24.861 -12.766  0.00  0.00    -0.169 NA
ATOM      4  N   UNL     1      32.526 -23.224 -17.057  0.00  0.00    -0.229 NA
ATOM      5  C   UNL     1      33.707 -23.956 -14.691  0.00  0.00    +0.088 A 
ATOM      6  C   UNL     1      32.338 -24.128 -14.861  0.00  0.00    +0.052 A 
ATOM      7  C   UNL     1      31.901 -24.688 -13.642  0.00  0.00    +0.082 A 
ATOM      8  C   UNL     1      34.527 -23.421 -15.678  0.00  0.00    +0.053 C 
ATOM      9  C   UNL     1      33.856 -23.077 -16.842  0.00  0.00    +0.130 C 
ATOM     10  C   UNL     1      31.758 -23.749 -16.071  0.00  0.00    +0.103 C 
ATOM     11  C   UNL     1      30.530 -25.075 -13.270  0.00  0.00    +0.054 C 
ATOM     12  H   UNL     1      35.611 -22.413 -17.741  0.00  0.00    +0.148 HD
ENDROOT
BRANCH   1  13
ATOM     13  C   UNL     1      35.223 -24.439 -12.809  0.00  0.00    +0.082 C 
ATOM     14  C   UNL     1      37.423 -25.413 -12.578  0.00  0.00    -0.020 C 
ATOM     15  C   UNL     1      36.173 -25.384 -13.198  0.00  0.00    +0.015 C 
ATOM     16  C   UNL     1      35.523 -23.523 -11.801  0.00  0.00    +0.019 C 
ATOM     17  C   UNL     1      37.722 -24.497 -11.570  0.00  0.00    -0.004 C 
ATOM     18  C   UNL     1      36.773 -23.551 -11.182  0.00  0.00    +0.001 C 
BRANCH  14  19
ATOM     19  C   UNL     1      38.438 -26.424 -12.993  0.00  0.00    +0.036 C 
BRANCH  19  20
ATOM     20  C   UNL     1      39.775 -25.779 -13.378  0.00  0.00    +0.089 C 
BRANCH  20  23
ATOM     21  O   UNL     1      40.611 -26.334 -15.587  0.00  0.00    -0.275 OA
ATOM     22  N   UNL     1      39.223 -24.516 -15.350  0.00  0.00    -0.329 N 
ATOM     23  C   UNL     1      39.931 -25.600 -14.876  0.00  0.00    +0.220 C 
ATOM     24  H   UNL     1      39.246 -24.295 -16.308  0.00  0.00    +0.145 HD
ATOM     25  H   UNL     1      38.696 -23.963 -14.729  0.00  0.00    +0.145 HD
ENDBRANCH  20  23
ENDBRANCH  19  20
ENDBRANCH  14  19
ENDBRANCH   1  13
BRANCH   2  26
ATOM     26  C   UNL     1      34.090 -22.128 -19.138  0.00  0.00    +0.093 C 
ATOM     27  C   UNL     1      32.653 -21.652 -18.928  0.00  0.00    +0.026 C 
BRANCH  26  28
ATOM     28  C   UNL     1      34.968 -21.083 -19.791  0.00  0.00    -0.005 C 
ATOM     29  C   UNL     1      34.417 -20.171 -20.692  0.00  0.00    -0.003 C 
ATOM     30  C   UNL     1      36.330 -21.031 -19.493  0.00  0.00    -0.003 C 
ATOM     31  C   UNL     1      35.227 -19.209 -21.294  0.00  0.00    -0.000 C 
ATOM     32  C   UNL     1      37.140 -20.069 -20.095  0.00  0.00    -0.000 C 
ATOM     33  C   UNL     1      36.588 -19.157 -20.995  0.00  0.00    -0.000 C 
ENDBRANCH  26  28
ENDBRANCH   2  26
TORSDOF 6
ENDMDL
MODEL 3
REMARK VINA RESULT:     -10.9      7.380     11.953
REMARK  Name = 24941249
REMARK  6 active torsions:
REMARK  status: ('A' for Active; 'I' for Inactive)
REMARK    1  A    between atoms: N_1  and  C_13
REMARK    2  A    between atoms: N_2  and  C_26
REMARK    3  A    between atoms: C_14  and  C_19
REMARK    4  A    between atoms: C_19  and  C_20
REMARK    5  A    between atoms: C_20  and  C_23
REMARK    6  A    between atoms: C_26  and  C_28
REMARK                            x       y       z     vdW  Elec       q    Type
REMARK                         _______ _______ _______ _____ _____    ______ ____
ROOT
ATOM      1  N   UNL     1      33.053 -24.184 -14.384  0.00  0.00    -0.230 N 
ATOM      2  N   UNL     1      34.944 -22.090 -18.374  0.00  0.00    -0.316 N 
ATOM      3  N   UNL     1      33.572 -24.568 -13.205  0.00  0.00    -0.169 NA
ATOM      4  N   UNL     1      36.220 -22.628 -16.439  0.00  0.00    -0.229 NA
ATOM      5  C   UNL     1      33.961 -23.625 -15.240  0.00  0.00    +0.088 A 
ATOM      6  C   UNL     1      35.171 -23.648 -14.558  0.00  0.00    +0.052 A 
ATOM      7  C   UNL     1      34.862 -24.240 -13.315  0.00  0.00    +0.082 A 
ATOM      8  C   UNL     1      33.832 -23.112 -16.526  0.00  0.00    +0.053 C 
ATOM      9  C   UNL     1      35.015 -22.628 -17.061  0.00  0.00    +0.130 C 
ATOM     10  C   UNL     1      36.307 -23.137 -15.185  0.00  0.00    +0.103 C 
ATOM     11  C   UNL     1      35.778 -24.512 -12.194  0.00  0.00    +0.054 C 
ATOM     12  H   UNL     1      34.075 -22.086 -18.836  0.00  0.00    +0.148 HD
ENDROOT
BRANCH   1  13
ATOM     13  C   UNL     1      31.693 -24.375 -14.632  0.00  0.00    +0.082 C 
ATOM     14  C   UNL     1      29.598 -23.576 -15.532  0.00  0.00    -0.020 C 
ATOM     15  C   UNL     1      30.958 -23.385 -15.284  0.00  0.00    +0.015 C 
ATOM     16  C   UNL     1      31.070 -25.556 -14.229  0.00  0.00    +0.019 C 
ATOM     17  C   UNL     1      28.975 -24.757 -15.129  0.00  0.00    -0.004 C 
ATOM     18  C   UNL     1      29.711 -25.747 -14.478  0.00  0.00    +0.001 C 
BRANCH  14  19
ATOM     19  C   UNL     1      28.811 -22.518 -16.227  0.00  0.00    +0.036 C 
BRANCH  19  20
ATOM     20  C   UNL     1      27.498 -23.057 -16.808  0.00  0.00    +0.089 C 
BRANCH  20  23
ATOM     21  O   UNL     1      25.723 -22.393 -15.294  0.00  0.00    -0.275 OA
ATOM     22  N   UNL     1      25.893 -21.344 -17.334  0.00  0.00    -0.329 N 
ATOM     23  C   UNL     1      26.288 -22.252 -16.375  0.00  0.00    +0.220 C 
ATOM     24  H   UNL     1      25.117 -20.762 -17.170  0.00  0.00    +0.145 HD
ATOM     25  H   UNL     1      26.387 -21.279 -18.183  0.00  0.00    +0.145 HD
ENDBRANCH  20  23
ENDBRANCH  19  20
ENDBRANCH  14  19
ENDBRANCH   1  13
BRANCH   2  26
ATOM     26  C   UNL     1      36.080 -21.556 -19.048  0.00  0.00    +0.093 C 
ATOM     27  C   UNL     1      36.900 -22.700 -19.644  0.00  0.00    +0.026 C 
BRANCH  26  28
ATOM     28  C   UNL     1      35.646 -20.539 -20.081  0.00  0.00    -0.005 C 
ATOM     29  C   UNL     1      36.554 -19.591 -20.552  0.00  0.00    -0.003 C 
ATOM     30  C   UNL     1      34.337 -20.550 -20.562  0.00  0.00    -0.003 C 
ATOM     31  C   UNL     1      36.154 -18.654 -21.504  0.00  0.00    -0.000 C 
ATOM     32  C   UNL     1      33.936 -19.612 -21.514  0.00  0.00    -0.000 C 
ATOM     33  C   UNL     1      34.845 -18.664 -21.985  0.00  0.00    -0.000 C 
ENDBRANCH  26  28
ENDBRANCH   2  26
TORSDOF 6
ENDMDL
MODEL 4
REMARK VINA RESULT:      -9.7      4.316     10.797
REMARK  Name = 24941249
REMARK  6 active torsions:
REMARK  status: ('A' for Active; 'I' for Inactive)
REMARK    1  A    between atoms: N_1  and  C_13
REMARK    2  A    between atoms: N_2  and  C_26
REMARK    3  A    between atoms: C_14  and  C_19
REMARK    4  A    between atoms: C_19  and  C_20
REMARK    5  A    between atoms: C_20  and  C_23
REMARK    6  A    between atoms: C_26  and  C_28
REMARK                            x       y       z     vdW  Elec       q    Type
REMARK                         _______ _______ _______ _____ _____    ______ ____
ROOT
ATOM      1  N   UNL     1      32.420 -11.593 -21.671  0.00  0.00    -0.230 N 
ATOM      2  N   UNL     1      33.140  -7.717 -24.557  0.00  0.00    -0.316 N 
ATOM      3  N   UNL     1      31.859 -11.755 -20.459  0.00  0.00    -0.169 NA
ATOM      4  N   UNL     1      32.083  -7.596 -22.429  0.00  0.00    -0.229 NA
ATOM      5  C   UNL     1      32.412 -10.303 -22.123  0.00  0.00    +0.088 A 
ATOM      6  C   UNL     1      31.793  -9.566 -21.121  0.00  0.00    +0.052 A 
ATOM      7  C   UNL     1      31.479 -10.519 -20.129  0.00  0.00    +0.082 A 
ATOM      8  C   UNL     1      32.883  -9.728 -23.298  0.00  0.00    +0.053 C 
ATOM      9  C   UNL     1      32.679  -8.359 -23.377  0.00  0.00    +0.130 C 
ATOM     10  C   UNL     1      31.635  -8.192 -21.295  0.00  0.00    +0.103 C 
ATOM     11  C   UNL     1      30.809 -10.286 -18.838  0.00  0.00    +0.054 C 
ATOM     12  H   UNL     1      33.576  -8.261 -25.252  0.00  0.00    +0.148 HD
ENDROOT
BRANCH   1  13
ATOM     13  C   UNL     1      32.941 -12.701 -22.341  0.00  0.00    +0.082 C 
ATOM     14  C   UNL     1      34.105 -14.817 -22.296  0.00  0.00    -0.020 C 
ATOM     15  C   UNL     1      33.584 -13.710 -21.625  0.00  0.00    +0.015 C 
ATOM     16  C   UNL     1      32.817 -12.798 -23.727  0.00  0.00    +0.019 C 
ATOM     17  C   UNL     1      33.981 -14.915 -23.682  0.00  0.00    -0.004 C 
ATOM     18  C   UNL     1      33.337 -13.906 -24.398  0.00  0.00    +0.001 C 
BRANCH  14  19
ATOM     19  C   UNL     1      34.794 -15.896 -21.531  0.00  0.00    +0.036 C 
BRANCH  19  20
ATOM     20  C   UNL     1      35.182 -17.082 -22.422  0.00  0.00    +0.089 C 
BRANCH  20  23
ATOM     21  O   UNL     1      35.100 -18.847 -20.759  0.00  0.00    -0.275 OA
ATOM     22  N   UNL     1      37.013 -18.587 -22.009  0.00  0.00    -0.329 N 
ATOM     23  C   UNL     1      35.728 -18.257 -21.633  0.00  0.00    +0.220 C 
ATOM     24  H   UNL     1      37.477 -19.334 -21.568  0.00  0.00    +0.145 HD
ATOM     25  H   UNL     1      37.465 -18.075 -22.717  0.00  0.00    +0.145 HD
ENDBRANCH  20  23
ENDBRANCH  19  20
ENDBRANCH  14  19
ENDBRANCH   1  13
BRANCH   2  26
ATOM     26  C   UNL     1      32.996  -6.316 -24.775  0.00  0.00    +0.093 C 
ATOM     27  C   UNL     1      33.805  -5.554 -23.726  0.00  0.00    +0.026 C 
BRANCH  26  28
ATOM     28  C   UNL     1      33.388  -5.964 -26.193  0.00  0.00    -0.005 C 
ATOM     29  C   UNL     1      33.019  -4.732 -26.734  0.00  0.00    -0.003 C 
ATOM     30  C   UNL     1      34.118  -6.872 -26.961  0.00  0.00    -0.003 C 
ATOM     31  C   UNL     1      33.380  -4.408 -28.042  0.00  0.00    -0.000 C 
ATOM     32  C   UNL     1      34.479  -6.548 -28.268  0.00  0.00    -0.000 C 
ATOM     33  C   UNL     1      34.110  -5.316 -28.809  0.00  0.00    -0.000 C 
ENDBRANCH  26  28
ENDBRANCH   2  26
TORSDOF 6
ENDMDL
