MODEL 1
REMARK VINA RESULT:     -10.2      0.000      0.000
REMARK  Name = 448062
REMARK  5 active torsions:
REMARK  status: ('A' for Active; 'I' for Inactive)
REMARK    1  A    between atoms: N_1  and  C_25
REMARK    2  A    between atoms: C_4  and  O_14
REMARK    3  A    between atoms: O_14  and  C_17
REMARK    4  A    between atoms: C_25  and  C_26
REMARK    5  A    between atoms: C_34  and  C_38
REMARK                            x       y       z     vdW  Elec       q    Type
REMARK                         _______ _______ _______ _____ _____    ______ ____
ROOT
ATOM      1  N   UNL     1      33.629  -9.305 -22.778  0.00  0.00    -0.323 N 
ATOM      2  C   UNL     1      33.080 -10.566 -22.744  0.00  0.00    +0.063 A 
ATOM      3  C   UNL     1      32.244 -10.622 -21.629  0.00  0.00    +0.017 A 
ATOM      4  C   UNL     1      32.564 -12.828 -23.328  0.00  0.00    +0.140 C 
ATOM      5  C   UNL     1      33.177  -8.546 -21.725  0.00  0.00    +0.060 A 
ATOM      6  C   UNL     1      32.305  -9.345 -20.984  0.00  0.00    +0.017 A 
ATOM      7  C   UNL     1      33.261 -11.651 -23.611  0.00  0.00    +0.054 C 
ATOM      8  C   UNL     1      31.553 -11.823 -21.365  0.00  0.00    +0.005 C 
ATOM      9  C   UNL     1      31.722 -12.916 -22.223  0.00  0.00    +0.037 C 
ATOM     10  C   UNL     1      33.472  -7.224 -21.376  0.00  0.00    +0.017 C 
ATOM     11  C   UNL     1      31.697  -8.795 -19.837  0.00  0.00    +0.001 C 
ATOM     12  C   UNL     1      32.857  -6.702 -20.235  0.00  0.00    +0.001 C 
ATOM     13  C   UNL     1      31.982  -7.475 -19.475  0.00  0.00    +0.000 C 
ENDROOT
BRANCH   4  14
ATOM     14  O   UNL     1      32.713 -13.908 -24.148  0.00  0.00    -0.479 OA
BRANCH  14  17
ATOM     15  N   UNL     1      34.918 -17.256 -23.067  0.00  0.00    -0.297 N 
ATOM     16  N   UNL     1      34.916 -19.585 -23.349  0.00  0.00    -0.289 NA
ATOM     17  C   UNL     1      33.853 -14.731 -23.930  0.00  0.00    +0.169 C 
ATOM     18  C   UNL     1      33.765 -15.981 -24.807  0.00  0.00    +0.065 C 
ATOM     19  C   UNL     1      33.907 -15.116 -22.451  0.00  0.00    +0.065 C 
ATOM     20  C   UNL     1      34.897 -16.955 -24.498  0.00  0.00    +0.096 C 
ATOM     21  C   UNL     1      35.037 -16.103 -22.176  0.00  0.00    +0.096 C 
ATOM     22  C   UNL     1      34.925 -18.526 -22.602  0.00  0.00    +0.100 C 
ATOM     23  C   UNL     1      34.947 -18.710 -21.105  0.00  0.00    +0.068 C 
ATOM     24  H   UNL     1      34.903 -19.497 -24.329  0.00  0.00    +0.188 HD
ENDBRANCH  14  17
ENDBRANCH   4  14
BRANCH   1  25
ATOM     25  C   UNL     1      34.557  -8.839 -23.790  0.00  0.00    +0.133 C 
BRANCH  25  26
ATOM     26  C   UNL     1      34.056  -7.589 -24.460  0.00  0.00    +0.000 C 
ATOM     27  C   UNL     1      34.965  -6.710 -25.033  0.00  0.00    -0.002 C 
ATOM     28  C   UNL     1      32.696  -7.331 -24.496  0.00  0.00    -0.002 C 
ATOM     29  C   UNL     1      34.514  -5.538 -25.663  0.00  0.00    -0.000 C 
ATOM     30  C   UNL     1      33.126  -5.265 -25.705  0.00  0.00    -0.000 C 
ATOM     31  C   UNL     1      32.230  -6.172 -25.116  0.00  0.00    -0.000 C 
ATOM     32  C   UNL     1      35.410  -4.631 -26.251  0.00  0.00    +0.003 C 
ATOM     33  C   UNL     1      32.675  -4.093 -26.334  0.00  0.00    +0.000 C 
ATOM     34  C   UNL     1      34.945  -3.471 -26.872  0.00  0.00    +0.031 C 
ATOM     35  C   UNL     1      33.580  -3.204 -26.913  0.00  0.00    +0.003 C 
BRANCH  34  38
ATOM     36  N   UNL     1      37.192  -2.425 -27.010  0.00  0.00    -0.343 N 
ATOM     37  N   UNL     1      35.503  -1.787 -28.492  0.00  0.00    -0.285 NA
ATOM     38  C   UNL     1      35.885  -2.543 -27.478  0.00  0.00    +0.117 C 
ATOM     39  H   UNL     1      37.813  -1.790 -27.435  0.00  0.00    +0.144 HD
ATOM     40  H   UNL     1      37.495  -2.977 -26.253  0.00  0.00    +0.144 HD
ATOM     41  H   UNL     1      36.138  -1.158 -28.905  0.00  0.00    +0.188 HD
ENDBRANCH  34  38
ENDBRANCH  25  26
ENDBRANCH   1  25
TORSDOF 5
ENDMDL
MODEL 2
REMARK VINA RESULT:     -10.1      3.626      7.502
REMARK  Name = 448062
REMARK  5 active torsions:
REMARK  status: ('A' for Active; 'I' for Inactive)
REMARK    1  A    between atoms: N_1  and  C_25
REMARK    2  A    between atoms: C_4  and  O_14
REMARK    3  A    between atoms: O_14  and  C_17
REMARK    4  A    between atoms: C_25  and  C_26
REMARK    5  A    between atoms: C_34  and  C_38
REMARK                            x       y       z     vdW  Elec       q    Type
REMARK                         _______ _______ _______ _____ _____    ______ ____
ROOT
ATOM      1  N   UNL     1      34.532 -15.444 -22.137  0.00  0.00    -0.323 N 
ATOM      2  C   UNL     1      34.878 -16.774 -22.095  0.00  0.00    +0.063 A 
ATOM      3  C   UNL     1      34.714 -17.284 -23.383  0.00  0.00    +0.017 A 
ATOM      4  C   UNL     1      35.606 -18.900 -21.274  0.00  0.00    +0.140 C 
ATOM      5  C   UNL     1      34.149 -15.078 -23.406  0.00  0.00    +0.060 A 
ATOM      6  C   UNL     1      34.252 -16.212 -24.212  0.00  0.00    +0.017 A 
ATOM      7  C   UNL     1      35.322 -17.556 -21.022  0.00  0.00    +0.054 C 
ATOM      8  C   UNL     1      35.006 -18.645 -23.611  0.00  0.00    +0.005 C 
ATOM      9  C   UNL     1      35.451 -19.439 -22.548  0.00  0.00    +0.037 C 
ATOM     10  C   UNL     1      33.723 -13.838 -23.895  0.00  0.00    +0.017 C 
ATOM     11  C   UNL     1      33.912 -16.103 -25.577  0.00  0.00    +0.001 C 
ATOM     12  C   UNL     1      33.393 -13.756 -25.251  0.00  0.00    +0.001 C 
ATOM     13  C   UNL     1      33.485 -14.871 -26.081  0.00  0.00    +0.000 C 
ENDROOT
BRANCH   4  14
ATOM     14  O   UNL     1      36.041 -19.695 -20.255  0.00  0.00    -0.479 OA
BRANCH  14  17
ATOM     15  N   UNL     1      33.664 -22.546 -18.392  0.00  0.00    -0.297 N 
ATOM     16  N   UNL     1      31.615 -22.729 -17.264  0.00  0.00    -0.289 NA
ATOM     17  C   UNL     1      35.353 -20.926 -20.058  0.00  0.00    +0.169 C 
ATOM     18  C   UNL     1      33.850 -20.668 -19.948  0.00  0.00    +0.065 C 
ATOM     19  C   UNL     1      35.880 -21.585 -18.784  0.00  0.00    +0.065 C 
ATOM     20  C   UNL     1      33.094 -21.945 -19.596  0.00  0.00    +0.096 C 
ATOM     21  C   UNL     1      35.094 -22.850 -18.448  0.00  0.00    +0.096 C 
ATOM     22  C   UNL     1      32.900 -22.889 -17.330  0.00  0.00    +0.100 C 
ATOM     23  C   UNL     1      33.603 -23.501 -16.145  0.00  0.00    +0.068 C 
ATOM     24  H   UNL     1      31.128 -22.332 -18.022  0.00  0.00    +0.188 HD
ENDBRANCH  14  17
ENDBRANCH   4  14
BRANCH   1  25
ATOM     25  C   UNL     1      34.568 -14.548 -20.998  0.00  0.00    +0.133 C 
BRANCH  25  26
ATOM     26  C   UNL     1      33.535 -13.460 -21.122  0.00  0.00    +0.000 C 
ATOM     27  C   UNL     1      33.773 -12.386 -21.970  0.00  0.00    -0.002 C 
ATOM     28  C   UNL     1      32.363 -13.545 -20.390  0.00  0.00    -0.002 C 
ATOM     29  C   UNL     1      32.820 -11.363 -22.098  0.00  0.00    -0.000 C 
ATOM     30  C   UNL     1      31.618 -11.439 -21.353  0.00  0.00    -0.000 C 
ATOM     31  C   UNL     1      31.406 -12.537 -20.503  0.00  0.00    -0.000 C 
ATOM     32  C   UNL     1      33.033 -10.265 -22.947  0.00  0.00    +0.003 C 
ATOM     33  C   UNL     1      30.665 -10.415 -21.481  0.00  0.00    +0.000 C 
ATOM     34  C   UNL     1      32.075  -9.257 -23.061  0.00  0.00    +0.031 C 
ATOM     35  C   UNL     1      30.894  -9.332 -22.330  0.00  0.00    +0.003 C 
BRANCH  34  38
ATOM     36  N   UNL     1      33.597  -7.651 -24.189  0.00  0.00    -0.343 N 
ATOM     37  N   UNL     1      31.289  -7.530 -24.536  0.00  0.00    -0.285 NA
ATOM     38  C   UNL     1      32.310  -8.127 -23.946  0.00  0.00    +0.117 C 
ATOM     39  H   UNL     1      33.733  -6.884 -24.791  0.00  0.00    +0.144 HD
ATOM     40  H   UNL     1      34.370  -8.080 -23.756  0.00  0.00    +0.144 HD
ATOM     41  H   UNL     1      31.445  -6.765 -25.136  0.00  0.00    +0.188 HD
ENDBRANCH  34  38
ENDBRANCH  25  26
ENDBRANCH   1  25
TORSDOF 5
ENDMDL
MODEL 3
REMARK VINA RESULT:     -10.1      1.628      2.610
REMARK  Name = 448062
REMARK  5 active torsions:
REMARK  status: ('A' for Active; 'I' for Inactive)
REMARK    1  A    between atoms: N_1  and  C_25
REMARK    2  A    between atoms: C_4  and  O_14
REMARK    3  A    between atoms: O_14  and  C_17
REMARK    4  A    between atoms: C_25  and  C_26
REMARK    5  A    between atoms: C_34  and  C_38
REMARK                            x       y       z     vdW  Elec       q    Type
REMARK                         _______ _______ _______ _____ _____    ______ ____
ROOT
ATOM      1  N   UNL     1      32.072  -7.728 -23.665  0.00  0.00    -0.323 N 
ATOM      2  C   UNL     1      31.935  -8.788 -22.800  0.00  0.00    +0.063 A 
ATOM      3  C   UNL     1      31.715  -8.257 -21.529  0.00  0.00    +0.017 A 
ATOM      4  C   UNL     1      31.813 -11.025 -21.960  0.00  0.00    +0.140 C 
ATOM      5  C   UNL     1      31.948  -6.532 -22.997  0.00  0.00    +0.060 A 
ATOM      6  C   UNL     1      31.723  -6.831 -21.653  0.00  0.00    +0.017 A 
ATOM      7  C   UNL     1      31.990 -10.165 -23.047  0.00  0.00    +0.054 C 
ATOM      8  C   UNL     1      31.541  -9.147 -20.448  0.00  0.00    +0.005 C 
ATOM      9  C   UNL     1      31.591 -10.526 -20.679  0.00  0.00    +0.037 C 
ATOM     10  C   UNL     1      32.017  -5.221 -23.480  0.00  0.00    +0.017 C 
ATOM     11  C   UNL     1      31.559  -5.766 -20.744  0.00  0.00    +0.001 C 
ATOM     12  C   UNL     1      31.851  -4.183 -22.558  0.00  0.00    +0.001 C 
ATOM     13  C   UNL     1      31.625  -4.449 -21.210  0.00  0.00    +0.000 C 
ENDROOT
BRANCH   4  14
ATOM     14  O   UNL     1      31.859 -12.373 -22.159  0.00  0.00    -0.479 OA
BRANCH  14  17
ATOM     15  N   UNL     1      34.725 -15.373 -22.321  0.00  0.00    -0.297 N 
ATOM     16  N   UNL     1      35.197 -17.357 -23.481  0.00  0.00    -0.289 NA
ATOM     17  C   UNL     1      33.148 -12.975 -22.205  0.00  0.00    +0.169 C 
ATOM     18  C   UNL     1      33.302 -13.772 -23.501  0.00  0.00    +0.065 C 
ATOM     19  C   UNL     1      33.307 -13.889 -20.990  0.00  0.00    +0.065 C 
ATOM     20  C   UNL     1      34.616 -14.547 -23.521  0.00  0.00    +0.096 C 
ATOM     21  C   UNL     1      34.622 -14.663 -21.047  0.00  0.00    +0.096 C 
ATOM     22  C   UNL     1      35.003 -16.696 -22.383  0.00  0.00    +0.100 C 
ATOM     23  C   UNL     1      35.090 -17.443 -21.077  0.00  0.00    +0.068 C 
ATOM     24  H   UNL     1      35.147 -16.897 -24.350  0.00  0.00    +0.188 HD
ENDBRANCH  14  17
ENDBRANCH   4  14
BRANCH   1  25
ATOM     25  C   UNL     1      32.311  -7.854 -25.089  0.00  0.00    +0.133 C 
BRANCH  25  26
ATOM     26  C   UNL     1      33.472  -7.004 -25.528  0.00  0.00    +0.000 C 
ATOM     27  C   UNL     1      33.296  -6.082 -26.551  0.00  0.00    -0.002 C 
ATOM     28  C   UNL     1      34.701  -7.152 -24.906  0.00  0.00    -0.002 C 
ATOM     29  C   UNL     1      34.370  -5.280 -26.973  0.00  0.00    -0.000 C 
ATOM     30  C   UNL     1      35.630  -5.425 -26.344  0.00  0.00    -0.000 C 
ATOM     31  C   UNL     1      35.779  -6.366 -25.312  0.00  0.00    -0.000 C 
ATOM     32  C   UNL     1      34.222  -4.340 -28.005  0.00  0.00    +0.003 C 
ATOM     33  C   UNL     1      36.704  -4.623 -26.766  0.00  0.00    +0.000 C 
ATOM     34  C   UNL     1      35.300  -3.553 -28.412  0.00  0.00    +0.031 C 
ATOM     35  C   UNL     1      36.538  -3.695 -27.792  0.00  0.00    +0.003 C 
BRANCH  34  38
ATOM     36  N   UNL     1      33.867  -2.267 -29.980  0.00  0.00    -0.343 N 
ATOM     37  N   UNL     1      36.187  -1.984 -30.000  0.00  0.00    -0.285 NA
ATOM     38  C   UNL     1      35.129  -2.583 -29.481  0.00  0.00    +0.117 C 
ATOM     39  H   UNL     1      33.775  -1.607 -30.705  0.00  0.00    +0.144 HD
ATOM     40  H   UNL     1      33.068  -2.706 -29.609  0.00  0.00    +0.144 HD
ATOM     41  H   UNL     1      36.074  -1.325 -30.724  0.00  0.00    +0.188 HD
ENDBRANCH  34  38
ENDBRANCH  25  26
ENDBRANCH   1  25
TORSDOF 5
ENDMDL
MODEL 4
REMARK VINA RESULT:      -9.9      7.768     15.840
REMARK  Name = 448062
REMARK  5 active torsions:
REMARK  status: ('A' for Active; 'I' for Inactive)
REMARK    1  A    between atoms: N_1  and  C_25
REMARK    2  A    between atoms: C_4  and  O_14
REMARK    3  A    between atoms: O_14  and  C_17
REMARK    4  A    between atoms: C_25  and  C_26
REMARK    5  A    between atoms: C_34  and  C_38
REMARK                            x       y       z     vdW  Elec       q    Type
REMARK                         _______ _______ _______ _____ _____    ______ ____
ROOT
ATOM      1  N   UNL     1      34.776 -23.191 -17.505  0.00  0.00    -0.323 N 
ATOM      2  C   UNL     1      35.151 -22.216 -18.399  0.00  0.00    +0.063 A 
ATOM      3  C   UNL     1      36.354 -21.677 -17.941  0.00  0.00    +0.017 A 
ATOM      4  C   UNL     1      35.139 -20.752 -20.292  0.00  0.00    +0.140 C 
ATOM      5  C   UNL     1      35.693 -23.301 -16.487  0.00  0.00    +0.060 A 
ATOM      6  C   UNL     1      36.697 -22.363 -16.732  0.00  0.00    +0.017 A 
ATOM      7  C   UNL     1      34.520 -21.775 -19.568  0.00  0.00    +0.054 C 
ATOM      8  C   UNL     1      36.958 -20.644 -18.688  0.00  0.00    +0.005 C 
ATOM      9  C   UNL     1      36.340 -20.194 -19.861  0.00  0.00    +0.037 C 
ATOM     10  C   UNL     1      35.709 -24.153 -15.378  0.00  0.00    +0.017 C 
ATOM     11  C   UNL     1      37.771 -22.271 -15.823  0.00  0.00    +0.001 C 
ATOM     12  C   UNL     1      36.784 -24.043 -14.492  0.00  0.00    +0.001 C 
ATOM     13  C   UNL     1      37.801 -23.117 -14.709  0.00  0.00    +0.000 C 
ENDROOT
BRANCH   4  14
ATOM     14  O   UNL     1      34.556 -20.294 -21.436  0.00  0.00    -0.479 OA
BRANCH  14  17
ATOM     15  N   UNL     1      34.729 -16.502 -23.118  0.00  0.00    -0.297 N 
ATOM     16  N   UNL     1      33.916 -14.330 -22.759  0.00  0.00    -0.289 NA
ATOM     17  C   UNL     1      35.123 -19.131 -22.028  0.00  0.00    +0.169 C 
ATOM     18  C   UNL     1      34.872 -17.919 -21.129  0.00  0.00    +0.065 C 
ATOM     19  C   UNL     1      34.489 -18.919 -23.403  0.00  0.00    +0.065 C 
ATOM     20  C   UNL     1      35.340 -16.629 -21.796  0.00  0.00    +0.096 C 
ATOM     21  C   UNL     1      34.963 -17.615 -24.037  0.00  0.00    +0.096 C 
ATOM     22  C   UNL     1      34.072 -15.383 -23.500  0.00  0.00    +0.100 C 
ATOM     23  C   UNL     1      33.483 -15.370 -24.888  0.00  0.00    +0.068 C 
ATOM     24  H   UNL     1      34.289 -14.309 -21.848  0.00  0.00    +0.188 HD
ENDBRANCH  14  17
ENDBRANCH   4  14
BRANCH   1  25
ATOM     25  C   UNL     1      33.577 -23.997 -17.622  0.00  0.00    +0.133 C 
BRANCH  25  26
ATOM     26  C   UNL     1      32.532 -23.576 -16.625  0.00  0.00    +0.000 C 
ATOM     27  C   UNL     1      31.218 -23.410 -17.041  0.00  0.00    -0.002 C 
ATOM     28  C   UNL     1      32.896 -23.358 -15.306  0.00  0.00    -0.002 C 
ATOM     29  C   UNL     1      30.230 -23.017 -16.122  0.00  0.00    -0.000 C 
ATOM     30  C   UNL     1      30.592 -22.792 -14.772  0.00  0.00    -0.000 C 
ATOM     31  C   UNL     1      31.929 -22.967 -14.380  0.00  0.00    -0.000 C 
ATOM     32  C   UNL     1      28.894 -22.841 -16.513  0.00  0.00    +0.003 C 
ATOM     33  C   UNL     1      29.604 -22.398 -13.853  0.00  0.00    +0.000 C 
ATOM     34  C   UNL     1      27.926 -22.450 -15.588  0.00  0.00    +0.031 C 
ATOM     35  C   UNL     1      28.281 -22.229 -14.261  0.00  0.00    +0.003 C 
BRANCH  34  38
ATOM     36  N   UNL     1      26.222 -21.989 -17.334  0.00  0.00    -0.343 N 
ATOM     37  N   UNL     1      25.569 -22.380 -15.124  0.00  0.00    -0.285 NA
ATOM     38  C   UNL     1      26.545 -22.274 -16.009  0.00  0.00    +0.117 C 
ATOM     39  H   UNL     1      25.280 -21.874 -17.597  0.00  0.00    +0.144 HD
ATOM     40  H   UNL     1      26.935 -21.903 -18.007  0.00  0.00    +0.144 HD
ATOM     41  H   UNL     1      24.633 -22.262 -15.407  0.00  0.00    +0.188 HD
ENDBRANCH  34  38
ENDBRANCH  25  26
ENDBRANCH   1  25
TORSDOF 5
ENDMDL
MODEL 5
REMARK VINA RESULT:      -9.9      2.162     10.884
REMARK  Name = 448062
REMARK  5 active torsions:
REMARK  status: ('A' for Active; 'I' for Inactive)
REMARK    1  A    between atoms: N_1  and  C_25
REMARK    2  A    between atoms: C_4  and  O_14
REMARK    3  A    between atoms: O_14  and  C_17
REMARK    4  A    between atoms: C_25  and  C_26
REMARK    5  A    between atoms: C_34  and  C_38
REMARK                            x       y       z     vdW  Elec       q    Type
REMARK                         _______ _______ _______ _____ _____    ______ ____
ROOT
ATOM      1  N   UNL     1      33.317 -12.312 -23.047  0.00  0.00    -0.323 N 
ATOM      2  C   UNL     1      32.697 -11.087 -23.121  0.00  0.00    +0.063 A 
ATOM      3  C   UNL     1      31.933 -10.942 -21.963  0.00  0.00    +0.017 A 
ATOM      4  C   UNL     1      32.010  -8.940 -23.924  0.00  0.00    +0.140 C 
ATOM      5  C   UNL     1      32.981 -12.963 -21.884  0.00  0.00    +0.060 A 
ATOM      6  C   UNL     1      32.112 -12.127 -21.180  0.00  0.00    +0.017 A 
ATOM      7  C   UNL     1      32.755 -10.106 -24.118  0.00  0.00    +0.054 C 
ATOM      8  C   UNL     1      31.188  -9.756 -21.791  0.00  0.00    +0.005 C 
ATOM      9  C   UNL     1      31.237  -8.765 -22.779  0.00  0.00    +0.037 C 
ATOM     10  C   UNL     1      33.378 -14.216 -21.406  0.00  0.00    +0.017 C 
ATOM     11  C   UNL     1      31.614 -12.567 -19.936  0.00  0.00    +0.001 C 
ATOM     12  C   UNL     1      32.871 -14.628 -20.171  0.00  0.00    +0.001 C 
ATOM     13  C   UNL     1      32.002 -13.817 -19.445  0.00  0.00    +0.000 C 
ENDROOT
BRANCH   4  14
ATOM     14  O   UNL     1      32.040  -7.961 -24.872  0.00  0.00    -0.479 OA
BRANCH  14  17
ATOM     15  N   UNL     1      33.817  -4.250 -25.427  0.00  0.00    -0.297 N 
ATOM     16  N   UNL     1      33.319  -2.119 -26.276  0.00  0.00    -0.289 NA
ATOM     17  C   UNL     1      32.794  -6.793 -24.568  0.00  0.00    +0.169 C 
ATOM     18  C   UNL     1      31.898  -5.558 -24.663  0.00  0.00    +0.065 C 
ATOM     19  C   UNL     1      33.958  -6.688 -25.555  0.00  0.00    +0.065 C 
ATOM     20  C   UNL     1      32.702  -4.274 -24.483  0.00  0.00    +0.096 C 
ATOM     21  C   UNL     1      34.733  -5.388 -25.362  0.00  0.00    +0.096 C 
ATOM     22  C   UNL     1      34.044  -3.194 -26.243  0.00  0.00    +0.100 C 
ATOM     23  C   UNL     1      35.225  -3.285 -27.174  0.00  0.00    +0.068 C 
ATOM     24  H   UNL     1      32.541  -2.031 -25.679  0.00  0.00    +0.188 HD
ENDBRANCH  14  17
ENDBRANCH   4  14
BRANCH   1  25
ATOM     25  C   UNL     1      34.208 -12.845 -24.060  0.00  0.00    +0.133 C 
BRANCH  25  26
ATOM     26  C   UNL     1      34.200 -14.349 -24.061  0.00  0.00    +0.000 C 
ATOM     27  C   UNL     1      34.893 -15.037 -23.073  0.00  0.00    -0.002 C 
ATOM     28  C   UNL     1      33.504 -15.028 -25.047  0.00  0.00    -0.002 C 
ATOM     29  C   UNL     1      34.895 -16.442 -23.059  0.00  0.00    -0.000 C 
ATOM     30  C   UNL     1      34.187 -17.145 -24.062  0.00  0.00    -0.000 C 
ATOM     31  C   UNL     1      33.496 -16.423 -25.050  0.00  0.00    -0.000 C 
ATOM     32  C   UNL     1      35.586 -17.164 -22.073  0.00  0.00    +0.003 C 
ATOM     33  C   UNL     1      34.190 -18.550 -24.049  0.00  0.00    +0.000 C 
ATOM     34  C   UNL     1      35.579 -18.559 -22.075  0.00  0.00    +0.031 C 
ATOM     35  C   UNL     1      34.881 -19.250 -23.061  0.00  0.00    +0.003 C 
BRANCH  34  38
ATOM     36  N   UNL     1      35.666 -20.262 -20.270  0.00  0.00    -0.343 N 
ATOM     37  N   UNL     1      37.577 -19.039 -20.829  0.00  0.00    -0.285 NA
ATOM     38  C   UNL     1      36.298 -19.292 -21.045  0.00  0.00    +0.117 C 
ATOM     39  H   UNL     1      36.172 -20.746 -19.578  0.00  0.00    +0.144 HD
ATOM     40  H   UNL     1      34.713 -20.462 -20.413  0.00  0.00    +0.144 HD
ATOM     41  H   UNL     1      38.067 -19.535 -20.133  0.00  0.00    +0.188 HD
ENDBRANCH  34  38
ENDBRANCH  25  26
ENDBRANCH   1  25
TORSDOF 5
ENDMDL
MODEL 6
REMARK VINA RESULT:      -9.7     11.434     16.029
REMARK  Name = 448062
REMARK  5 active torsions:
REMARK  status: ('A' for Active; 'I' for Inactive)
REMARK    1  A    between atoms: N_1  and  C_25
REMARK    2  A    between atoms: C_4  and  O_14
REMARK    3  A    between atoms: O_14  and  C_17
REMARK    4  A    between atoms: C_25  and  C_26
REMARK    5  A    between atoms: C_34  and  C_38
REMARK                            x       y       z     vdW  Elec       q    Type
REMARK                         _______ _______ _______ _____ _____    ______ ____
ROOT
ATOM      1  N   UNL     1      31.908 -23.923 -15.980  0.00  0.00    -0.323 N 
ATOM      2  C   UNL     1      32.490 -23.931 -14.734  0.00  0.00    +0.063 A 
ATOM      3  C   UNL     1      31.553 -23.418 -13.838  0.00  0.00    +0.017 A 
ATOM      4  C   UNL     1      34.092 -24.245 -12.985  0.00  0.00    +0.140 C 
ATOM      5  C   UNL     1      30.629 -23.422 -15.920  0.00  0.00    +0.060 A 
ATOM      6  C   UNL     1      30.377 -23.096 -14.587  0.00  0.00    +0.017 A 
ATOM      7  C   UNL     1      33.766 -24.352 -14.339  0.00  0.00    +0.054 C 
ATOM      8  C   UNL     1      31.907 -23.319 -12.476  0.00  0.00    +0.005 C 
ATOM      9  C   UNL     1      33.178 -23.737 -12.065  0.00  0.00    +0.037 C 
ATOM     10  C   UNL     1      29.686 -23.236 -16.936  0.00  0.00    +0.017 C 
ATOM     11  C   UNL     1      29.117 -22.555 -14.252  0.00  0.00    +0.001 C 
ATOM     12  C   UNL     1      28.446 -22.700 -16.579  0.00  0.00    +0.001 C 
ATOM     13  C   UNL     1      28.164 -22.364 -15.257  0.00  0.00    +0.000 C 
ENDROOT
BRANCH   4  14
ATOM     14  O   UNL     1      35.324 -24.644 -12.559  0.00  0.00    -0.479 OA
BRANCH  14  17
ATOM     15  N   UNL     1      38.942 -25.688 -14.309  0.00  0.00    -0.297 N 
ATOM     16  N   UNL     1      40.894 -26.901 -13.833  0.00  0.00    -0.289 NA
ATOM     17  C   UNL     1      36.233 -25.102 -13.554  0.00  0.00    +0.169 C 
ATOM     18  C   UNL     1      36.949 -26.360 -13.062  0.00  0.00    +0.065 C 
ATOM     19  C   UNL     1      37.242 -23.991 -13.848  0.00  0.00    +0.065 C 
ATOM     20  C   UNL     1      38.032 -26.800 -14.042  0.00  0.00    +0.096 C 
ATOM     21  C   UNL     1      38.322 -24.465 -14.816  0.00  0.00    +0.096 C 
ATOM     22  C   UNL     1      40.284 -25.813 -14.188  0.00  0.00    +0.100 C 
ATOM     23  C   UNL     1      41.119 -24.595 -14.490  0.00  0.00    +0.068 C 
ATOM     24  H   UNL     1      40.375 -27.713 -13.629  0.00  0.00    +0.188 HD
ENDBRANCH  14  17
ENDBRANCH   4  14
BRANCH   1  25
ATOM     25  C   UNL     1      32.555 -24.383 -17.194  0.00  0.00    +0.133 C 
BRANCH  25  26
ATOM     26  C   UNL     1      33.658 -23.451 -17.614  0.00  0.00    +0.000 C 
ATOM     27  C   UNL     1      33.498 -22.672 -18.753  0.00  0.00    -0.002 C 
ATOM     28  C   UNL     1      34.819 -23.382 -16.861  0.00  0.00    -0.002 C 
ATOM     29  C   UNL     1      34.518 -21.796 -19.160  0.00  0.00    -0.000 C 
ATOM     30  C   UNL     1      35.708 -21.719 -18.397  0.00  0.00    -0.000 C 
ATOM     31  C   UNL     1      35.843 -22.519 -17.251  0.00  0.00    -0.000 C 
ATOM     32  C   UNL     1      34.384 -20.997 -20.306  0.00  0.00    +0.003 C 
ATOM     33  C   UNL     1      36.729 -20.843 -18.805  0.00  0.00    +0.000 C 
ATOM     34  C   UNL     1      35.408 -20.133 -20.696  0.00  0.00    +0.031 C 
ATOM     35  C   UNL     1      36.577 -20.057 -19.946  0.00  0.00    +0.003 C 
BRANCH  34  38
ATOM     36  N   UNL     1      36.181 -18.324 -22.211  0.00  0.00    -0.343 N 
ATOM     37  N   UNL     1      34.213 -19.493 -22.680  0.00  0.00    -0.285 NA
ATOM     38  C   UNL     1      35.253 -19.311 -21.886  0.00  0.00    +0.117 C 
ATOM     39  H   UNL     1      36.056 -17.778 -23.021  0.00  0.00    +0.144 HD
ATOM     40  H   UNL     1      36.961 -18.171 -21.630  0.00  0.00    +0.144 HD
ATOM     41  H   UNL     1      34.106 -18.938 -23.487  0.00  0.00    +0.188 HD
ENDBRANCH  34  38
ENDBRANCH  25  26
ENDBRANCH   1  25
TORSDOF 5
ENDMDL
MODEL 7
REMARK VINA RESULT:      -9.7      3.091      9.321
REMARK  Name = 448062
REMARK  5 active torsions:
REMARK  status: ('A' for Active; 'I' for Inactive)
REMARK    1  A    between atoms: N_1  and  C_25
REMARK    2  A    between atoms: C_4  and  O_14
REMARK    3  A    between atoms: O_14  and  C_17
REMARK    4  A    between atoms: C_25  and  C_26
REMARK    5  A    between atoms: C_34  and  C_38
REMARK                            x       y       z     vdW  Elec       q    Type
REMARK                         _______ _______ _______ _____ _____    ______ ____
ROOT
ATOM      1  N   UNL     1      33.745  -6.041 -23.619  0.00  0.00    -0.323 N 
ATOM      2  C   UNL     1      33.849  -5.841 -24.975  0.00  0.00    +0.063 A 
ATOM      3  C   UNL     1      32.955  -4.824 -25.311  0.00  0.00    +0.017 A 
ATOM      4  C   UNL     1      34.557  -6.062 -27.250  0.00  0.00    +0.140 C 
ATOM      5  C   UNL     1      32.815  -5.191 -23.068  0.00  0.00    +0.060 A 
ATOM      6  C   UNL     1      32.301  -4.414 -24.106  0.00  0.00    +0.017 A 
ATOM      7  C   UNL     1      34.662  -6.478 -25.920  0.00  0.00    +0.054 C 
ATOM      8  C   UNL     1      32.867  -4.424 -26.661  0.00  0.00    +0.005 C 
ATOM      9  C   UNL     1      33.674  -5.050 -27.618  0.00  0.00    +0.037 C 
ATOM     10  C   UNL     1      32.396  -5.054 -21.740  0.00  0.00    +0.017 C 
ATOM     11  C   UNL     1      31.317  -3.450 -23.803  0.00  0.00    +0.001 C 
ATOM     12  C   UNL     1      31.420  -4.092 -21.466  0.00  0.00    +0.001 C 
ATOM     13  C   UNL     1      30.887  -3.300 -22.480  0.00  0.00    +0.000 C 
ENDROOT
BRANCH   4  14
ATOM     14  O   UNL     1      35.332  -6.658 -28.201  0.00  0.00    -0.479 OA
BRANCH  14  17
ATOM     15  N   UNL     1      39.279  -5.398 -28.467  0.00  0.00    -0.297 N 
ATOM     16  N   UNL     1      41.452  -6.278 -28.557  0.00  0.00    -0.289 NA
ATOM     17  C   UNL     1      36.462  -5.927 -28.662  0.00  0.00    +0.169 C 
ATOM     18  C   UNL     1      37.501  -6.890 -29.238  0.00  0.00    +0.065 C 
ATOM     19  C   UNL     1      37.051  -5.140 -27.492  0.00  0.00    +0.065 C 
ATOM     20  C   UNL     1      38.786  -6.158 -29.614  0.00  0.00    +0.096 C 
ATOM     21  C   UNL     1      38.343  -4.433 -27.892  0.00  0.00    +0.096 C 
ATOM     22  C   UNL     1      40.553  -5.509 -28.027  0.00  0.00    +0.100 C 
ATOM     23  C   UNL     1      40.945  -4.674 -26.834  0.00  0.00    +0.068 C 
ATOM     24  H   UNL     1      41.226  -6.835 -29.337  0.00  0.00    +0.188 HD
ENDBRANCH  14  17
ENDBRANCH   4  14
BRANCH   1  25
ATOM     25  C   UNL     1      34.514  -7.016 -22.870  0.00  0.00    +0.133 C 
BRANCH  25  26
ATOM     26  C   UNL     1      33.723  -8.274 -22.633  0.00  0.00    +0.000 C 
ATOM     27  C   UNL     1      34.123  -9.457 -23.241  0.00  0.00    -0.002 C 
ATOM     28  C   UNL     1      32.608  -8.236 -21.812  0.00  0.00    -0.002 C 
ATOM     29  C   UNL     1      33.396 -10.640 -23.030  0.00  0.00    -0.000 C 
ATOM     30  C   UNL     1      32.255 -10.612 -22.193  0.00  0.00    -0.000 C 
ATOM     31  C   UNL     1      31.874  -9.401 -21.592  0.00  0.00    -0.000 C 
ATOM     32  C   UNL     1      33.776 -11.851 -23.631  0.00  0.00    +0.003 C 
ATOM     33  C   UNL     1      31.527 -11.795 -21.983  0.00  0.00    +0.000 C 
ATOM     34  C   UNL     1      33.042 -13.017 -23.411  0.00  0.00    +0.031 C 
ATOM     35  C   UNL     1      31.920 -12.988 -22.588  0.00  0.00    +0.003 C 
BRANCH  34  38
ATOM     36  N   UNL     1      34.389 -15.102 -23.447  0.00  0.00    -0.343 N 
ATOM     37  N   UNL     1      32.926 -14.615 -25.202  0.00  0.00    -0.285 NA
ATOM     38  C   UNL     1      33.449 -14.263 -24.041  0.00  0.00    +0.117 C 
ATOM     39  H   UNL     1      34.651 -15.941 -23.890  0.00  0.00    +0.144 HD
ATOM     40  H   UNL     1      34.793 -14.855 -22.583  0.00  0.00    +0.144 HD
ATOM     41  H   UNL     1      33.200 -15.459 -25.630  0.00  0.00    +0.188 HD
ENDBRANCH  34  38
ENDBRANCH  25  26
ENDBRANCH   1  25
TORSDOF 5
ENDMDL
MODEL 8
REMARK VINA RESULT:      -9.6     11.024     16.036
REMARK  Name = 448062
REMARK  5 active torsions:
REMARK  status: ('A' for Active; 'I' for Inactive)
REMARK    1  A    between atoms: N_1  and  C_25
REMARK    2  A    between atoms: C_4  and  O_14
REMARK    3  A    between atoms: O_14  and  C_17
REMARK    4  A    between atoms: C_25  and  C_26
REMARK    5  A    between atoms: C_34  and  C_38
REMARK                            x       y       z     vdW  Elec       q    Type
REMARK                         _______ _______ _______ _____ _____    ______ ____
ROOT
ATOM      1  N   UNL     1      37.283 -23.475 -15.268  0.00  0.00    -0.323 N 
ATOM      2  C   UNL     1      36.033 -23.692 -14.738  0.00  0.00    +0.063 A 
ATOM      3  C   UNL     1      36.106 -24.852 -13.968  0.00  0.00    +0.017 A 
ATOM      4  C   UNL     1      33.714 -23.414 -14.218  0.00  0.00    +0.140 C 
ATOM      5  C   UNL     1      38.161 -24.455 -14.868  0.00  0.00    +0.060 A 
ATOM      6  C   UNL     1      37.451 -25.335 -14.051  0.00  0.00    +0.017 A 
ATOM      7  C   UNL     1      34.853 -22.952 -14.882  0.00  0.00    +0.054 C 
ATOM      8  C   UNL     1      34.942 -25.299 -13.308  0.00  0.00    +0.005 C 
ATOM      9  C   UNL     1      33.755 -24.569 -13.441  0.00  0.00    +0.037 C 
ATOM     10  C   UNL     1      39.517 -24.625 -15.167  0.00  0.00    +0.017 C 
ATOM     11  C   UNL     1      38.132 -26.443 -13.503  0.00  0.00    +0.001 C 
ATOM     12  C   UNL     1      40.168 -25.730 -14.612  0.00  0.00    +0.001 C 
ATOM     13  C   UNL     1      39.488 -26.627 -13.792  0.00  0.00    +0.000 C 
ENDROOT
BRANCH   4  14
ATOM     14  O   UNL     1      32.545 -22.721 -14.332  0.00  0.00    -0.479 OA
BRANCH  14  17
ATOM     15  N   UNL     1      28.758 -23.433 -15.880  0.00  0.00    -0.297 N 
ATOM     16  N   UNL     1      27.408 -22.820 -17.699  0.00  0.00    -0.289 NA
ATOM     17  C   UNL     1      31.399 -23.455 -14.749  0.00  0.00    +0.169 C 
ATOM     18  C   UNL     1      31.170 -23.251 -16.247  0.00  0.00    +0.065 C 
ATOM     19  C   UNL     1      30.188 -22.972 -13.950  0.00  0.00    +0.065 C 
ATOM     20  C   UNL     1      29.870 -23.908 -16.703  0.00  0.00    +0.096 C 
ATOM     21  C   UNL     1      28.902 -23.632 -14.439  0.00  0.00    +0.096 C 
ATOM     22  C   UNL     1      27.626 -22.931 -16.426  0.00  0.00    +0.100 C 
ATOM     23  C   UNL     1      26.549 -22.473 -15.475  0.00  0.00    +0.068 C 
ATOM     24  H   UNL     1      28.092 -23.110 -18.344  0.00  0.00    +0.188 HD
ENDBRANCH  14  17
ENDBRANCH   4  14
BRANCH   1  25
ATOM     25  C   UNL     1      37.629 -22.362 -16.130  0.00  0.00    +0.133 C 
BRANCH  25  26
ATOM     26  C   UNL     1      36.572 -22.127 -17.175  0.00  0.00    +0.000 C 
ATOM     27  C   UNL     1      36.818 -21.229 -18.205  0.00  0.00    -0.002 C 
ATOM     28  C   UNL     1      35.369 -22.808 -17.094  0.00  0.00    -0.002 C 
ATOM     29  C   UNL     1      35.842 -20.998 -19.189  0.00  0.00    -0.000 C 
ATOM     30  C   UNL     1      34.608 -21.689 -19.115  0.00  0.00    -0.000 C 
ATOM     31  C   UNL     1      34.387 -22.590 -18.061  0.00  0.00    -0.000 C 
ATOM     32  C   UNL     1      36.062 -20.097 -20.242  0.00  0.00    +0.003 C 
ATOM     33  C   UNL     1      33.632 -21.457 -20.098  0.00  0.00    +0.000 C 
ATOM     34  C   UNL     1      35.080 -19.879 -21.210  0.00  0.00    +0.031 C 
ATOM     35  C   UNL     1      33.868 -20.558 -21.138  0.00  0.00    +0.003 C 
BRANCH  34  38
ATOM     36  N   UNL     1      34.454 -18.846 -23.380  0.00  0.00    -0.343 N 
ATOM     37  N   UNL     1      36.392 -18.165 -22.266  0.00  0.00    -0.285 NA
ATOM     38  C   UNL     1      35.324 -18.943 -22.296  0.00  0.00    +0.117 C 
ATOM     39  H   UNL     1      34.639 -18.206 -24.104  0.00  0.00    +0.144 HD
ATOM     40  H   UNL     1      33.655 -19.420 -23.422  0.00  0.00    +0.144 HD
ATOM     41  H   UNL     1      36.560 -17.530 -23.000  0.00  0.00    +0.188 HD
ENDBRANCH  34  38
ENDBRANCH  25  26
ENDBRANCH   1  25
TORSDOF 5
ENDMDL
MODEL 9
REMARK VINA RESULT:      -9.6     11.161     17.165
REMARK  Name = 448062
REMARK  5 active torsions:
REMARK  status: ('A' for Active; 'I' for Inactive)
REMARK    1  A    between atoms: N_1  and  C_25
REMARK    2  A    between atoms: C_4  and  O_14
REMARK    3  A    between atoms: O_14  and  C_17
REMARK    4  A    between atoms: C_25  and  C_26
REMARK    5  A    between atoms: C_34  and  C_38
REMARK                            x       y       z     vdW  Elec       q    Type
REMARK                         _______ _______ _______ _____ _____    ______ ____
ROOT
ATOM      1  N   UNL     1      34.995 -24.549 -13.929  0.00  0.00    -0.323 N 
ATOM      2  C   UNL     1      35.407 -23.851 -15.040  0.00  0.00    +0.063 A 
ATOM      3  C   UNL     1      36.591 -23.197 -14.700  0.00  0.00    +0.017 A 
ATOM      4  C   UNL     1      35.473 -22.960 -17.260  0.00  0.00    +0.140 C 
ATOM      5  C   UNL     1      35.871 -24.368 -12.884  0.00  0.00    +0.060 A 
ATOM      6  C   UNL     1      36.885 -23.524 -13.338  0.00  0.00    +0.017 A 
ATOM      7  C   UNL     1      34.825 -23.752 -16.309  0.00  0.00    +0.054 C 
ATOM      8  C   UNL     1      37.227 -22.402 -15.677  0.00  0.00    +0.005 C 
ATOM      9  C   UNL     1      36.657 -22.294 -16.951  0.00  0.00    +0.037 C 
ATOM     10  C   UNL     1      35.841 -24.885 -11.585  0.00  0.00    +0.017 C 
ATOM     11  C   UNL     1      37.922 -23.177 -12.447  0.00  0.00    +0.001 C 
ATOM     12  C   UNL     1      36.880 -24.528 -10.722  0.00  0.00    +0.001 C 
ATOM     13  C   UNL     1      37.906 -23.686 -11.144  0.00  0.00    +0.000 C 
ENDROOT
BRANCH   4  14
ATOM     14  O   UNL     1      34.938 -22.838 -18.508  0.00  0.00    -0.479 OA
BRANCH  14  17
ATOM     15  N   UNL     1      34.631 -19.774 -21.293  0.00  0.00    -0.297 N 
ATOM     16  N   UNL     1      33.552 -19.276 -23.317  0.00  0.00    -0.289 NA
ATOM     17  C   UNL     1      34.779 -21.518 -19.015  0.00  0.00    +0.169 C 
ATOM     18  C   UNL     1      33.528 -21.446 -19.891  0.00  0.00    +0.065 C 
ATOM     19  C   UNL     1      36.022 -21.149 -19.825  0.00  0.00    +0.065 C 
ATOM     20  C   UNL     1      33.402 -20.085 -20.566  0.00  0.00    +0.096 C 
ATOM     21  C   UNL     1      35.861 -19.791 -20.502  0.00  0.00    +0.096 C 
ATOM     22  C   UNL     1      34.621 -19.399 -22.593  0.00  0.00    +0.100 C 
ATOM     23  C   UNL     1      35.953 -19.106 -23.235  0.00  0.00    +0.068 C 
ATOM     24  H   UNL     1      32.668 -19.461 -22.925  0.00  0.00    +0.188 HD
ENDBRANCH  14  17
ENDBRANCH   4  14
BRANCH   1  25
ATOM     25  C   UNL     1      33.800 -25.367 -13.868  0.00  0.00    +0.133 C 
BRANCH  25  26
ATOM     26  C   UNL     1      32.555 -24.525 -13.935  0.00  0.00    +0.000 C 
ATOM     27  C   UNL     1      31.645 -24.732 -14.965  0.00  0.00    -0.002 C 
ATOM     28  C   UNL     1      32.332 -23.557 -12.971  0.00  0.00    -0.002 C 
ATOM     29  C   UNL     1      30.477 -23.955 -15.042  0.00  0.00    -0.000 C 
ATOM     30  C   UNL     1      30.241 -22.962 -14.062  0.00  0.00    -0.000 C 
ATOM     31  C   UNL     1      31.178 -22.775 -13.033  0.00  0.00    -0.000 C 
ATOM     32  C   UNL     1      29.541 -24.141 -16.071  0.00  0.00    +0.003 C 
ATOM     33  C   UNL     1      29.073 -22.184 -14.139  0.00  0.00    +0.000 C 
ATOM     34  C   UNL     1      28.386 -23.359 -16.133  0.00  0.00    +0.031 C 
ATOM     35  C   UNL     1      28.154 -22.384 -15.169  0.00  0.00    +0.003 C 
BRANCH  34  38
ATOM     36  N   UNL     1      26.716 -22.501 -17.758  0.00  0.00    -0.343 N 
ATOM     37  N   UNL     1      27.208 -24.783 -17.669  0.00  0.00    -0.285 NA
ATOM     38  C   UNL     1      27.425 -23.565 -17.204  0.00  0.00    +0.117 C 
ATOM     39  H   UNL     1      26.069 -22.663 -18.482  0.00  0.00    +0.144 HD
ATOM     40  H   UNL     1      26.861 -21.586 -17.423  0.00  0.00    +0.144 HD
ATOM     41  H   UNL     1      26.558 -24.926 -18.394  0.00  0.00    +0.188 HD
ENDBRANCH  34  38
ENDBRANCH  25  26
ENDBRANCH   1  25
TORSDOF 5
ENDMDL
