MODEL 1
REMARK VINA RESULT:     -12.4      0.000      0.000
REMARK  Name = 9924495
REMARK  4 active torsions:
REMARK  status: ('A' for Active; 'I' for Inactive)
REMARK    1  A    between atoms: N_2  and  C_22
REMARK    2  A    between atoms: C_3  and  C_14
REMARK    3  A    between atoms: C_4  and  C_9
REMARK    4  A    between atoms: C_15  and  C_21
REMARK                            x       y       z     vdW  Elec       q    Type
REMARK                         _______ _______ _______ _____ _____    ______ ____
ROOT
ATOM      1  O   UNL     1      36.668 -23.228 -16.110  0.00  0.00    -0.269 OA
ATOM      2  N   UNL     1      34.429 -22.982 -16.803  0.00  0.00    -0.233 N 
ATOM      3  C   UNL     1      35.030 -24.061 -14.644  0.00  0.00    +0.055 C 
ATOM      4  C   UNL     1      32.726 -23.999 -15.433  0.00  0.00    +0.033 C 
ATOM      5  C   UNL     1      35.460 -23.367 -15.911  0.00  0.00    +0.257 C 
ATOM      6  C   UNL     1      33.733 -24.350 -14.460  0.00  0.00    +0.007 C 
ATOM      7  C   UNL     1      33.105 -23.330 -16.535  0.00  0.00    +0.074 C 
ENDROOT
BRANCH   4   9
ATOM      8  N   UNL     1      30.432 -23.554 -15.970  0.00  0.00    -0.244 NA
ATOM      9  C   UNL     1      31.293 -24.300 -15.244  0.00  0.00    +0.083 C 
ATOM     10  C   UNL     1      30.907 -25.295 -14.362  0.00  0.00    +0.019 C 
ATOM     11  C   UNL     1      29.546 -25.542 -14.216  0.00  0.00    +0.003 C 
ATOM     12  C   UNL     1      29.117 -23.823 -15.802  0.00  0.00    +0.099 C 
ATOM     13  C   UNL     1      28.628 -24.797 -14.946  0.00  0.00    +0.021 C 
ENDBRANCH   4   9
BRANCH   3  14
ATOM     14  C   UNL     1      36.013 -24.424 -13.607  0.00  0.00    +0.014 C 
ATOM     15  C   UNL     1      36.753 -25.604 -13.671  0.00  0.00    +0.069 C 
ATOM     16  C   UNL     1      36.192 -23.546 -12.537  0.00  0.00    +0.001 C 
ATOM     17  C   UNL     1      37.672 -25.907 -12.667  0.00  0.00    +0.010 C 
ATOM     18  C   UNL     1      37.112 -23.848 -11.533  0.00  0.00    +0.000 C 
ATOM     19  C   UNL     1      37.852 -25.029 -11.598  0.00  0.00    +0.001 C 
BRANCH  15  21
ATOM     20  N   UNL     1      36.471 -27.278 -15.628  0.00  0.00    -0.191 NA
ATOM     21  C   UNL     1      36.596 -26.529 -14.754  0.00  0.00    +0.100 C 
ENDBRANCH  15  21
ENDBRANCH   3  14
BRANCH   2  22
ATOM     22  C   UNL     1      34.762 -22.251 -18.010  0.00  0.00    +0.058 C 
ATOM     23  C   UNL     1      36.091 -21.958 -18.293  0.00  0.00    +0.015 C 
ATOM     24  C   UNL     1      33.749 -21.851 -18.874  0.00  0.00    +0.015 C 
ATOM     25  C   UNL     1      36.411 -21.256 -19.455  0.00  0.00    +0.001 C 
ATOM     26  C   UNL     1      34.069 -21.148 -20.035  0.00  0.00    +0.001 C 
ATOM     27  C   UNL     1      35.400 -20.851 -20.326  0.00  0.00    +0.000 C 
ENDBRANCH   2  22
TORSDOF 4
ENDMDL
MODEL 2
REMARK VINA RESULT:     -12.2      1.197      5.184
REMARK  Name = 9924495
REMARK  4 active torsions:
REMARK  status: ('A' for Active; 'I' for Inactive)
REMARK    1  A    between atoms: N_2  and  C_22
REMARK    2  A    between atoms: C_3  and  C_14
REMARK    3  A    between atoms: C_4  and  C_9
REMARK    4  A    between atoms: C_15  and  C_21
REMARK                            x       y       z     vdW  Elec       q    Type
REMARK                         _______ _______ _______ _____ _____    ______ ____
ROOT
ATOM      1  O   UNL     1      33.255 -24.783 -13.071  0.00  0.00    -0.269 OA
ATOM      2  N   UNL     1      32.676 -24.015 -15.222  0.00  0.00    -0.233 N 
ATOM      3  C   UNL     1      35.030 -24.030 -14.417  0.00  0.00    +0.055 C 
ATOM      4  C   UNL     1      34.428 -23.046 -16.564  0.00  0.00    +0.033 C 
ATOM      5  C   UNL     1      33.573 -24.333 -14.173  0.00  0.00    +0.257 C 
ATOM      6  C   UNL     1      35.391 -23.414 -15.552  0.00  0.00    +0.007 C 
ATOM      7  C   UNL     1      33.139 -23.368 -16.367  0.00  0.00    +0.074 C 
ENDROOT
BRANCH   4   9
ATOM      8  N   UNL     1      36.133 -22.178 -18.009  0.00  0.00    -0.244 NA
ATOM      9  C   UNL     1      34.809 -22.376 -17.823  0.00  0.00    +0.083 C 
ATOM     10  C   UNL     1      33.831 -21.991 -18.723  0.00  0.00    +0.019 C 
ATOM     11  C   UNL     1      34.238 -21.361 -19.895  0.00  0.00    +0.003 C 
ATOM     12  C   UNL     1      36.491 -21.563 -19.159  0.00  0.00    +0.099 C 
ATOM     13  C   UNL     1      35.591 -21.140 -20.124  0.00  0.00    +0.021 C 
ENDBRANCH   4   9
BRANCH   3  14
ATOM     14  C   UNL     1      36.058 -24.403 -13.429  0.00  0.00    +0.014 C 
ATOM     15  C   UNL     1      36.783 -25.589 -13.530  0.00  0.00    +0.069 C 
ATOM     16  C   UNL     1      36.295 -23.528 -12.368  0.00  0.00    +0.001 C 
ATOM     17  C   UNL     1      37.747 -25.902 -12.571  0.00  0.00    +0.010 C 
ATOM     18  C   UNL     1      37.259 -23.840 -11.409  0.00  0.00    +0.000 C 
ATOM     19  C   UNL     1      37.985 -25.027 -11.511  0.00  0.00    +0.001 C 
BRANCH  15  21
ATOM     20  N   UNL     1      36.392 -27.258 -15.473  0.00  0.00    -0.191 NA
ATOM     21  C   UNL     1      36.566 -26.511 -14.605  0.00  0.00    +0.100 C 
ENDBRANCH  15  21
ENDBRANCH   3  14
BRANCH   2  22
ATOM     22  C   UNL     1      31.269 -24.339 -15.084  0.00  0.00    +0.058 C 
ATOM     23  C   UNL     1      30.892 -25.493 -14.408  0.00  0.00    +0.015 C 
ATOM     24  C   UNL     1      30.312 -23.490 -15.628  0.00  0.00    +0.015 C 
ATOM     25  C   UNL     1      29.538 -25.804 -14.276  0.00  0.00    +0.001 C 
ATOM     26  C   UNL     1      28.959 -23.801 -15.495  0.00  0.00    +0.001 C 
ATOM     27  C   UNL     1      28.572 -24.958 -14.819  0.00  0.00    +0.000 C 
ENDBRANCH   2  22
TORSDOF 4
ENDMDL
MODEL 3
REMARK VINA RESULT:      -9.9      1.544      1.908
REMARK  Name = 9924495
REMARK  4 active torsions:
REMARK  status: ('A' for Active; 'I' for Inactive)
REMARK    1  A    between atoms: N_2  and  C_22
REMARK    2  A    between atoms: C_3  and  C_14
REMARK    3  A    between atoms: C_4  and  C_9
REMARK    4  A    between atoms: C_15  and  C_21
REMARK                            x       y       z     vdW  Elec       q    Type
REMARK                         _______ _______ _______ _____ _____    ______ ____
ROOT
ATOM      1  O   UNL     1      36.177 -22.813 -17.187  0.00  0.00    -0.269 OA
ATOM      2  N   UNL     1      33.921 -22.408 -17.733  0.00  0.00    -0.233 N 
ATOM      3  C   UNL     1      34.579 -23.649 -15.680  0.00  0.00    +0.055 C 
ATOM      4  C   UNL     1      32.241 -23.417 -16.329  0.00  0.00    +0.033 C 
ATOM      5  C   UNL     1      34.976 -22.900 -16.927  0.00  0.00    +0.257 C 
ATOM      6  C   UNL     1      33.280 -23.880 -15.438  0.00  0.00    +0.007 C 
ATOM      7  C   UNL     1      32.596 -22.702 -17.410  0.00  0.00    +0.074 C 
ENDROOT
BRANCH   4   9
ATOM      8  N   UNL     1      29.952 -22.791 -16.665  0.00  0.00    -0.244 NA
ATOM      9  C   UNL     1      30.806 -23.654 -16.075  0.00  0.00    +0.083 C 
ATOM     10  C   UNL     1      30.413 -24.710 -15.270  0.00  0.00    +0.019 C 
ATOM     11  C   UNL     1      29.051 -24.893 -15.058  0.00  0.00    +0.003 C 
ATOM     12  C   UNL     1      28.635 -23.000 -16.437  0.00  0.00    +0.099 C 
ATOM     13  C   UNL     1      28.139 -24.026 -15.649  0.00  0.00    +0.021 C 
ENDBRANCH   4   9
BRANCH   3  14
ATOM     14  C   UNL     1      35.595 -24.125 -14.725  0.00  0.00    +0.014 C 
ATOM     15  C   UNL     1      35.260 -24.546 -13.438  0.00  0.00    +0.069 C 
ATOM     16  C   UNL     1      36.927 -24.148 -15.141  0.00  0.00    +0.001 C 
ATOM     17  C   UNL     1      36.255 -24.988 -12.567  0.00  0.00    +0.010 C 
ATOM     18  C   UNL     1      37.922 -24.592 -14.270  0.00  0.00    +0.000 C 
ATOM     19  C   UNL     1      37.587 -25.012 -12.984  0.00  0.00    +0.001 C 
BRANCH  15  21
ATOM     20  N   UNL     1      32.808 -24.529 -12.603  0.00  0.00    -0.191 NA
ATOM     21  C   UNL     1      33.904 -24.536 -12.975  0.00  0.00    +0.100 C 
ENDBRANCH  15  21
ENDBRANCH   3  14
BRANCH   2  22
ATOM     22  C   UNL     1      34.228 -21.622 -18.913  0.00  0.00    +0.058 C 
ATOM     23  C   UNL     1      35.552 -21.421 -19.281  0.00  0.00    +0.015 C 
ATOM     24  C   UNL     1      33.192 -21.078 -19.665  0.00  0.00    +0.015 C 
ATOM     25  C   UNL     1      35.847 -20.666 -20.415  0.00  0.00    +0.001 C 
ATOM     26  C   UNL     1      33.487 -20.323 -20.799  0.00  0.00    +0.001 C 
ATOM     27  C   UNL     1      34.814 -20.117 -21.175  0.00  0.00    +0.000 C 
ENDBRANCH   2  22
TORSDOF 4
ENDMDL
MODEL 4
REMARK VINA RESULT:      -9.8      1.562      6.327
REMARK  Name = 9924495
REMARK  4 active torsions:
REMARK  status: ('A' for Active; 'I' for Inactive)
REMARK    1  A    between atoms: N_2  and  C_22
REMARK    2  A    between atoms: C_3  and  C_14
REMARK    3  A    between atoms: C_4  and  C_9
REMARK    4  A    between atoms: C_15  and  C_21
REMARK                            x       y       z     vdW  Elec       q    Type
REMARK                         _______ _______ _______ _____ _____    ______ ____
ROOT
ATOM      1  O   UNL     1      32.159 -22.830 -17.811  0.00  0.00    -0.269 OA
ATOM      2  N   UNL     1      32.270 -23.811 -15.671  0.00  0.00    -0.233 N 
ATOM      3  C   UNL     1      34.301 -22.998 -16.856  0.00  0.00    +0.055 C 
ATOM      4  C   UNL     1      34.459 -24.190 -14.736  0.00  0.00    +0.033 C 
ATOM      5  C   UNL     1      32.805 -23.184 -16.823  0.00  0.00    +0.257 C 
ATOM      6  C   UNL     1      35.047 -23.495 -15.858  0.00  0.00    +0.007 C 
ATOM      7  C   UNL     1      33.122 -24.304 -14.683  0.00  0.00    +0.074 C 
ENDROOT
BRANCH   4   9
ATOM      8  N   UNL     1      36.265 -25.571 -13.977  0.00  0.00    -0.244 NA
ATOM      9  C   UNL     1      35.264 -24.735 -13.625  0.00  0.00    +0.083 C 
ATOM     10  C   UNL     1      34.967 -24.383 -12.320  0.00  0.00    +0.019 C 
ATOM     11  C   UNL     1      35.752 -24.923 -11.306  0.00  0.00    +0.003 C 
ATOM     12  C   UNL     1      37.007 -26.077 -12.965  0.00  0.00    +0.099 C 
ATOM     13  C   UNL     1      36.792 -25.787 -11.627  0.00  0.00    +0.021 C 
ENDBRANCH   4   9
BRANCH   3  14
ATOM     14  C   UNL     1      34.951 -22.278 -17.966  0.00  0.00    +0.014 C 
ATOM     15  C   UNL     1      36.289 -21.891 -17.911  0.00  0.00    +0.069 C 
ATOM     16  C   UNL     1      34.186 -21.985 -19.095  0.00  0.00    +0.001 C 
ATOM     17  C   UNL     1      36.864 -21.210 -18.984  0.00  0.00    +0.010 C 
ATOM     18  C   UNL     1      34.760 -21.305 -20.169  0.00  0.00    +0.000 C 
ATOM     19  C   UNL     1      36.099 -20.918 -20.114  0.00  0.00    +0.001 C 
BRANCH  15  21
ATOM     20  N   UNL     1      37.767 -22.403 -15.845  0.00  0.00    -0.191 NA
ATOM     21  C   UNL     1      37.106 -22.175 -16.768  0.00  0.00    +0.100 C 
ENDBRANCH  15  21
ENDBRANCH   3  14
BRANCH   2  22
ATOM     22  C   UNL     1      30.834 -23.963 -15.540  0.00  0.00    +0.058 C 
ATOM     23  C   UNL     1      29.990 -22.965 -16.011  0.00  0.00    +0.015 C 
ATOM     24  C   UNL     1      30.315 -25.108 -14.946  0.00  0.00    +0.015 C 
ATOM     25  C   UNL     1      28.609 -23.112 -15.885  0.00  0.00    +0.001 C 
ATOM     26  C   UNL     1      28.934 -25.256 -14.821  0.00  0.00    +0.001 C 
ATOM     27  C   UNL     1      28.081 -24.258 -15.290  0.00  0.00    +0.000 C 
ENDBRANCH   2  22
TORSDOF 4
ENDMDL
MODEL 5
REMARK VINA RESULT:      -9.7      1.921      5.522
REMARK  Name = 9924495
REMARK  4 active torsions:
REMARK  status: ('A' for Active; 'I' for Inactive)
REMARK    1  A    between atoms: N_2  and  C_22
REMARK    2  A    between atoms: C_3  and  C_14
REMARK    3  A    between atoms: C_4  and  C_9
REMARK    4  A    between atoms: C_15  and  C_21
REMARK                            x       y       z     vdW  Elec       q    Type
REMARK                         _______ _______ _______ _____ _____    ______ ____
ROOT
ATOM      1  O   UNL     1      33.209 -24.770 -14.237  0.00  0.00    -0.269 OA
ATOM      2  N   UNL     1      32.307 -23.644 -16.101  0.00  0.00    -0.233 N 
ATOM      3  C   UNL     1      34.759 -23.932 -15.793  0.00  0.00    +0.055 C 
ATOM      4  C   UNL     1      33.857 -22.593 -17.618  0.00  0.00    +0.033 C 
ATOM      5  C   UNL     1      33.353 -24.177 -15.307  0.00  0.00    +0.257 C 
ATOM      6  C   UNL     1      34.955 -23.173 -16.881  0.00  0.00    +0.007 C 
ATOM      7  C   UNL     1      32.603 -22.859 -17.214  0.00  0.00    +0.074 C 
ENDROOT
BRANCH   4   9
ATOM      8  N   UNL     1      35.335 -21.582 -19.212  0.00  0.00    -0.244 NA
ATOM      9  C   UNL     1      34.053 -21.762 -18.822  0.00  0.00    +0.083 C 
ATOM     10  C   UNL     1      32.959 -21.220 -19.474  0.00  0.00    +0.019 C 
ATOM     11  C   UNL     1      33.194 -20.443 -20.604  0.00  0.00    +0.003 C 
ATOM     12  C   UNL     1      35.524 -20.821 -20.314  0.00  0.00    +0.099 C 
ATOM     13  C   UNL     1      34.498 -20.235 -21.038  0.00  0.00    +0.021 C 
ENDBRANCH   4   9
BRANCH   3  14
ATOM     14  C   UNL     1      35.916 -24.518 -15.092  0.00  0.00    +0.014 C 
ATOM     15  C   UNL     1      37.136 -23.849 -14.996  0.00  0.00    +0.069 C 
ATOM     16  C   UNL     1      35.764 -25.779 -14.516  0.00  0.00    +0.001 C 
ATOM     17  C   UNL     1      38.205 -24.442 -14.324  0.00  0.00    +0.010 C 
ATOM     18  C   UNL     1      36.833 -26.372 -13.843  0.00  0.00    +0.000 C 
ATOM     19  C   UNL     1      38.053 -25.703 -13.746  0.00  0.00    +0.001 C 
BRANCH  15  21
ATOM     20  N   UNL     1      37.486 -21.505 -16.042  0.00  0.00    -0.191 NA
ATOM     21  C   UNL     1      37.329 -22.553 -15.575  0.00  0.00    +0.100 C 
ENDBRANCH  15  21
ENDBRANCH   3  14
BRANCH   2  22
ATOM     22  C   UNL     1      30.927 -23.896 -15.730  0.00  0.00    +0.058 C 
ATOM     23  C   UNL     1      30.606 -25.040 -15.010  0.00  0.00    +0.015 C 
ATOM     24  C   UNL     1      29.941 -22.988 -16.098  0.00  0.00    +0.015 C 
ATOM     25  C   UNL     1      29.279 -25.281 -14.654  0.00  0.00    +0.001 C 
ATOM     26  C   UNL     1      28.614 -23.230 -15.741  0.00  0.00    +0.001 C 
ATOM     27  C   UNL     1      28.283 -24.376 -15.019  0.00  0.00    +0.000 C 
ENDBRANCH   2  22
TORSDOF 4
ENDMDL
MODEL 6
REMARK VINA RESULT:      -9.4      1.560      5.597
REMARK  Name = 9924495
REMARK  4 active torsions:
REMARK  status: ('A' for Active; 'I' for Inactive)
REMARK    1  A    between atoms: N_2  and  C_22
REMARK    2  A    between atoms: C_3  and  C_14
REMARK    3  A    between atoms: C_4  and  C_9
REMARK    4  A    between atoms: C_15  and  C_21
REMARK                            x       y       z     vdW  Elec       q    Type
REMARK                         _______ _______ _______ _____ _____    ______ ____
ROOT
ATOM      1  O   UNL     1      31.891 -22.460 -17.686  0.00  0.00    -0.269 OA
ATOM      2  N   UNL     1      34.216 -22.649 -17.347  0.00  0.00    -0.233 N 
ATOM      3  C   UNL     1      32.570 -23.752 -15.844  0.00  0.00    +0.055 C 
ATOM      4  C   UNL     1      34.958 -23.792 -15.359  0.00  0.00    +0.033 C 
ATOM      5  C   UNL     1      32.853 -22.908 -17.060  0.00  0.00    +0.257 C 
ATOM      6  C   UNL     1      33.588 -24.142 -15.062  0.00  0.00    +0.007 C 
ATOM      7  C   UNL     1      35.211 -23.087 -16.474  0.00  0.00    +0.074 C 
ENDROOT
BRANCH   4   9
ATOM      8  N   UNL     1      36.831 -25.243 -14.995  0.00  0.00    -0.244 NA
ATOM      9  C   UNL     1      36.092 -24.219 -14.516  0.00  0.00    +0.083 C 
ATOM     10  C   UNL     1      36.337 -23.579 -13.313  0.00  0.00    +0.019 C 
ATOM     11  C   UNL     1      37.416 -24.017 -12.552  0.00  0.00    +0.003 C 
ATOM     12  C   UNL     1      37.871 -25.642 -14.228  0.00  0.00    +0.099 C 
ATOM     13  C   UNL     1      38.202 -25.067 -13.012  0.00  0.00    +0.021 C 
ENDBRANCH   4   9
BRANCH   3  14
ATOM     14  C   UNL     1      31.193 -24.156 -15.505  0.00  0.00    +0.014 C 
ATOM     15  C   UNL     1      30.891 -24.825 -14.319  0.00  0.00    +0.069 C 
ATOM     16  C   UNL     1      30.178 -23.851 -16.412  0.00  0.00    +0.001 C 
ATOM     17  C   UNL     1      29.574 -25.189 -14.040  0.00  0.00    +0.010 C 
ATOM     18  C   UNL     1      28.861 -24.214 -16.133  0.00  0.00    +0.000 C 
ATOM     19  C   UNL     1      28.558 -24.883 -14.946  0.00  0.00    +0.001 C 
BRANCH  15  21
ATOM     20  N   UNL     1      32.727 -25.424 -12.592  0.00  0.00    -0.191 NA
ATOM     21  C   UNL     1      31.907 -25.155 -13.364  0.00  0.00    +0.100 C 
ENDBRANCH  15  21
ENDBRANCH   3  14
BRANCH   2  22
ATOM     22  C   UNL     1      34.567 -21.899 -18.538  0.00  0.00    +0.058 C 
ATOM     23  C   UNL     1      33.562 -21.383 -19.347  0.00  0.00    +0.015 C 
ATOM     24  C   UNL     1      35.906 -21.703 -18.857  0.00  0.00    +0.015 C 
ATOM     25  C   UNL     1      33.900 -20.662 -20.492  0.00  0.00    +0.001 C 
ATOM     26  C   UNL     1      36.244 -20.981 -20.002  0.00  0.00    +0.001 C 
ATOM     27  C   UNL     1      35.241 -20.461 -20.819  0.00  0.00    +0.000 C 
ENDBRANCH   2  22
TORSDOF 4
ENDMDL
