MODEL 1
REMARK VINA RESULT:     -11.5      0.000      0.000
REMARK  Name = 4369491
REMARK  2 active torsions:
REMARK  status: ('A' for Active; 'I' for Inactive)
REMARK    1  A    between atoms: C_10  and  C_21
REMARK    2  A    between atoms: C_17  and  O_27
REMARK                            x       y       z     vdW  Elec       q    Type
REMARK                         _______ _______ _______ _____ _____    ______ ____
ROOT
ATOM      1  O   UNL     1      36.294 -23.150 -16.828  0.00  0.00    -0.270 OA
ATOM      2  O   UNL     1      31.784 -22.654 -17.592  0.00  0.00    -0.270 OA
ATOM      3  N   UNL     1      34.499 -25.246 -12.340  0.00  0.00    -0.353 N 
ATOM      4  N   UNL     1      34.114 -22.745 -17.546  0.00  0.00    -0.248 N 
ATOM      5  C   UNL     1      34.848 -24.301 -14.336  0.00  0.00    +0.022 A 
ATOM      6  C   UNL     1      34.377 -23.721 -15.521  0.00  0.00    +0.060 C 
ATOM      7  C   UNL     1      33.857 -24.707 -13.428  0.00  0.00    +0.057 A 
ATOM      8  C   UNL     1      36.117 -24.619 -13.747  0.00  0.00    +0.020 A 
ATOM      9  C   UNL     1      33.012 -23.569 -15.758  0.00  0.00    +0.058 C 
ATOM     10  C   UNL     1      32.049 -23.971 -14.860  0.00  0.00    +0.006 C 
ATOM     11  C   UNL     1      35.862 -25.205 -12.505  0.00  0.00    +0.057 A 
ATOM     12  C   UNL     1      32.473 -24.555 -13.664  0.00  0.00    +0.017 C 
ATOM     13  C   UNL     1      35.088 -23.186 -16.681  0.00  0.00    +0.252 C 
ATOM     14  C   UNL     1      32.842 -22.937 -17.065  0.00  0.00    +0.252 C 
ATOM     15  C   UNL     1      37.467 -24.468 -14.136  0.00  0.00    +0.038 C 
ATOM     16  C   UNL     1      36.875 -25.645 -11.643  0.00  0.00    +0.020 C 
ATOM     17  C   UNL     1      38.492 -24.903 -13.286  0.00  0.00    +0.134 C 
ATOM     18  C   UNL     1      38.198 -25.484 -12.057  0.00  0.00    +0.038 C 
ATOM     19  H   UNL     1      34.044 -25.613 -11.549  0.00  0.00    +0.166 HD
ATOM     20  H   UNL     1      34.308 -22.333 -18.418  0.00  0.00    +0.158 HD
ENDROOT
BRANCH  10  21
ATOM     21  C   UNL     1      30.633 -23.811 -15.108  0.00  0.00    +0.000 C 
ATOM     22  C   UNL     1      29.994 -22.619 -14.765  0.00  0.00    +0.000 C 
ATOM     23  C   UNL     1      29.905 -24.849 -15.690  0.00  0.00    +0.000 C 
ATOM     24  C   UNL     1      28.629 -22.465 -15.003  0.00  0.00    +0.000 C 
ATOM     25  C   UNL     1      28.539 -24.695 -15.929  0.00  0.00    +0.000 C 
ATOM     26  C   UNL     1      27.901 -23.503 -15.585  0.00  0.00    +0.000 C 
ENDBRANCH  10  21
BRANCH  17  27
ATOM     27  O   UNL     1      39.791 -24.755 -13.670  0.00  0.00    -0.506 OA
ATOM     28  H   UNL     1      39.998 -24.600 -14.570  0.00  0.00    +0.292 HD
ENDBRANCH  17  27
TORSDOF 2
ENDMDL
MODEL 2
REMARK VINA RESULT:     -10.9      2.689      6.994
REMARK  Name = 4369491
REMARK  2 active torsions:
REMARK  status: ('A' for Active; 'I' for Inactive)
REMARK    1  A    between atoms: C_10  and  C_21
REMARK    2  A    between atoms: C_17  and  O_27
REMARK                            x       y       z     vdW  Elec       q    Type
REMARK                         _______ _______ _______ _____ _____    ______ ____
ROOT
ATOM      1  O   UNL     1      31.580 -22.944 -17.136  0.00  0.00    -0.270 OA
ATOM      2  O   UNL     1      33.407 -24.979 -13.436  0.00  0.00    -0.270 OA
ATOM      3  N   UNL     1      36.655 -21.880 -18.075  0.00  0.00    -0.353 N 
ATOM      4  N   UNL     1      32.147 -24.064 -15.173  0.00  0.00    -0.248 N 
ATOM      5  C   UNL     1      34.649 -22.526 -17.327  0.00  0.00    +0.022 A 
ATOM      6  C   UNL     1      33.837 -23.171 -16.385  0.00  0.00    +0.060 C 
ATOM      7  C   UNL     1      36.026 -22.552 -17.056  0.00  0.00    +0.057 A 
ATOM      8  C   UNL     1      34.474 -21.806 -18.556  0.00  0.00    +0.020 A 
ATOM      9  C   UNL     1      34.385 -23.789 -15.263  0.00  0.00    +0.058 C 
ATOM     10  C   UNL     1      35.738 -23.809 -15.006  0.00  0.00    +0.006 C 
ATOM     11  C   UNL     1      35.744 -21.419 -18.993  0.00  0.00    +0.057 A 
ATOM     12  C   UNL     1      36.586 -23.178 -15.920  0.00  0.00    +0.017 C 
ATOM     13  C   UNL     1      32.388 -23.351 -16.324  0.00  0.00    +0.252 C 
ATOM     14  C   UNL     1      33.294 -24.366 -14.480  0.00  0.00    +0.252 C 
ATOM     15  C   UNL     1      33.366 -21.437 -19.351  0.00  0.00    +0.038 C 
ATOM     16  C   UNL     1      35.958 -20.690 -20.171  0.00  0.00    +0.020 C 
ATOM     17  C   UNL     1      33.564 -20.709 -20.531  0.00  0.00    +0.134 C 
ATOM     18  C   UNL     1      34.843 -20.342 -20.934  0.00  0.00    +0.038 C 
ATOM     19  H   UNL     1      37.628 -21.747 -18.140  0.00  0.00    +0.166 HD
ATOM     20  H   UNL     1      31.248 -24.331 -14.877  0.00  0.00    +0.158 HD
ENDROOT
BRANCH  10  21
ATOM     21  C   UNL     1      36.304 -24.451 -13.841  0.00  0.00    +0.000 C 
ATOM     22  C   UNL     1      36.665 -25.798 -13.891  0.00  0.00    +0.000 C 
ATOM     23  C   UNL     1      36.489 -23.723 -12.664  0.00  0.00    +0.000 C 
ATOM     24  C   UNL     1      37.210 -26.416 -12.767  0.00  0.00    +0.000 C 
ATOM     25  C   UNL     1      37.036 -24.342 -11.540  0.00  0.00    +0.000 C 
ATOM     26  C   UNL     1      37.396 -25.689 -11.591  0.00  0.00    +0.000 C 
ENDBRANCH  10  21
BRANCH  17  27
ATOM     27  O   UNL     1      32.490 -20.358 -21.292  0.00  0.00    -0.506 OA
ATOM     28  H   UNL     1      32.557 -20.359 -22.226  0.00  0.00    +0.292 HD
ENDBRANCH  17  27
TORSDOF 2
ENDMDL
MODEL 3
REMARK VINA RESULT:     -10.5      1.481      6.735
REMARK  Name = 4369491
REMARK  2 active torsions:
REMARK  status: ('A' for Active; 'I' for Inactive)
REMARK    1  A    between atoms: C_10  and  C_21
REMARK    2  A    between atoms: C_17  and  O_27
REMARK                            x       y       z     vdW  Elec       q    Type
REMARK                         _______ _______ _______ _____ _____    ______ ____
ROOT
ATOM      1  O   UNL     1      32.935 -22.709 -17.715  0.00  0.00    -0.270 OA
ATOM      2  O   UNL     1      36.987 -23.051 -15.563  0.00  0.00    -0.270 OA
ATOM      3  N   UNL     1      31.296 -25.121 -13.327  0.00  0.00    -0.353 N 
ATOM      4  N   UNL     1      35.129 -22.708 -16.931  0.00  0.00    -0.248 N 
ATOM      5  C   UNL     1      32.376 -24.119 -15.008  0.00  0.00    +0.022 A 
ATOM      6  C   UNL     1      33.549 -23.629 -15.598  0.00  0.00    +0.060 C 
ATOM      7  C   UNL     1      32.537 -24.705 -13.742  0.00  0.00    +0.057 A 
ATOM      8  C   UNL     1      30.983 -24.201 -15.338  0.00  0.00    +0.020 A 
ATOM      9  C   UNL     1      34.779 -23.730 -14.950  0.00  0.00    +0.058 C 
ATOM     10  C   UNL     1      34.925 -24.307 -13.709  0.00  0.00    +0.006 C 
ATOM     11  C   UNL     1      30.340 -24.831 -14.269  0.00  0.00    +0.057 A 
ATOM     12  C   UNL     1      33.782 -24.809 -13.083  0.00  0.00    +0.017 C 
ATOM     13  C   UNL     1      33.779 -22.967 -16.881  0.00  0.00    +0.252 C 
ATOM     14  C   UNL     1      35.800 -23.136 -15.812  0.00  0.00    +0.252 C 
ATOM     15  C   UNL     1      30.190 -23.806 -16.440  0.00  0.00    +0.038 C 
ATOM     16  C   UNL     1      28.962 -25.082 -14.246  0.00  0.00    +0.020 C 
ATOM     17  C   UNL     1      28.811 -24.051 -16.431  0.00  0.00    +0.134 C 
ATOM     18  C   UNL     1      28.207 -24.680 -15.348  0.00  0.00    +0.038 C 
ATOM     19  H   UNL     1      31.115 -25.567 -12.469  0.00  0.00    +0.166 HD
ATOM     20  H   UNL     1      35.569 -22.263 -17.691  0.00  0.00    +0.158 HD
ENDROOT
BRANCH  10  21
ATOM     21  C   UNL     1      36.203 -24.411 -13.040  0.00  0.00    +0.000 C 
ATOM     22  C   UNL     1      36.601 -23.425 -12.136  0.00  0.00    +0.000 C 
ATOM     23  C   UNL     1      37.039 -25.498 -13.297  0.00  0.00    +0.000 C 
ATOM     24  C   UNL     1      37.833 -23.525 -11.491  0.00  0.00    +0.000 C 
ATOM     25  C   UNL     1      38.271 -25.599 -12.650  0.00  0.00    +0.000 C 
ATOM     26  C   UNL     1      38.668 -24.611 -11.748  0.00  0.00    +0.000 C 
ENDBRANCH  10  21
BRANCH  17  27
ATOM     27  O   UNL     1      28.054 -23.666 -17.497  0.00  0.00    -0.506 OA
ATOM     28  H   UNL     1      28.287 -23.944 -18.361  0.00  0.00    +0.292 HD
ENDBRANCH  17  27
TORSDOF 2
ENDMDL
MODEL 4
REMARK VINA RESULT:      -9.9      3.564      5.875
REMARK  Name = 4369491
REMARK  2 active torsions:
REMARK  status: ('A' for Active; 'I' for Inactive)
REMARK    1  A    between atoms: C_10  and  C_21
REMARK    2  A    between atoms: C_17  and  O_27
REMARK                            x       y       z     vdW  Elec       q    Type
REMARK                         _______ _______ _______ _____ _____    ______ ____
ROOT
ATOM      1  O   UNL     1      32.610 -23.697 -16.338  0.00  0.00    -0.270 OA
ATOM      2  O   UNL     1      32.785 -21.126 -20.150  0.00  0.00    -0.270 OA
ATOM      3  N   UNL     1      37.772 -22.643 -16.343  0.00  0.00    -0.353 N 
ATOM      4  N   UNL     1      32.324 -22.456 -18.290  0.00  0.00    -0.248 N 
ATOM      5  C   UNL     1      35.575 -22.856 -16.696  0.00  0.00    +0.022 A 
ATOM      6  C   UNL     1      34.418 -22.594 -17.443  0.00  0.00    +0.060 C 
ATOM      7  C   UNL     1      36.757 -22.284 -17.194  0.00  0.00    +0.057 A 
ATOM      8  C   UNL     1      35.923 -23.577 -15.506  0.00  0.00    +0.020 A 
ATOM      9  C   UNL     1      34.466 -21.815 -18.598  0.00  0.00    +0.058 C 
ATOM     10  C   UNL     1      35.630 -21.259 -19.077  0.00  0.00    +0.006 C 
ATOM     11  C   UNL     1      37.299 -23.424 -15.316  0.00  0.00    +0.057 A 
ATOM     12  C   UNL     1      36.809 -21.495 -18.364  0.00  0.00    +0.017 C 
ATOM     13  C   UNL     1      33.030 -23.007 -17.246  0.00  0.00    +0.252 C 
ATOM     14  C   UNL     1      33.113 -21.727 -19.145  0.00  0.00    +0.252 C 
ATOM     15  C   UNL     1      35.213 -24.353 -14.562  0.00  0.00    +0.038 C 
ATOM     16  C   UNL     1      37.992 -23.999 -14.243  0.00  0.00    +0.020 C 
ATOM     17  C   UNL     1      35.892 -24.934 -13.483  0.00  0.00    +0.134 C 
ATOM     18  C   UNL     1      37.262 -24.758 -13.328  0.00  0.00    +0.038 C 
ATOM     19  H   UNL     1      38.713 -22.378 -16.452  0.00  0.00    +0.166 HD
ATOM     20  H   UNL     1      31.355 -22.572 -18.412  0.00  0.00    +0.158 HD
ENDROOT
BRANCH  10  21
ATOM     21  C   UNL     1      35.677 -20.453 -20.276  0.00  0.00    +0.000 C 
ATOM     22  C   UNL     1      36.667 -19.481 -20.427  0.00  0.00    +0.000 C 
ATOM     23  C   UNL     1      34.732 -20.646 -21.285  0.00  0.00    +0.000 C 
ATOM     24  C   UNL     1      36.712 -18.703 -21.583  0.00  0.00    +0.000 C 
ATOM     25  C   UNL     1      34.777 -19.868 -22.442  0.00  0.00    +0.000 C 
ATOM     26  C   UNL     1      35.767 -18.896 -22.590  0.00  0.00    +0.000 C 
ENDBRANCH  10  21
BRANCH  17  27
ATOM     27  O   UNL     1      35.199 -25.679 -12.577  0.00  0.00    -0.506 OA
ATOM     28  H   UNL     1      35.284 -26.612 -12.575  0.00  0.00    +0.292 HD
ENDBRANCH  17  27
TORSDOF 2
ENDMDL
MODEL 5
REMARK VINA RESULT:      -9.5      2.830      5.673
REMARK  Name = 4369491
REMARK  2 active torsions:
REMARK  status: ('A' for Active; 'I' for Inactive)
REMARK    1  A    between atoms: C_10  and  C_21
REMARK    2  A    between atoms: C_17  and  O_27
REMARK                            x       y       z     vdW  Elec       q    Type
REMARK                         _______ _______ _______ _____ _____    ______ ____
ROOT
ATOM      1  O   UNL     1      37.210 -22.539 -16.746  0.00  0.00    -0.270 OA
ATOM      2  O   UNL     1      34.350 -24.708 -13.868  0.00  0.00    -0.270 OA
ATOM      3  N   UNL     1      32.671 -21.494 -19.209  0.00  0.00    -0.353 N 
ATOM      4  N   UNL     1      36.075 -23.725 -15.092  0.00  0.00    -0.248 N 
ATOM      5  C   UNL     1      34.351 -22.145 -17.885  0.00  0.00    +0.022 A 
ATOM      6  C   UNL     1      34.837 -22.810 -16.752  0.00  0.00    +0.060 C 
ATOM      7  C   UNL     1      32.959 -22.193 -18.062  0.00  0.00    +0.057 A 
ATOM      8  C   UNL     1      34.890 -21.386 -18.976  0.00  0.00    +0.020 A 
ATOM      9  C   UNL     1      33.975 -23.469 -15.876  0.00  0.00    +0.058 C 
ATOM     10  C   UNL     1      32.611 -23.510 -16.060  0.00  0.00    +0.006 C 
ATOM     11  C   UNL     1      33.816 -20.997 -19.781  0.00  0.00    +0.057 A 
ATOM     12  C   UNL     1      32.082 -22.859 -17.177  0.00  0.00    +0.017 C 
ATOM     13  C   UNL     1      36.196 -22.978 -16.241  0.00  0.00    +0.252 C 
ATOM     14  C   UNL     1      34.775 -24.060 -14.805  0.00  0.00    +0.252 C 
ATOM     15  C   UNL     1      36.186 -20.985 -19.373  0.00  0.00    +0.038 C 
ATOM     16  C   UNL     1      33.970 -20.237 -20.948  0.00  0.00    +0.020 C 
ATOM     17  C   UNL     1      36.356 -20.224 -20.537  0.00  0.00    +0.134 C 
ATOM     18  C   UNL     1      35.262 -19.856 -21.312  0.00  0.00    +0.038 C 
ATOM     19  H   UNL     1      31.765 -21.366 -19.572  0.00  0.00    +0.166 HD
ATOM     20  H   UNL     1      36.840 -23.992 -14.535  0.00  0.00    +0.158 HD
ENDROOT
BRANCH  10  21
ATOM     21  C   UNL     1      31.719 -24.194 -15.151  0.00  0.00    +0.000 C 
ATOM     22  C   UNL     1      30.963 -25.279 -15.597  0.00  0.00    +0.000 C 
ATOM     23  C   UNL     1      31.612 -23.770 -13.826  0.00  0.00    +0.000 C 
ATOM     24  C   UNL     1      30.103 -25.938 -14.721  0.00  0.00    +0.000 C 
ATOM     25  C   UNL     1      30.752 -24.431 -12.948  0.00  0.00    +0.000 C 
ATOM     26  C   UNL     1      29.997 -25.515 -13.397  0.00  0.00    +0.000 C 
ENDBRANCH  10  21
BRANCH  17  27
ATOM     27  O   UNL     1      37.609 -19.841 -20.911  0.00  0.00    -0.506 OA
ATOM     28  H   UNL     1      38.301 -19.822 -20.280  0.00  0.00    +0.292 HD
ENDBRANCH  17  27
TORSDOF 2
ENDMDL
MODEL 6
REMARK VINA RESULT:      -9.2     13.647     16.634
REMARK  Name = 4369491
REMARK  2 active torsions:
REMARK  status: ('A' for Active; 'I' for Inactive)
REMARK    1  A    between atoms: C_10  and  C_21
REMARK    2  A    between atoms: C_17  and  O_27
REMARK                            x       y       z     vdW  Elec       q    Type
REMARK                         _______ _______ _______ _____ _____    ______ ____
ROOT
ATOM      1  O   UNL     1      30.829  -9.951 -19.612  0.00  0.00    -0.270 OA
ATOM      2  O   UNL     1      32.409 -14.150 -20.633  0.00  0.00    -0.270 OA
ATOM      3  N   UNL     1      32.814  -8.910 -24.381  0.00  0.00    -0.353 N 
ATOM      4  N   UNL     1      31.493 -12.178 -19.789  0.00  0.00    -0.248 N 
ATOM      5  C   UNL     1      32.110  -9.748 -22.431  0.00  0.00    +0.022 A 
ATOM      6  C   UNL     1      31.962 -10.812 -21.532  0.00  0.00    +0.060 C 
ATOM      7  C   UNL     1      32.762 -10.062 -23.634  0.00  0.00    +0.057 A 
ATOM      8  C   UNL     1      31.772  -8.354 -22.484  0.00  0.00    +0.020 A 
ATOM      9  C   UNL     1      32.438 -12.086 -21.836  0.00  0.00    +0.058 C 
ATOM     10  C   UNL     1      33.076 -12.382 -23.019  0.00  0.00    +0.006 C 
ATOM     11  C   UNL     1      32.225  -7.865 -23.712  0.00  0.00    +0.057 A 
ATOM     12  C   UNL     1      33.246 -11.351 -23.947  0.00  0.00    +0.017 C 
ATOM     13  C   UNL     1      31.351 -10.875 -20.205  0.00  0.00    +0.252 C 
ATOM     14  C   UNL     1      32.136 -12.968 -20.710  0.00  0.00    +0.252 C 
ATOM     15  C   UNL     1      31.126  -7.447 -21.614  0.00  0.00    +0.038 C 
ATOM     16  C   UNL     1      32.067  -6.531 -24.109  0.00  0.00    +0.020 C 
ATOM     17  C   UNL     1      30.960  -6.110 -21.997  0.00  0.00    +0.134 C 
ATOM     18  C   UNL     1      31.424  -5.660 -23.228  0.00  0.00    +0.038 C 
ATOM     19  H   UNL     1      33.218  -8.842 -25.275  0.00  0.00    +0.166 HD
ATOM     20  H   UNL     1      31.169 -12.509 -18.921  0.00  0.00    +0.158 HD
ENDROOT
BRANCH  10  21
ATOM     21  C   UNL     1      33.570 -13.705 -23.332  0.00  0.00    +0.000 C 
ATOM     22  C   UNL     1      34.531 -14.303 -22.517  0.00  0.00    +0.000 C 
ATOM     23  C   UNL     1      33.086 -14.384 -24.451  0.00  0.00    +0.000 C 
ATOM     24  C   UNL     1      35.008 -15.578 -22.819  0.00  0.00    +0.000 C 
ATOM     25  C   UNL     1      33.562 -15.661 -24.752  0.00  0.00    +0.000 C 
ATOM     26  C   UNL     1      34.524 -16.257 -23.936  0.00  0.00    +0.000 C 
ENDBRANCH  10  21
BRANCH  17  27
ATOM     27  O   UNL     1      30.335  -5.243 -21.152  0.00  0.00    -0.506 OA
ATOM     28  H   UNL     1      30.676  -4.379 -21.032  0.00  0.00    +0.292 HD
ENDBRANCH  17  27
TORSDOF 2
ENDMDL
MODEL 7
REMARK VINA RESULT:      -8.8      4.607      7.327
REMARK  Name = 4369491
REMARK  2 active torsions:
REMARK  status: ('A' for Active; 'I' for Inactive)
REMARK    1  A    between atoms: C_10  and  C_21
REMARK    2  A    between atoms: C_17  and  O_27
REMARK                            x       y       z     vdW  Elec       q    Type
REMARK                         _______ _______ _______ _____ _____    ______ ____
ROOT
ATOM      1  O   UNL     1      37.049 -22.438 -17.416  0.00  0.00    -0.270 OA
ATOM      2  O   UNL     1      37.311 -19.702 -21.106  0.00  0.00    -0.270 OA
ATOM      3  N   UNL     1      31.899 -22.000 -18.442  0.00  0.00    -0.353 N 
ATOM      4  N   UNL     1      37.558 -21.070 -19.232  0.00  0.00    -0.248 N 
ATOM      5  C   UNL     1      34.132 -21.933 -18.346  0.00  0.00    +0.022 A 
ATOM      6  C   UNL     1      35.371 -21.497 -18.833  0.00  0.00    +0.060 C 
ATOM      7  C   UNL     1      33.010 -21.477 -19.057  0.00  0.00    +0.057 A 
ATOM      8  C   UNL     1      33.648 -22.753 -17.272  0.00  0.00    +0.020 A 
ATOM      9  C   UNL     1      35.457 -20.669 -19.951  0.00  0.00    +0.058 C 
ATOM     10  C   UNL     1      34.350 -20.229 -20.641  0.00  0.00    +0.006 C 
ATOM     11  C   UNL     1      32.254 -22.772 -17.362  0.00  0.00    +0.057 A 
ATOM     12  C   UNL     1      33.093 -20.638 -20.190  0.00  0.00    +0.017 C 
ATOM     13  C   UNL     1      36.734 -21.755 -18.370  0.00  0.00    +0.252 C 
ATOM     14  C   UNL     1      36.869 -20.392 -20.208  0.00  0.00    +0.252 C 
ATOM     15  C   UNL     1      34.248 -23.486 -16.224  0.00  0.00    +0.038 C 
ATOM     16  C   UNL     1      31.439 -23.479 -16.468  0.00  0.00    +0.020 C 
ATOM     17  C   UNL     1      33.447 -24.198 -15.322  0.00  0.00    +0.134 C 
ATOM     18  C   UNL     1      32.062 -24.194 -15.445  0.00  0.00    +0.038 C 
ATOM     19  H   UNL     1      30.973 -21.843 -18.734  0.00  0.00    +0.166 HD
ATOM     20  H   UNL     1      38.539 -21.065 -19.158  0.00  0.00    +0.158 HD
ENDROOT
BRANCH  10  21
ATOM     21  C   UNL     1      34.441 -19.369 -21.800  0.00  0.00    +0.000 C 
ATOM     22  C   UNL     1      34.080 -19.851 -23.058  0.00  0.00    +0.000 C 
ATOM     23  C   UNL     1      34.891 -18.055 -21.660  0.00  0.00    +0.000 C 
ATOM     24  C   UNL     1      34.168 -19.021 -24.175  0.00  0.00    +0.000 C 
ATOM     25  C   UNL     1      34.978 -17.224 -22.778  0.00  0.00    +0.000 C 
ATOM     26  C   UNL     1      34.617 -17.709 -24.036  0.00  0.00    +0.000 C 
ENDBRANCH  10  21
BRANCH  17  27
ATOM     27  O   UNL     1      34.034 -24.903 -14.314  0.00  0.00    -0.506 OA
ATOM     28  H   UNL     1      33.852 -25.816 -14.214  0.00  0.00    +0.292 HD
ENDBRANCH  17  27
TORSDOF 2
ENDMDL
MODEL 8
REMARK VINA RESULT:      -8.5     15.451     17.797
REMARK  Name = 4369491
REMARK  2 active torsions:
REMARK  status: ('A' for Active; 'I' for Inactive)
REMARK    1  A    between atoms: C_10  and  C_21
REMARK    2  A    between atoms: C_17  and  O_27
REMARK                            x       y       z     vdW  Elec       q    Type
REMARK                         _______ _______ _______ _____ _____    ______ ____
ROOT
ATOM      1  O   UNL     1      32.193  -9.336 -18.905  0.00  0.00    -0.270 OA
ATOM      2  O   UNL     1      32.351  -5.285 -21.080  0.00  0.00    -0.270 OA
ATOM      3  N   UNL     1      32.659 -11.111 -23.845  0.00  0.00    -0.353 N 
ATOM      4  N   UNL     1      32.241  -7.132 -19.660  0.00  0.00    -0.248 N 
ATOM      5  C   UNL     1      32.473  -9.972 -21.929  0.00  0.00    +0.022 A 
ATOM      6  C   UNL     1      32.398  -8.768 -21.217  0.00  0.00    +0.060 C 
ATOM      7  C   UNL     1      32.598  -9.842 -23.322  0.00  0.00    +0.057 A 
ATOM      8  C   UNL     1      32.460 -11.376 -21.635  0.00  0.00    +0.020 A 
ATOM      9  C   UNL     1      32.445  -7.538 -21.870  0.00  0.00    +0.058 C 
ATOM     10  C   UNL     1      32.568  -7.422 -23.237  0.00  0.00    +0.006 C 
ATOM     11  C   UNL     1      32.576 -12.055 -22.851  0.00  0.00    +0.057 A 
ATOM     12  C   UNL     1      32.647  -8.598 -23.988  0.00  0.00    +0.017 C 
ATOM     13  C   UNL     1      32.265  -8.502 -19.785  0.00  0.00    +0.252 C 
ATOM     14  C   UNL     1      32.343  -6.482 -20.865  0.00  0.00    +0.252 C 
ATOM     15  C   UNL     1      32.358 -12.152 -20.458  0.00  0.00    +0.038 C 
ATOM     16  C   UNL     1      32.597 -13.453 -22.948  0.00  0.00    +0.020 C 
ATOM     17  C   UNL     1      32.377 -13.550 -20.539  0.00  0.00    +0.134 C 
ATOM     18  C   UNL     1      32.496 -14.189 -21.768  0.00  0.00    +0.038 C 
ATOM     19  H   UNL     1      32.748 -11.316 -24.803  0.00  0.00    +0.166 HD
ATOM     20  H   UNL     1      32.159  -6.667 -18.798  0.00  0.00    +0.158 HD
ENDROOT
BRANCH  10  21
ATOM     21  C   UNL     1      32.617  -6.145 -23.913  0.00  0.00    +0.000 C 
ATOM     22  C   UNL     1      33.829  -5.661 -24.406  0.00  0.00    +0.000 C 
ATOM     23  C   UNL     1      31.451  -5.395 -24.073  0.00  0.00    +0.000 C 
ATOM     24  C   UNL     1      33.876  -4.429 -25.057  0.00  0.00    +0.000 C 
ATOM     25  C   UNL     1      31.497  -4.163 -24.726  0.00  0.00    +0.000 C 
ATOM     26  C   UNL     1      32.711  -3.680 -25.217  0.00  0.00    +0.000 C 
ENDBRANCH  10  21
BRANCH  17  27
ATOM     27  O   UNL     1      32.280 -14.289 -19.399  0.00  0.00    -0.506 OA
ATOM     28  H   UNL     1      32.448 -13.893 -18.567  0.00  0.00    +0.292 HD
ENDBRANCH  17  27
TORSDOF 2
ENDMDL
