MODEL 1
REMARK VINA RESULT:     -12.6      0.000      0.000
REMARK  Name = 5288710
REMARK  3 active torsions:
REMARK  status: ('A' for Active; 'I' for Inactive)
REMARK    1  A    between atoms: C_6  and  N_18
REMARK    2  A    between atoms: C_9  and  C_15
REMARK    3  A    between atoms: N_18  and  C_29
REMARK                            x       y       z     vdW  Elec       q    Type
REMARK                         _______ _______ _______ _____ _____    ______ ____
ROOT
ATOM      1  O   UNL     1      35.045 -24.129 -15.839  0.00  0.00    -0.270 OA
ATOM      2  N   UNL     1      33.076 -24.342 -14.552  0.00  0.00    -0.280 N 
ATOM      3  C   UNL     1      31.549 -23.392 -15.984  0.00  0.00    +0.019 C 
ATOM      4  C   UNL     1      32.868 -23.359 -16.607  0.00  0.00    +0.069 C 
ATOM      5  C   UNL     1      31.732 -23.999 -14.739  0.00  0.00    +0.051 C 
ATOM      6  C   UNL     1      33.212 -22.874 -17.803  0.00  0.00    +0.066 C 
ATOM      7  C   UNL     1      33.850 -23.982 -15.659  0.00  0.00    +0.251 C 
ATOM      8  C   UNL     1      30.296 -22.969 -16.386  0.00  0.00    +0.005 C 
ATOM      9  C   UNL     1      29.227 -23.168 -15.507  0.00  0.00    +0.036 C 
ATOM     10  C   UNL     1      30.691 -24.206 -13.856  0.00  0.00    +0.015 C 
ATOM     11  C   UNL     1      29.421 -23.780 -14.254  0.00  0.00    +0.004 C 
ATOM     12  H   UNL     1      33.430 -24.781 -13.745  0.00  0.00    +0.155 HD
ENDROOT
BRANCH   9  15
ATOM     13  O   UNL     1      27.718 -22.477 -17.207  0.00  0.00    -0.431 OA
ATOM     14  N   UNL     1      25.767 -22.109 -16.123  0.00  0.00    -0.203 NA
ATOM     15  C   UNL     1      27.902 -22.738 -15.888  0.00  0.00    +0.166 C 
ATOM     16  C   UNL     1      26.727 -22.517 -15.231  0.00  0.00    +0.140 C 
ATOM     17  C   UNL     1      26.409 -22.105 -17.268  0.00  0.00    +0.285 C 
ENDBRANCH   9  15
BRANCH   6  18
ATOM     18  N   UNL     1      34.439 -22.850 -18.367  0.00  0.00    -0.311 N 
ATOM     19  H   UNL     1      34.988 -23.656 -18.230  0.00  0.00    +0.152 HD
BRANCH  18  29
ATOM     20  S   UNL     1      35.381 -18.150 -22.391  0.00  0.00    -0.002 S 
ATOM     21  O   UNL     1      35.528 -18.652 -23.743  0.00  0.00    -0.172 OA
ATOM     22  O   UNL     1      35.158 -16.743 -22.123  0.00  0.00    -0.172 OA
ATOM     23  C   UNL     1      34.090 -19.088 -21.589  0.00  0.00    +0.177 C 
ATOM     24  C   UNL     1      36.795 -18.687 -21.442  0.00  0.00    +0.177 C 
ATOM     25  C   UNL     1      34.854 -20.005 -20.696  0.00  0.00    +0.000 C 
ATOM     26  C   UNL     1      36.238 -19.801 -20.621  0.00  0.00    -0.001 C 
ATOM     27  C   UNL     1      34.254 -21.015 -19.948  0.00  0.00    +0.012 C 
ATOM     28  C   UNL     1      37.022 -20.605 -19.798  0.00  0.00    -0.002 C 
ATOM     29  C   UNL     1      35.040 -21.823 -19.126  0.00  0.00    +0.048 C 
ATOM     30  C   UNL     1      36.420 -21.619 -19.051  0.00  0.00    +0.014 C 
ENDBRANCH  18  29
ENDBRANCH   6  18
TORSDOF 3
ENDMDL
MODEL 2
REMARK VINA RESULT:     -11.8      3.494      8.947
REMARK  Name = 5288710
REMARK  3 active torsions:
REMARK  status: ('A' for Active; 'I' for Inactive)
REMARK    1  A    between atoms: C_6  and  N_18
REMARK    2  A    between atoms: C_9  and  C_15
REMARK    3  A    between atoms: N_18  and  C_29
REMARK                            x       y       z     vdW  Elec       q    Type
REMARK                         _______ _______ _______ _____ _____    ______ ____
ROOT
ATOM      1  O   UNL     1      36.343 -22.481 -17.651  0.00  0.00    -0.270 OA
ATOM      2  N   UNL     1      37.157 -20.743 -19.029  0.00  0.00    -0.280 N 
ATOM      3  C   UNL     1      35.368 -20.477 -20.449  0.00  0.00    +0.019 C 
ATOM      4  C   UNL     1      35.061 -21.535 -19.492  0.00  0.00    +0.069 C 
ATOM      5  C   UNL     1      36.651 -20.031 -20.122  0.00  0.00    +0.051 C 
ATOM      6  C   UNL     1      33.951 -22.273 -19.393  0.00  0.00    +0.066 C 
ATOM      7  C   UNL     1      36.239 -21.695 -18.575  0.00  0.00    +0.251 C 
ATOM      8  C   UNL     1      34.670 -19.914 -21.501  0.00  0.00    +0.005 C 
ATOM      9  C   UNL     1      35.292 -18.890 -22.222  0.00  0.00    +0.036 C 
ATOM     10  C   UNL     1      37.283 -19.021 -20.821  0.00  0.00    +0.015 C 
ATOM     11  C   UNL     1      36.585 -18.447 -21.886  0.00  0.00    +0.004 C 
ATOM     12  H   UNL     1      38.045 -20.593 -18.631  0.00  0.00    +0.155 HD
ENDROOT
BRANCH   9  15
ATOM     13  O   UNL     1      34.742 -16.932 -23.450  0.00  0.00    -0.431 OA
ATOM     14  N   UNL     1      33.410 -17.665 -25.125  0.00  0.00    -0.203 NA
ATOM     15  C   UNL     1      34.598 -18.276 -23.330  0.00  0.00    +0.166 C 
ATOM     16  C   UNL     1      33.795 -18.722 -24.339  0.00  0.00    +0.140 C 
ATOM     17  C   UNL     1      33.999 -16.640 -24.553  0.00  0.00    +0.285 C 
ENDBRANCH   9  15
BRANCH   6  18
ATOM     18  N   UNL     1      33.682 -23.250 -18.500  0.00  0.00    -0.311 N 
ATOM     19  H   UNL     1      34.131 -24.111 -18.662  0.00  0.00    +0.152 HD
BRANCH  18  29
ATOM     20  S   UNL     1      31.418 -23.868 -12.698  0.00  0.00    -0.002 S 
ATOM     21  O   UNL     1      30.912 -25.210 -12.484  0.00  0.00    -0.172 OA
ATOM     22  O   UNL     1      31.645 -22.956 -11.595  0.00  0.00    -0.172 OA
ATOM     23  C   UNL     1      32.926 -23.989 -13.649  0.00  0.00    +0.177 C 
ATOM     24  C   UNL     1      30.360 -23.060 -13.889  0.00  0.00    +0.177 C 
ATOM     25  C   UNL     1      32.490 -23.571 -15.012  0.00  0.00    +0.000 C 
ATOM     26  C   UNL     1      31.179 -23.096 -15.135  0.00  0.00    -0.001 C 
ATOM     27  C   UNL     1      33.325 -23.622 -16.126  0.00  0.00    +0.012 C 
ATOM     28  C   UNL     1      30.700 -22.671 -16.372  0.00  0.00    -0.002 C 
ATOM     29  C   UNL     1      32.844 -23.199 -17.366  0.00  0.00    +0.048 C 
ATOM     30  C   UNL     1      31.536 -22.725 -17.489  0.00  0.00    +0.014 C 
ENDBRANCH  18  29
ENDBRANCH   6  18
TORSDOF 3
ENDMDL
MODEL 3
REMARK VINA RESULT:     -11.3      5.671     10.056
REMARK  Name = 5288710
REMARK  3 active torsions:
REMARK  status: ('A' for Active; 'I' for Inactive)
REMARK    1  A    between atoms: C_6  and  N_18
REMARK    2  A    between atoms: C_9  and  C_15
REMARK    3  A    between atoms: N_18  and  C_29
REMARK                            x       y       z     vdW  Elec       q    Type
REMARK                         _______ _______ _______ _____ _____    ______ ____
ROOT
ATOM      1  O   UNL     1      35.053 -17.077 -25.010  0.00  0.00    -0.270 OA
ATOM      2  N   UNL     1      33.848 -15.048 -25.127  0.00  0.00    -0.280 N 
ATOM      3  C   UNL     1      33.726 -14.518 -22.892  0.00  0.00    +0.019 C 
ATOM      4  C   UNL     1      34.453 -15.774 -23.043  0.00  0.00    +0.069 C 
ATOM      5  C   UNL     1      33.383 -14.121 -24.188  0.00  0.00    +0.051 C 
ATOM      6  C   UNL     1      34.986 -16.547 -22.093  0.00  0.00    +0.066 C 
ATOM      7  C   UNL     1      34.522 -16.104 -24.506  0.00  0.00    +0.251 C 
ATOM      8  C   UNL     1      33.368 -13.750 -21.800  0.00  0.00    +0.005 C 
ATOM      9  C   UNL     1      32.654 -12.571 -22.037  0.00  0.00    +0.036 C 
ATOM     10  C   UNL     1      32.679 -12.960 -24.444  0.00  0.00    +0.015 C 
ATOM     11  C   UNL     1      32.313 -12.179 -23.345  0.00  0.00    +0.004 C 
ATOM     12  H   UNL     1      33.718 -14.967 -26.099  0.00  0.00    +0.155 HD
ENDROOT
BRANCH   9  15
ATOM     13  O   UNL     1      31.908 -10.466 -21.226  0.00  0.00    -0.431 OA
ATOM     14  N   UNL     1      31.710 -10.754 -18.991  0.00  0.00    -0.203 NA
ATOM     15  C   UNL     1      32.260 -11.742 -20.923  0.00  0.00    +0.166 C 
ATOM     16  C   UNL     1      32.140 -11.919 -19.575  0.00  0.00    +0.140 C 
ATOM     17  C   UNL     1      31.591  -9.937 -20.012  0.00  0.00    +0.285 C 
ENDBRANCH   9  15
BRANCH   6  18
ATOM     18  N   UNL     1      35.656 -17.709 -22.248  0.00  0.00    -0.311 N 
ATOM     19  H   UNL     1      36.197 -17.783 -23.067  0.00  0.00    +0.152 HD
BRANCH  18  29
ATOM     20  S   UNL     1      33.964 -22.632 -18.773  0.00  0.00    -0.002 S 
ATOM     21  O   UNL     1      33.439 -22.201 -17.492  0.00  0.00    -0.172 OA
ATOM     22  O   UNL     1      33.786 -23.988 -19.250  0.00  0.00    -0.172 OA
ATOM     23  C   UNL     1      33.361 -21.510 -20.025  0.00  0.00    +0.177 C 
ATOM     24  C   UNL     1      35.707 -22.244 -18.817  0.00  0.00    +0.177 C 
ATOM     25  C   UNL     1      34.555 -20.665 -20.314  0.00  0.00    +0.000 C 
ATOM     26  C   UNL     1      35.754 -21.040 -19.696  0.00  0.00    -0.001 C 
ATOM     27  C   UNL     1      34.519 -19.561 -21.163  0.00  0.00    +0.012 C 
ATOM     28  C   UNL     1      36.919 -20.312 -19.927  0.00  0.00    -0.002 C 
ATOM     29  C   UNL     1      35.685 -18.830 -21.391  0.00  0.00    +0.048 C 
ATOM     30  C   UNL     1      36.882 -19.204 -20.775  0.00  0.00    +0.014 C 
ENDBRANCH  18  29
ENDBRANCH   6  18
TORSDOF 3
ENDMDL
MODEL 4
REMARK VINA RESULT:     -11.2      2.085      3.148
REMARK  Name = 5288710
REMARK  3 active torsions:
REMARK  status: ('A' for Active; 'I' for Inactive)
REMARK    1  A    between atoms: C_6  and  N_18
REMARK    2  A    between atoms: C_9  and  C_15
REMARK    3  A    between atoms: N_18  and  C_29
REMARK                            x       y       z     vdW  Elec       q    Type
REMARK                         _______ _______ _______ _____ _____    ______ ____
ROOT
ATOM      1  O   UNL     1      36.964 -21.835 -18.623  0.00  0.00    -0.270 OA
ATOM      2  N   UNL     1      35.882 -22.752 -16.735  0.00  0.00    -0.280 N 
ATOM      3  C   UNL     1      33.694 -22.672 -17.440  0.00  0.00    +0.019 C 
ATOM      4  C   UNL     1      34.552 -22.136 -18.491  0.00  0.00    +0.069 C 
ATOM      5  C   UNL     1      34.553 -23.032 -16.397  0.00  0.00    +0.051 C 
ATOM      6  C   UNL     1      34.202 -21.657 -19.688  0.00  0.00    +0.066 C 
ATOM      7  C   UNL     1      35.974 -22.195 -18.013  0.00  0.00    +0.251 C 
ATOM      8  C   UNL     1      32.330 -22.860 -17.328  0.00  0.00    +0.005 C 
ATOM      9  C   UNL     1      31.843 -23.417 -16.141  0.00  0.00    +0.036 C 
ATOM     10  C   UNL     1      34.093 -23.585 -15.217  0.00  0.00    +0.015 C 
ATOM     11  C   UNL     1      32.715 -23.777 -15.096  0.00  0.00    +0.004 C 
ATOM     12  H   UNL     1      36.652 -22.926 -16.147  0.00  0.00    +0.155 HD
ENDROOT
BRANCH   9  15
ATOM     13  O   UNL     1      29.616 -22.774 -16.664  0.00  0.00    -0.431 OA
ATOM     14  N   UNL     1      28.319 -24.234 -15.522  0.00  0.00    -0.203 NA
ATOM     15  C   UNL     1      30.423 -23.628 -15.984  0.00  0.00    +0.166 C 
ATOM     16  C   UNL     1      29.643 -24.510 -15.294  0.00  0.00    +0.140 C 
ATOM     17  C   UNL     1      28.366 -23.203 -16.336  0.00  0.00    +0.285 C 
ENDBRANCH   9  15
BRANCH   6  18
ATOM     18  N   UNL     1      35.008 -21.163 -20.652  0.00  0.00    -0.311 N 
ATOM     19  H   UNL     1      35.686 -21.785 -21.002  0.00  0.00    +0.152 HD
BRANCH  18  29
ATOM     20  S   UNL     1      34.357 -16.385 -24.642  0.00  0.00    -0.002 S 
ATOM     21  O   UNL     1      35.475 -16.328 -25.563  0.00  0.00    -0.172 OA
ATOM     22  O   UNL     1      33.141 -15.631 -24.875  0.00  0.00    -0.172 OA
ATOM     23  C   UNL     1      33.920 -18.100 -24.406  0.00  0.00    +0.177 C 
ATOM     24  C   UNL     1      34.962 -15.988 -23.010  0.00  0.00    +0.177 C 
ATOM     25  C   UNL     1      34.480 -18.401 -23.058  0.00  0.00    +0.000 C 
ATOM     26  C   UNL     1      35.013 -17.321 -22.344  0.00  0.00    -0.001 C 
ATOM     27  C   UNL     1      34.474 -19.677 -22.499  0.00  0.00    +0.012 C 
ATOM     28  C   UNL     1      35.541 -17.516 -21.069  0.00  0.00    -0.002 C 
ATOM     29  C   UNL     1      35.007 -19.873 -21.224  0.00  0.00    +0.048 C 
ATOM     30  C   UNL     1      35.539 -18.795 -20.512  0.00  0.00    +0.014 C 
ENDBRANCH  18  29
ENDBRANCH   6  18
TORSDOF 3
ENDMDL
MODEL 5
REMARK VINA RESULT:     -10.9      3.362      5.728
REMARK  Name = 5288710
REMARK  3 active torsions:
REMARK  status: ('A' for Active; 'I' for Inactive)
REMARK    1  A    between atoms: C_6  and  N_18
REMARK    2  A    between atoms: C_9  and  C_15
REMARK    3  A    between atoms: N_18  and  C_29
REMARK                            x       y       z     vdW  Elec       q    Type
REMARK                         _______ _______ _______ _____ _____    ______ ____
ROOT
ATOM      1  O   UNL     1      32.536 -21.812 -20.173  0.00  0.00    -0.270 OA
ATOM      2  N   UNL     1      32.358 -22.618 -17.960  0.00  0.00    -0.280 N 
ATOM      3  C   UNL     1      34.581 -22.697 -17.375  0.00  0.00    +0.019 C 
ATOM      4  C   UNL     1      34.468 -22.211 -18.747  0.00  0.00    +0.069 C 
ATOM      5  C   UNL     1      33.271 -22.928 -16.946  0.00  0.00    +0.051 C 
ATOM      6  C   UNL     1      35.443 -21.853 -19.587  0.00  0.00    +0.066 C 
ATOM      7  C   UNL     1      33.012 -22.167 -19.111  0.00  0.00    +0.251 C 
ATOM      8  C   UNL     1      35.652 -22.935 -16.535  0.00  0.00    +0.005 C 
ATOM      9  C   UNL     1      35.380 -23.412 -15.249  0.00  0.00    +0.036 C 
ATOM     10  C   UNL     1      32.980 -23.399 -15.680  0.00  0.00    +0.015 C 
ATOM     11  C   UNL     1      34.058 -23.643 -14.825  0.00  0.00    +0.004 C 
ATOM     12  H   UNL     1      31.381 -22.707 -17.874  0.00  0.00    +0.155 HD
ENDROOT
BRANCH   9  15
ATOM     13  O   UNL     1      36.217 -23.456 -13.026  0.00  0.00    -0.431 OA
ATOM     14  N   UNL     1      38.350 -24.178 -13.235  0.00  0.00    -0.203 NA
ATOM     15  C   UNL     1      36.471 -23.675 -14.342  0.00  0.00    +0.166 C 
ATOM     16  C   UNL     1      37.758 -24.111 -14.471  0.00  0.00    +0.140 C 
ATOM     17  C   UNL     1      37.395 -23.781 -12.426  0.00  0.00    +0.285 C 
ENDBRANCH   9  15
BRANCH   6  18
ATOM     18  N   UNL     1      35.322 -21.405 -20.855  0.00  0.00    -0.311 N 
ATOM     19  H   UNL     1      35.269 -22.100 -21.550  0.00  0.00    +0.152 HD
BRANCH  18  29
ATOM     20  S   UNL     1      34.388 -16.335 -24.404  0.00  0.00    -0.002 S 
ATOM     21  O   UNL     1      35.474 -16.162 -25.349  0.00  0.00    -0.172 OA
ATOM     22  O   UNL     1      33.142 -15.607 -24.536  0.00  0.00    -0.172 OA
ATOM     23  C   UNL     1      34.015 -18.078 -24.302  0.00  0.00    +0.177 C 
ATOM     24  C   UNL     1      35.033 -16.055 -22.762  0.00  0.00    +0.177 C 
ATOM     25  C   UNL     1      34.627 -18.471 -23.001  0.00  0.00    +0.000 C 
ATOM     26  C   UNL     1      35.148 -17.437 -22.213  0.00  0.00    -0.001 C 
ATOM     27  C   UNL     1      34.681 -19.789 -22.553  0.00  0.00    +0.012 C 
ATOM     28  C   UNL     1      35.723 -17.720 -20.976  0.00  0.00    -0.002 C 
ATOM     29  C   UNL     1      35.261 -20.072 -21.315  0.00  0.00    +0.048 C 
ATOM     30  C   UNL     1      35.780 -19.040 -20.529  0.00  0.00    +0.014 C 
ENDBRANCH  18  29
ENDBRANCH   6  18
TORSDOF 3
ENDMDL
MODEL 6
REMARK VINA RESULT:     -10.8      2.548      5.371
REMARK  Name = 5288710
REMARK  3 active torsions:
REMARK  status: ('A' for Active; 'I' for Inactive)
REMARK    1  A    between atoms: C_6  and  N_18
REMARK    2  A    between atoms: C_9  and  C_15
REMARK    3  A    between atoms: N_18  and  C_29
REMARK                            x       y       z     vdW  Elec       q    Type
REMARK                         _______ _______ _______ _____ _____    ______ ____
ROOT
ATOM      1  O   UNL     1      31.428 -22.756 -17.437  0.00  0.00    -0.270 OA
ATOM      2  N   UNL     1      31.550 -23.519 -15.205  0.00  0.00    -0.280 N 
ATOM      3  C   UNL     1      33.821 -23.815 -15.000  0.00  0.00    +0.019 C 
ATOM      4  C   UNL     1      33.525 -23.333 -16.345  0.00  0.00    +0.069 C 
ATOM      5  C   UNL     1      32.587 -23.910 -14.351  0.00  0.00    +0.051 C 
ATOM      6  C   UNL     1      34.374 -23.083 -17.346  0.00  0.00    +0.066 C 
ATOM      7  C   UNL     1      32.040 -23.147 -16.460  0.00  0.00    +0.251 C 
ATOM      8  C   UNL     1      34.992 -24.151 -14.345  0.00  0.00    +0.005 C 
ATOM      9  C   UNL     1      34.896 -24.587 -13.020  0.00  0.00    +0.036 C 
ATOM     10  C   UNL     1      32.471 -24.337 -13.042  0.00  0.00    +0.015 C 
ATOM     11  C   UNL     1      33.649 -24.679 -12.374  0.00  0.00    +0.004 C 
ATOM     12  H   UNL     1      30.598 -23.509 -14.954  0.00  0.00    +0.155 HD
ENDROOT
BRANCH   9  15
ATOM     13  O   UNL     1      36.794 -25.999 -12.803  0.00  0.00    -0.431 OA
ATOM     14  N   UNL     1      37.869 -25.231 -10.966  0.00  0.00    -0.203 NA
ATOM     15  C   UNL     1      36.095 -24.949 -12.302  0.00  0.00    +0.166 C 
ATOM     16  C   UNL     1      36.742 -24.482 -11.194  0.00  0.00    +0.140 C 
ATOM     17  C   UNL     1      37.846 -26.106 -11.945  0.00  0.00    +0.285 C 
ENDBRANCH   9  15
BRANCH   6  18
ATOM     18  N   UNL     1      34.084 -22.637 -18.587  0.00  0.00    -0.311 N 
ATOM     19  H   UNL     1      33.312 -23.065 -19.025  0.00  0.00    +0.152 HD
BRANCH  18  29
ATOM     20  S   UNL     1      35.283 -17.976 -22.588  0.00  0.00    -0.002 S 
ATOM     21  O   UNL     1      35.412 -18.481 -23.942  0.00  0.00    -0.172 OA
ATOM     22  O   UNL     1      35.130 -16.562 -22.316  0.00  0.00    -0.172 OA
ATOM     23  C   UNL     1      33.942 -18.851 -21.797  0.00  0.00    +0.177 C 
ATOM     24  C   UNL     1      36.663 -18.588 -21.635  0.00  0.00    +0.177 C 
ATOM     25  C   UNL     1      34.655 -19.809 -20.904  0.00  0.00    +0.000 C 
ATOM     26  C   UNL     1      36.046 -19.675 -20.821  0.00  0.00    -0.001 C 
ATOM     27  C   UNL     1      33.999 -20.790 -20.162  0.00  0.00    +0.012 C 
ATOM     28  C   UNL     1      36.784 -20.521 -19.996  0.00  0.00    -0.002 C 
ATOM     29  C   UNL     1      34.739 -21.639 -19.340  0.00  0.00    +0.048 C 
ATOM     30  C   UNL     1      36.127 -21.505 -19.257  0.00  0.00    +0.014 C 
ENDBRANCH  18  29
ENDBRANCH   6  18
TORSDOF 3
ENDMDL
MODEL 7
REMARK VINA RESULT:     -10.8      6.499     10.677
REMARK  Name = 5288710
REMARK  3 active torsions:
REMARK  status: ('A' for Active; 'I' for Inactive)
REMARK    1  A    between atoms: C_6  and  N_18
REMARK    2  A    between atoms: C_9  and  C_15
REMARK    3  A    between atoms: N_18  and  C_29
REMARK                            x       y       z     vdW  Elec       q    Type
REMARK                         _______ _______ _______ _____ _____    ______ ____
ROOT
ATOM      1  O   UNL     1      33.507 -15.161 -25.645  0.00  0.00    -0.270 OA
ATOM      2  N   UNL     1      33.721 -17.470 -25.196  0.00  0.00    -0.280 N 
ATOM      3  C   UNL     1      34.708 -17.391 -23.120  0.00  0.00    +0.019 C 
ATOM      4  C   UNL     1      34.484 -16.028 -23.591  0.00  0.00    +0.069 C 
ATOM      5  C   UNL     1      34.226 -18.226 -24.132  0.00  0.00    +0.051 C 
ATOM      6  C   UNL     1      34.777 -14.877 -22.980  0.00  0.00    +0.066 C 
ATOM      7  C   UNL     1      33.841 -16.099 -24.946  0.00  0.00    +0.251 C 
ATOM      8  C   UNL     1      35.255 -17.922 -21.967  0.00  0.00    +0.005 C 
ATOM      9  C   UNL     1      35.309 -19.314 -21.851  0.00  0.00    +0.036 C 
ATOM     10  C   UNL     1      34.269 -19.603 -24.037  0.00  0.00    +0.015 C 
ATOM     11  C   UNL     1      34.822 -20.147 -22.875  0.00  0.00    +0.004 C 
ATOM     12  H   UNL     1      33.331 -17.854 -26.014  0.00  0.00    +0.155 HD
ENDROOT
BRANCH   9  15
ATOM     13  O   UNL     1      36.961 -19.280 -20.143  0.00  0.00    -0.431 OA
ATOM     14  N   UNL     1      36.483 -21.076 -18.853  0.00  0.00    -0.203 NA
ATOM     15  C   UNL     1      35.875 -19.908 -20.663  0.00  0.00    +0.166 C 
ATOM     16  C   UNL     1      35.585 -20.992 -19.886  0.00  0.00    +0.140 C 
ATOM     17  C   UNL     1      37.267 -20.042 -19.057  0.00  0.00    +0.285 C 
ENDBRANCH   9  15
BRANCH   6  18
ATOM     18  N   UNL     1      34.564 -13.622 -23.430  0.00  0.00    -0.311 N 
ATOM     19  H   UNL     1      35.092 -13.355 -24.217  0.00  0.00    +0.152 HD
BRANCH  18  29
ATOM     20  S   UNL     1      31.764  -8.170 -22.162  0.00  0.00    -0.002 S 
ATOM     21  O   UNL     1      32.477  -7.455 -21.122  0.00  0.00    -0.172 OA
ATOM     22  O   UNL     1      30.759  -7.519 -22.979  0.00  0.00    -0.172 OA
ATOM     23  C   UNL     1      32.969  -8.923 -23.244  0.00  0.00    +0.177 C 
ATOM     24  C   UNL     1      31.039  -9.630 -21.434  0.00  0.00    +0.177 C 
ATOM     25  C   UNL     1      32.926 -10.356 -22.838  0.00  0.00    +0.000 C 
ATOM     26  C   UNL     1      31.940 -10.718 -21.912  0.00  0.00    -0.001 C 
ATOM     27  C   UNL     1      33.798 -11.318 -23.345  0.00  0.00    +0.012 C 
ATOM     28  C   UNL     1      31.823 -12.042 -21.494  0.00  0.00    -0.002 C 
ATOM     29  C   UNL     1      33.683 -12.642 -22.923  0.00  0.00    +0.048 C 
ATOM     30  C   UNL     1      32.699 -13.004 -22.000  0.00  0.00    +0.014 C 
ENDBRANCH  18  29
ENDBRANCH   6  18
TORSDOF 3
ENDMDL
MODEL 8
REMARK VINA RESULT:     -10.8      3.173      8.658
REMARK  Name = 5288710
REMARK  3 active torsions:
REMARK  status: ('A' for Active; 'I' for Inactive)
REMARK    1  A    between atoms: C_6  and  N_18
REMARK    2  A    between atoms: C_9  and  C_15
REMARK    3  A    between atoms: N_18  and  C_29
REMARK                            x       y       z     vdW  Elec       q    Type
REMARK                         _______ _______ _______ _____ _____    ______ ____
ROOT
ATOM      1  O   UNL     1      37.034 -21.914 -17.422  0.00  0.00    -0.270 OA
ATOM      2  N   UNL     1      37.501 -20.280 -19.063  0.00  0.00    -0.280 N 
ATOM      3  C   UNL     1      35.600 -20.438 -20.347  0.00  0.00    +0.019 C 
ATOM      4  C   UNL     1      35.510 -21.393 -19.247  0.00  0.00    +0.069 C 
ATOM      5  C   UNL     1      36.827 -19.790 -20.187  0.00  0.00    +0.051 C 
ATOM      6  C   UNL     1      34.524 -22.249 -18.965  0.00  0.00    +0.066 C 
ATOM      7  C   UNL     1      36.758 -21.276 -18.421  0.00  0.00    +0.251 C 
ATOM      8  C   UNL     1      34.760 -20.113 -21.396  0.00  0.00    +0.005 C 
ATOM      9  C   UNL     1      35.182 -19.120 -22.286  0.00  0.00    +0.036 C 
ATOM     10  C   UNL     1      37.262 -18.806 -21.053  0.00  0.00    +0.015 C 
ATOM     11  C   UNL     1      36.420 -18.472 -22.117  0.00  0.00    +0.004 C 
ATOM     12  H   UNL     1      38.384 -19.965 -18.763  0.00  0.00    +0.155 HD
ENDROOT
BRANCH   9  15
ATOM     13  O   UNL     1      34.370 -17.447 -23.764  0.00  0.00    -0.431 OA
ATOM     14  N   UNL     1      32.927 -18.538 -25.122  0.00  0.00    -0.203 NA
ATOM     15  C   UNL     1      34.335 -18.753 -23.396  0.00  0.00    +0.166 C 
ATOM     16  C   UNL     1      33.465 -19.414 -24.214  0.00  0.00    +0.140 C 
ATOM     17  C   UNL     1      33.498 -17.397 -24.808  0.00  0.00    +0.285 C 
ENDBRANCH   9  15
BRANCH   6  18
ATOM     18  N   UNL     1      34.456 -23.127 -17.942  0.00  0.00    -0.311 N 
ATOM     19  H   UNL     1      35.210 -23.756 -17.868  0.00  0.00    +0.152 HD
BRANCH  18  29
ATOM     20  S   UNL     1      28.915 -23.247 -15.034  0.00  0.00    -0.002 S 
ATOM     21  O   UNL     1      28.500 -21.908 -14.663  0.00  0.00    -0.172 OA
ATOM     22  O   UNL     1      27.991 -24.362 -15.011  0.00  0.00    -0.172 OA
ATOM     23  C   UNL     1      29.660 -23.166 -16.655  0.00  0.00    +0.177 C 
ATOM     24  C   UNL     1      30.343 -23.677 -14.053  0.00  0.00    +0.177 C 
ATOM     25  C   UNL     1      31.116 -23.271 -16.354  0.00  0.00    +0.000 C 
ATOM     26  C   UNL     1      31.466 -23.532 -15.024  0.00  0.00    -0.001 C 
ATOM     27  C   UNL     1      32.105 -23.138 -17.326  0.00  0.00    +0.012 C 
ATOM     28  C   UNL     1      32.805 -23.661 -14.664  0.00  0.00    -0.002 C 
ATOM     29  C   UNL     1      33.447 -23.263 -16.964  0.00  0.00    +0.048 C 
ATOM     30  C   UNL     1      33.796 -23.524 -15.637  0.00  0.00    +0.014 C 
ENDBRANCH  18  29
ENDBRANCH   6  18
TORSDOF 3
ENDMDL
MODEL 9
REMARK VINA RESULT:     -10.7      3.326      6.683
REMARK  Name = 5288710
REMARK  3 active torsions:
REMARK  status: ('A' for Active; 'I' for Inactive)
REMARK    1  A    between atoms: C_6  and  N_18
REMARK    2  A    between atoms: C_9  and  C_15
REMARK    3  A    between atoms: N_18  and  C_29
REMARK                            x       y       z     vdW  Elec       q    Type
REMARK                         _______ _______ _______ _____ _____    ______ ____
ROOT
ATOM      1  O   UNL     1      31.962 -23.018 -15.225  0.00  0.00    -0.270 OA
ATOM      2  N   UNL     1      33.315 -23.794 -13.450  0.00  0.00    -0.280 N 
ATOM      3  C   UNL     1      35.261 -24.244 -14.589  0.00  0.00    +0.019 C 
ATOM      4  C   UNL     1      34.267 -23.740 -15.530  0.00  0.00    +0.069 C 
ATOM      5  C   UNL     1      34.631 -24.256 -13.342  0.00  0.00    +0.051 C 
ATOM      6  C   UNL     1      34.389 -23.545 -16.846  0.00  0.00    +0.066 C 
ATOM      7  C   UNL     1      33.005 -23.452 -14.770  0.00  0.00    +0.251 C 
ATOM      8  C   UNL     1      36.573 -24.661 -14.722  0.00  0.00    +0.005 C 
ATOM      9  C   UNL     1      37.240 -25.093 -13.572  0.00  0.00    +0.036 C 
ATOM     10  C   UNL     1      35.272 -24.678 -12.193  0.00  0.00    +0.015 C 
ATOM     11  C   UNL     1      36.597 -25.102 -12.320  0.00  0.00    +0.004 C 
ATOM     12  H   UNL     1      32.688 -23.719 -12.695  0.00  0.00    +0.155 HD
ENDROOT
BRANCH   9  15
ATOM     13  O   UNL     1      39.412 -24.818 -14.494  0.00  0.00    -0.431 OA
ATOM     14  N   UNL     1      40.635 -26.487 -13.579  0.00  0.00    -0.203 NA
ATOM     15  C   UNL     1      38.610 -25.538 -13.669  0.00  0.00    +0.166 C 
ATOM     16  C   UNL     1      39.345 -26.545 -13.115  0.00  0.00    +0.140 C 
ATOM     17  C   UNL     1      40.613 -25.450 -14.386  0.00  0.00    +0.285 C 
ENDBRANCH   9  15
BRANCH   6  18
ATOM     18  N   UNL     1      33.458 -23.077 -17.705  0.00  0.00    -0.311 N 
ATOM     19  H   UNL     1      32.559 -23.468 -17.614  0.00  0.00    +0.152 HD
BRANCH  18  29
ATOM     20  S   UNL     1      35.861 -18.838 -21.632  0.00  0.00    -0.002 S 
ATOM     21  O   UNL     1      36.034 -17.561 -20.967  0.00  0.00    -0.172 OA
ATOM     22  O   UNL     1      36.480 -19.119 -22.911  0.00  0.00    -0.172 OA
ATOM     23  C   UNL     1      36.324 -20.127 -20.486  0.00  0.00    +0.177 C 
ATOM     24  C   UNL     1      34.109 -19.156 -21.772  0.00  0.00    +0.177 C 
ATOM     25  C   UNL     1      35.006 -20.670 -20.051  0.00  0.00    +0.000 C 
ATOM     26  C   UNL     1      33.874 -20.174 -20.708  0.00  0.00    -0.001 C 
ATOM     27  C   UNL     1      34.872 -21.635 -19.055  0.00  0.00    +0.012 C 
ATOM     28  C   UNL     1      32.606 -20.643 -20.370  0.00  0.00    -0.002 C 
ATOM     29  C   UNL     1      33.602 -22.102 -18.714  0.00  0.00    +0.048 C 
ATOM     30  C   UNL     1      32.472 -21.606 -19.370  0.00  0.00    +0.014 C 
ENDBRANCH  18  29
ENDBRANCH   6  18
TORSDOF 3
ENDMDL
