MODEL 1
REMARK VINA RESULT:     -12.3      0.000      0.000
REMARK  Name = 5567
REMARK  8 active torsions:
REMARK  status: ('A' for Active; 'I' for Inactive)
REMARK    1  A    between atoms: N_1  and  C_20
REMARK    2  A    between atoms: C_2  and  C_8
REMARK    3  A    between atoms: C_2  and  O_18
REMARK    4  A    between atoms: C_11  and  C_17
REMARK    5  A    between atoms: C_20  and  C_21
REMARK    6  A    between atoms: C_21  and  C_22
REMARK    7  A    between atoms: C_22  and  C_24
REMARK    8  A    between atoms: C_24  and  C_26
REMARK                            x       y       z     vdW  Elec       q    Type
REMARK                         _______ _______ _______ _____ _____    ______ ____
ROOT
ATOM      1  N   UNL     1      35.173 -20.546 -19.916  0.00  0.00    +0.387 N 
ATOM      2  C   UNL     1      33.848 -22.673 -18.320  0.00  0.00    +0.103 C 
ATOM      3  C   UNL     1      33.089 -21.522 -19.017  0.00  0.00    +0.008 C 
ATOM      4  C   UNL     1      35.315 -22.238 -18.105  0.00  0.00    +0.008 C 
ATOM      5  C   UNL     1      33.816 -20.987 -20.257  0.00  0.00    -0.075 C 
ATOM      6  C   UNL     1      35.964 -21.651 -19.366  0.00  0.00    -0.075 C 
ATOM      7  H   UNL     1      35.098 -19.825 -19.198  0.00  0.00    -0.080 HD
ENDROOT
BRANCH   2   8
ATOM      8  C   UNL     1      33.231 -23.148 -17.003  0.00  0.00    +0.002 C 
ATOM      9  C   UNL     1      31.853 -23.060 -16.808  0.00  0.00    +0.002 C 
ATOM     10  C   UNL     1      34.047 -23.671 -16.002  0.00  0.00    -0.002 C 
ATOM     11  C   UNL     1      31.290 -23.495 -15.608  0.00  0.00    +0.071 C 
ATOM     12  C   UNL     1      33.484 -24.106 -14.802  0.00  0.00    -0.000 C 
ATOM     13  C   UNL     1      32.106 -24.018 -14.605  0.00  0.00    +0.004 C 
BRANCH  11  17
ATOM     14  F   UNL     1      29.263 -24.539 -14.885  0.00  0.00    -0.166 F 
ATOM     15  F   UNL     1      29.452 -22.407 -14.534  0.00  0.00    -0.166 F 
ATOM     16  F   UNL     1      29.136 -23.149 -16.553  0.00  0.00    -0.166 F 
ATOM     17  C   UNL     1      29.817 -23.399 -15.397  0.00  0.00    +0.419 C 
ENDBRANCH  11  17
ENDBRANCH   2   8
BRANCH   2  18
ATOM     18  O   UNL     1      33.811 -23.813 -19.192  0.00  0.00    -0.383 OA
ATOM     19  H   UNL     1      33.683 -24.619 -18.666  0.00  0.00    +0.211 HD
ENDBRANCH   2  18
BRANCH   1  20
ATOM     20  C   UNL     1      35.836 -19.973 -21.087  0.00  0.00    -0.077 C 
BRANCH  20  21
ATOM     21  C   UNL     1      34.821 -19.225 -21.955  0.00  0.00    -0.015 C 
BRANCH  21  22
ATOM     22  C   UNL     1      35.481 -18.146 -22.818  0.00  0.00    +0.067 C 
BRANCH  22  24
ATOM     23  O   UNL     1      34.057 -18.308 -24.761  0.00  0.00    -0.291 OA
ATOM     24  C   UNL     1      34.562 -17.593 -23.899  0.00  0.00    +0.173 C 
BRANCH  24  26
ATOM     25  F   UNL     1      33.403 -12.131 -23.881  0.00  0.00    -0.204 F 
ATOM     26  C   UNL     1      34.251 -16.135 -23.894  0.00  0.00    +0.035 C 
ATOM     27  C   UNL     1      34.612 -15.386 -22.796  0.00  0.00    +0.005 C 
ATOM     28  C   UNL     1      33.617 -15.591 -24.987  0.00  0.00    +0.005 C 
ATOM     29  C   UNL     1      34.322 -14.021 -22.792  0.00  0.00    +0.030 C 
ATOM     30  C   UNL     1      33.327 -14.226 -24.983  0.00  0.00    +0.030 C 
ATOM     31  C   UNL     1      33.680 -13.441 -23.885  0.00  0.00    +0.140 C 
ENDBRANCH  24  26
ENDBRANCH  22  24
ENDBRANCH  21  22
ENDBRANCH  20  21
ENDBRANCH   1  20
TORSDOF 8
ENDMDL
MODEL 2
REMARK VINA RESULT:     -12.0      3.339     11.094
REMARK  Name = 5567
REMARK  8 active torsions:
REMARK  status: ('A' for Active; 'I' for Inactive)
REMARK    1  A    between atoms: N_1  and  C_20
REMARK    2  A    between atoms: C_2  and  C_8
REMARK    3  A    between atoms: C_2  and  O_18
REMARK    4  A    between atoms: C_11  and  C_17
REMARK    5  A    between atoms: C_20  and  C_21
REMARK    6  A    between atoms: C_21  and  C_22
REMARK    7  A    between atoms: C_22  and  C_24
REMARK    8  A    between atoms: C_24  and  C_26
REMARK                            x       y       z     vdW  Elec       q    Type
REMARK                         _______ _______ _______ _____ _____    ______ ____
ROOT
ATOM      1  N   UNL     1      34.087 -16.155 -23.723  0.00  0.00    +0.387 N 
ATOM      2  C   UNL     1      33.570 -13.280 -23.179  0.00  0.00    +0.103 C 
ATOM      3  C   UNL     1      34.195 -14.251 -22.153  0.00  0.00    +0.008 C 
ATOM      4  C   UNL     1      32.779 -14.106 -24.220  0.00  0.00    +0.008 C 
ATOM      5  C   UNL     1      34.958 -15.409 -22.807  0.00  0.00    -0.075 C 
ATOM      6  C   UNL     1      33.575 -15.288 -24.788  0.00  0.00    -0.075 C 
ATOM      7  H   UNL     1      33.291 -16.500 -23.187  0.00  0.00    -0.080 HD
ENDROOT
BRANCH   2   8
ATOM      8  C   UNL     1      32.686 -12.186 -22.578  0.00  0.00    +0.002 C 
ATOM      9  C   UNL     1      32.657 -10.919 -23.157  0.00  0.00    +0.002 C 
ATOM     10  C   UNL     1      31.910 -12.460 -21.453  0.00  0.00    -0.002 C 
ATOM     11  C   UNL     1      31.850  -9.921 -22.610  0.00  0.00    +0.071 C 
ATOM     12  C   UNL     1      31.103 -11.462 -20.906  0.00  0.00    -0.000 C 
ATOM     13  C   UNL     1      31.073 -10.193 -21.484  0.00  0.00    +0.004 C 
BRANCH  11  17
ATOM     14  F   UNL     1      31.778  -8.586 -24.593  0.00  0.00    -0.166 F 
ATOM     15  F   UNL     1      30.741  -7.816 -22.851  0.00  0.00    -0.166 F 
ATOM     16  F   UNL     1      32.914  -7.816 -22.907  0.00  0.00    -0.166 F 
ATOM     17  C   UNL     1      31.819  -8.564 -23.228  0.00  0.00    +0.419 C 
ENDBRANCH  11  17
ENDBRANCH   2   8
BRANCH   2  18
ATOM     18  O   UNL     1      34.643 -12.587 -23.836  0.00  0.00    -0.383 OA
ATOM     19  H   UNL     1      34.610 -12.770 -24.788  0.00  0.00    +0.211 HD
ENDBRANCH   2  18
BRANCH   1  20
ATOM     20  C   UNL     1      34.800 -17.299 -24.290  0.00  0.00    -0.077 C 
BRANCH  20  21
ATOM     21  C   UNL     1      34.277 -18.602 -23.683  0.00  0.00    -0.015 C 
BRANCH  21  22
ATOM     22  C   UNL     1      35.338 -19.318 -22.842  0.00  0.00    +0.067 C 
BRANCH  22  24
ATOM     23  O   UNL     1      35.339 -18.006 -20.816  0.00  0.00    -0.291 OA
ATOM     24  C   UNL     1      35.169 -19.102 -21.344  0.00  0.00    +0.173 C 
BRANCH  24  26
ATOM     25  F   UNL     1      33.645 -23.435 -18.170  0.00  0.00    -0.204 F 
ATOM     26  C   UNL     1      34.763 -20.259 -20.498  0.00  0.00    +0.035 C 
ATOM     27  C   UNL     1      35.744 -21.035 -19.922  0.00  0.00    +0.005 C 
ATOM     28  C   UNL     1      33.421 -20.509 -20.320  0.00  0.00    +0.005 C 
ATOM     29  C   UNL     1      35.363 -22.118 -19.129  0.00  0.00    +0.030 C 
ATOM     30  C   UNL     1      33.040 -21.591 -19.527  0.00  0.00    +0.030 C 
ATOM     31  C   UNL     1      34.011 -22.396 -18.931  0.00  0.00    +0.140 C 
ENDBRANCH  24  26
ENDBRANCH  22  24
ENDBRANCH  21  22
ENDBRANCH  20  21
ENDBRANCH   1  20
TORSDOF 8
ENDMDL
MODEL 3
REMARK VINA RESULT:     -11.9      3.371     11.683
REMARK  Name = 5567
REMARK  8 active torsions:
REMARK  status: ('A' for Active; 'I' for Inactive)
REMARK    1  A    between atoms: N_1  and  C_20
REMARK    2  A    between atoms: C_2  and  C_8
REMARK    3  A    between atoms: C_2  and  O_18
REMARK    4  A    between atoms: C_11  and  C_17
REMARK    5  A    between atoms: C_20  and  C_21
REMARK    6  A    between atoms: C_21  and  C_22
REMARK    7  A    between atoms: C_22  and  C_24
REMARK    8  A    between atoms: C_24  and  C_26
REMARK                            x       y       z     vdW  Elec       q    Type
REMARK                         _______ _______ _______ _____ _____    ______ ____
ROOT
ATOM      1  N   UNL     1      34.631 -15.439 -23.607  0.00  0.00    +0.387 N 
ATOM      2  C   UNL     1      33.039 -13.006 -22.996  0.00  0.00    +0.103 C 
ATOM      3  C   UNL     1      33.209 -13.588 -24.417  0.00  0.00    +0.008 C 
ATOM      4  C   UNL     1      34.212 -13.498 -22.118  0.00  0.00    +0.008 C 
ATOM      5  C   UNL     1      33.457 -15.102 -24.420  0.00  0.00    -0.075 C 
ATOM      6  C   UNL     1      34.450 -15.011 -22.216  0.00  0.00    -0.075 C 
ATOM      7  H   UNL     1      35.433 -14.937 -23.989  0.00  0.00    -0.080 HD
ENDROOT
BRANCH   2   8
ATOM      8  C   UNL     1      32.924 -11.482 -22.933  0.00  0.00    +0.002 C 
ATOM      9  C   UNL     1      33.985 -10.686 -23.361  0.00  0.00    +0.002 C 
ATOM     10  C   UNL     1      31.757 -10.893 -22.450  0.00  0.00    -0.002 C 
ATOM     11  C   UNL     1      33.880  -9.295 -23.305  0.00  0.00    +0.071 C 
ATOM     12  C   UNL     1      31.652  -9.502 -22.394  0.00  0.00    -0.000 C 
ATOM     13  C   UNL     1      32.714  -8.704 -22.821  0.00  0.00    +0.004 C 
BRANCH  11  17
ATOM     14  F   UNL     1      34.725  -7.688 -24.863  0.00  0.00    -0.166 F 
ATOM     15  F   UNL     1      35.439  -7.549 -22.820  0.00  0.00    -0.166 F 
ATOM     16  F   UNL     1      36.118  -9.172 -24.097  0.00  0.00    -0.166 F 
ATOM     17  C   UNL     1      35.015  -8.442 -23.761  0.00  0.00    +0.419 C 
ENDBRANCH  11  17
ENDBRANCH   2   8
BRANCH   2  18
ATOM     18  O   UNL     1      31.803 -13.504 -22.463  0.00  0.00    -0.383 OA
ATOM     19  H   UNL     1      31.102 -13.406 -23.126  0.00  0.00    +0.211 HD
ENDBRANCH   2  18
BRANCH   1  20
ATOM     20  C   UNL     1      34.904 -16.874 -23.671  0.00  0.00    -0.077 C 
BRANCH  20  21
ATOM     21  C   UNL     1      35.325 -17.395 -22.295  0.00  0.00    -0.015 C 
BRANCH  21  22
ATOM     22  C   UNL     1      35.805 -18.848 -22.345  0.00  0.00    +0.067 C 
BRANCH  22  24
ATOM     23  O   UNL     1      37.328 -18.998 -20.479  0.00  0.00    -0.291 OA
ATOM     24  C   UNL     1      36.281 -19.374 -20.998  0.00  0.00    +0.173 C 
BRANCH  24  26
ATOM     25  F   UNL     1      33.096 -23.084 -18.302  0.00  0.00    -0.204 F 
ATOM     26  C   UNL     1      35.431 -20.365 -20.279  0.00  0.00    +0.035 C 
ATOM     27  C   UNL     1      36.043 -21.306 -19.481  0.00  0.00    +0.005 C 
ATOM     28  C   UNL     1      34.065 -20.303 -20.438  0.00  0.00    +0.005 C 
ATOM     29  C   UNL     1      35.247 -22.233 -18.807  0.00  0.00    +0.030 C 
ATOM     30  C   UNL     1      33.269 -21.230 -19.765  0.00  0.00    +0.030 C 
ATOM     31  C   UNL     1      33.860 -22.194 -18.949  0.00  0.00    +0.140 C 
ENDBRANCH  24  26
ENDBRANCH  22  24
ENDBRANCH  21  22
ENDBRANCH  20  21
ENDBRANCH   1  20
TORSDOF 8
ENDMDL
MODEL 4
REMARK VINA RESULT:     -11.8      1.923      2.438
REMARK  Name = 5567
REMARK  8 active torsions:
REMARK  status: ('A' for Active; 'I' for Inactive)
REMARK    1  A    between atoms: N_1  and  C_20
REMARK    2  A    between atoms: C_2  and  C_8
REMARK    3  A    between atoms: C_2  and  O_18
REMARK    4  A    between atoms: C_11  and  C_17
REMARK    5  A    between atoms: C_20  and  C_21
REMARK    6  A    between atoms: C_21  and  C_22
REMARK    7  A    between atoms: C_22  and  C_24
REMARK    8  A    between atoms: C_24  and  C_26
REMARK                            x       y       z     vdW  Elec       q    Type
REMARK                         _______ _______ _______ _____ _____    ______ ____
ROOT
ATOM      1  N   UNL     1      35.297 -20.471 -20.026  0.00  0.00    +0.387 N 
ATOM      2  C   UNL     1      34.002 -22.606 -18.416  0.00  0.00    +0.103 C 
ATOM      3  C   UNL     1      33.228 -21.462 -19.109  0.00  0.00    +0.008 C 
ATOM      4  C   UNL     1      35.468 -22.157 -18.214  0.00  0.00    +0.008 C 
ATOM      5  C   UNL     1      33.940 -20.924 -20.356  0.00  0.00    -0.075 C 
ATOM      6  C   UNL     1      36.101 -21.568 -19.481  0.00  0.00    -0.075 C 
ATOM      7  H   UNL     1      35.221 -19.749 -19.310  0.00  0.00    -0.080 HD
ENDROOT
BRANCH   2   8
ATOM      8  C   UNL     1      33.399 -23.084 -17.094  0.00  0.00    +0.002 C 
ATOM      9  C   UNL     1      34.233 -23.543 -16.075  0.00  0.00    +0.002 C 
ATOM     10  C   UNL     1      32.018 -23.056 -16.910  0.00  0.00    -0.002 C 
ATOM     11  C   UNL     1      33.684 -23.978 -14.869  0.00  0.00    +0.071 C 
ATOM     12  C   UNL     1      31.469 -23.491 -15.703  0.00  0.00    -0.000 C 
ATOM     13  C   UNL     1      32.302 -23.952 -14.683  0.00  0.00    +0.004 C 
BRANCH  11  17
ATOM     14  F   UNL     1      33.901 -24.844 -12.649  0.00  0.00    -0.166 F 
ATOM     15  F   UNL     1      35.312 -25.566 -14.130  0.00  0.00    -0.166 F 
ATOM     16  F   UNL     1      35.478 -23.534 -13.374  0.00  0.00    -0.166 F 
ATOM     17  C   UNL     1      34.574 -24.472 -13.779  0.00  0.00    +0.419 C 
ENDBRANCH  11  17
ENDBRANCH   2   8
BRANCH   2  18
ATOM     18  O   UNL     1      33.968 -23.748 -19.286  0.00  0.00    -0.383 OA
ATOM     19  H   UNL     1      34.766 -24.283 -19.148  0.00  0.00    +0.211 HD
ENDBRANCH   2  18
BRANCH   1  20
ATOM     20  C   UNL     1      35.945 -19.894 -21.203  0.00  0.00    -0.077 C 
BRANCH  20  21
ATOM     21  C   UNL     1      34.909 -19.203 -22.092  0.00  0.00    -0.015 C 
BRANCH  21  22
ATOM     22  C   UNL     1      35.436 -17.894 -22.688  0.00  0.00    +0.067 C 
BRANCH  22  24
ATOM     23  O   UNL     1      34.171 -18.108 -24.733  0.00  0.00    -0.291 OA
ATOM     24  C   UNL     1      34.592 -17.373 -23.843  0.00  0.00    +0.173 C 
BRANCH  24  26
ATOM     25  F   UNL     1      33.312 -11.940 -23.978  0.00  0.00    -0.204 F 
ATOM     26  C   UNL     1      34.249 -15.923 -23.879  0.00  0.00    +0.035 C 
ATOM     27  C   UNL     1      34.599 -15.134 -22.805  0.00  0.00    +0.005 C 
ATOM     28  C   UNL     1      33.597 -15.425 -24.984  0.00  0.00    +0.005 C 
ATOM     29  C   UNL     1      34.279 -13.777 -22.839  0.00  0.00    +0.030 C 
ATOM     30  C   UNL     1      33.277 -14.067 -25.017  0.00  0.00    +0.030 C 
ATOM     31  C   UNL     1      33.618 -13.243 -23.945  0.00  0.00    +0.140 C 
ENDBRANCH  24  26
ENDBRANCH  22  24
ENDBRANCH  21  22
ENDBRANCH  20  21
ENDBRANCH   1  20
TORSDOF 8
ENDMDL
MODEL 5
REMARK VINA RESULT:     -11.5      3.748     10.629
REMARK  Name = 5567
REMARK  8 active torsions:
REMARK  status: ('A' for Active; 'I' for Inactive)
REMARK    1  A    between atoms: N_1  and  C_20
REMARK    2  A    between atoms: C_2  and  C_8
REMARK    3  A    between atoms: C_2  and  O_18
REMARK    4  A    between atoms: C_11  and  C_17
REMARK    5  A    between atoms: C_20  and  C_21
REMARK    6  A    between atoms: C_21  and  C_22
REMARK    7  A    between atoms: C_22  and  C_24
REMARK    8  A    between atoms: C_24  and  C_26
REMARK                            x       y       z     vdW  Elec       q    Type
REMARK                         _______ _______ _______ _____ _____    ______ ____
ROOT
ATOM      1  N   UNL     1      34.696 -15.243 -23.221  0.00  0.00    +0.387 N 
ATOM      2  C   UNL     1      32.764 -13.125 -22.442  0.00  0.00    +0.103 C 
ATOM      3  C   UNL     1      33.191 -13.405 -23.900  0.00  0.00    +0.008 C 
ATOM      4  C   UNL     1      33.856 -13.670 -21.494  0.00  0.00    +0.008 C 
ATOM      5  C   UNL     1      33.612 -14.861 -24.133  0.00  0.00    -0.075 C 
ATOM      6  C   UNL     1      34.280 -15.108 -21.822  0.00  0.00    -0.075 C 
ATOM      7  H   UNL     1      35.478 -14.608 -23.380  0.00  0.00    -0.080 HD
ENDROOT
BRANCH   2   8
ATOM      8  C   UNL     1      32.465 -11.658 -22.128  0.00  0.00    +0.002 C 
ATOM      9  C   UNL     1      32.128 -11.279 -20.830  0.00  0.00    +0.002 C 
ATOM     10  C   UNL     1      32.532 -10.703 -23.141  0.00  0.00    -0.002 C 
ATOM     11  C   UNL     1      31.857  -9.940 -20.543  0.00  0.00    +0.071 C 
ATOM     12  C   UNL     1      32.260  -9.365 -22.854  0.00  0.00    -0.000 C 
ATOM     13  C   UNL     1      31.923  -8.984 -21.555  0.00  0.00    +0.004 C 
BRANCH  11  17
ATOM     14  F   UNL     1      30.314 -10.066 -18.719  0.00  0.00    -0.166 F 
ATOM     15  F   UNL     1      32.418  -9.903 -18.218  0.00  0.00    -0.166 F 
ATOM     16  F   UNL     1      31.358  -8.183 -19.022  0.00  0.00    -0.166 F 
ATOM     17  C   UNL     1      31.495  -9.534 -19.154  0.00  0.00    +0.419 C 
ENDBRANCH  11  17
ENDBRANCH   2   8
BRANCH   2  18
ATOM     18  O   UNL     1      31.533 -13.825 -22.204  0.00  0.00    -0.383 OA
ATOM     19  H   UNL     1      31.722 -14.761 -22.031  0.00  0.00    +0.211 HD
ENDBRANCH   2  18
BRANCH   1  20
ATOM     20  C   UNL     1      35.140 -16.609 -23.496  0.00  0.00    -0.077 C 
BRANCH  20  21
ATOM     21  C   UNL     1      35.280 -17.392 -22.189  0.00  0.00    -0.015 C 
BRANCH  21  22
ATOM     22  C   UNL     1      35.984 -18.737 -22.391  0.00  0.00    +0.067 C 
BRANCH  22  24
ATOM     23  O   UNL     1      37.560 -19.133 -20.605  0.00  0.00    -0.291 OA
ATOM     24  C   UNL     1      36.457 -19.373 -21.091  0.00  0.00    +0.173 C 
BRANCH  24  26
ATOM     25  F   UNL     1      33.008 -22.848 -18.406  0.00  0.00    -0.204 F 
ATOM     26  C   UNL     1      35.536 -20.301 -20.375  0.00  0.00    +0.035 C 
ATOM     27  C   UNL     1      36.078 -21.281 -19.571  0.00  0.00    +0.005 C 
ATOM     28  C   UNL     1      34.179 -20.145 -20.541  0.00  0.00    +0.005 C 
ATOM     29  C   UNL     1      35.216 -22.149 -18.901  0.00  0.00    +0.030 C 
ATOM     30  C   UNL     1      33.317 -21.013 -19.871  0.00  0.00    +0.030 C 
ATOM     31  C   UNL     1      33.836 -22.015 -19.050  0.00  0.00    +0.140 C 
ENDBRANCH  24  26
ENDBRANCH  22  24
ENDBRANCH  21  22
ENDBRANCH  20  21
ENDBRANCH   1  20
TORSDOF 8
ENDMDL
MODEL 6
REMARK VINA RESULT:     -11.4      4.190     11.259
REMARK  Name = 5567
REMARK  8 active torsions:
REMARK  status: ('A' for Active; 'I' for Inactive)
REMARK    1  A    between atoms: N_1  and  C_20
REMARK    2  A    between atoms: C_2  and  C_8
REMARK    3  A    between atoms: C_2  and  O_18
REMARK    4  A    between atoms: C_11  and  C_17
REMARK    5  A    between atoms: C_20  and  C_21
REMARK    6  A    between atoms: C_21  and  C_22
REMARK    7  A    between atoms: C_22  and  C_24
REMARK    8  A    between atoms: C_24  and  C_26
REMARK                            x       y       z     vdW  Elec       q    Type
REMARK                         _______ _______ _______ _____ _____    ______ ____
ROOT
ATOM      1  N   UNL     1      34.391 -14.509 -22.184  0.00  0.00    +0.387 N 
ATOM      2  C   UNL     1      32.427 -12.406 -21.443  0.00  0.00    +0.103 C 
ATOM      3  C   UNL     1      33.420 -12.279 -22.619  0.00  0.00    +0.008 C 
ATOM      4  C   UNL     1      32.979 -13.446 -20.441  0.00  0.00    +0.008 C 
ATOM      5  C   UNL     1      33.823 -13.633 -23.215  0.00  0.00    -0.075 C 
ATOM      6  C   UNL     1      33.425 -14.754 -21.109  0.00  0.00    -0.075 C 
ATOM      7  H   UNL     1      35.198 -14.034 -21.780  0.00  0.00    -0.080 HD
ENDROOT
BRANCH   2   8
ATOM      8  C   UNL     1      32.101 -11.093 -20.729  0.00  0.00    +0.002 C 
ATOM      9  C   UNL     1      32.026  -9.906 -21.456  0.00  0.00    +0.002 C 
ATOM     10  C   UNL     1      31.876 -11.088 -19.354  0.00  0.00    -0.002 C 
ATOM     11  C   UNL     1      31.727  -8.709 -20.805  0.00  0.00    +0.071 C 
ATOM     12  C   UNL     1      31.577  -9.890 -18.703  0.00  0.00    -0.000 C 
ATOM     13  C   UNL     1      31.503  -8.701 -19.428  0.00  0.00    +0.004 C 
BRANCH  11  17
ATOM     14  F   UNL     1      31.068  -6.411 -20.891  0.00  0.00    -0.166 F 
ATOM     15  F   UNL     1      32.868  -6.959 -21.969  0.00  0.00    -0.166 F 
ATOM     16  F   UNL     1      30.923  -7.565 -22.728  0.00  0.00    -0.166 F 
ATOM     17  C   UNL     1      31.650  -7.437 -21.580  0.00  0.00    +0.419 C 
ENDBRANCH  11  17
ENDBRANCH   2   8
BRANCH   2  18
ATOM     18  O   UNL     1      31.177 -12.873 -21.974  0.00  0.00    -0.383 OA
ATOM     19  H   UNL     1      31.346 -13.524 -22.674  0.00  0.00    +0.211 HD
ENDBRANCH   2  18
BRANCH   1  20
ATOM     20  C   UNL     1      34.837 -15.771 -22.771  0.00  0.00    -0.077 C 
BRANCH  20  21
ATOM     21  C   UNL     1      35.256 -16.748 -21.670  0.00  0.00    -0.015 C 
BRANCH  21  22
ATOM     22  C   UNL     1      35.598 -18.135 -22.224  0.00  0.00    +0.067 C 
BRANCH  22  24
ATOM     23  O   UNL     1      37.492 -18.923 -20.952  0.00  0.00    -0.291 OA
ATOM     24  C   UNL     1      36.297 -19.033 -21.213  0.00  0.00    +0.173 C 
BRANCH  24  26
ATOM     25  F   UNL     1      33.284 -22.903 -18.544  0.00  0.00    -0.204 F 
ATOM     26  C   UNL     1      35.493 -20.067 -20.501  0.00  0.00    +0.035 C 
ATOM     27  C   UNL     1      36.151 -21.023 -19.760  0.00  0.00    +0.005 C 
ATOM     28  C   UNL     1      34.121 -20.027 -20.610  0.00  0.00    +0.005 C 
ATOM     29  C   UNL     1      35.399 -21.990 -19.093  0.00  0.00    +0.030 C 
ATOM     30  C   UNL     1      33.368 -20.994 -19.943  0.00  0.00    +0.030 C 
ATOM     31  C   UNL     1      34.007 -21.975 -19.184  0.00  0.00    +0.140 C 
ENDBRANCH  24  26
ENDBRANCH  22  24
ENDBRANCH  21  22
ENDBRANCH  20  21
ENDBRANCH   1  20
TORSDOF 8
ENDMDL
MODEL 7
REMARK VINA RESULT:     -11.3      3.530      5.899
REMARK  Name = 5567
REMARK  8 active torsions:
REMARK  status: ('A' for Active; 'I' for Inactive)
REMARK    1  A    between atoms: N_1  and  C_20
REMARK    2  A    between atoms: C_2  and  C_8
REMARK    3  A    between atoms: C_2  and  O_18
REMARK    4  A    between atoms: C_11  and  C_17
REMARK    5  A    between atoms: C_20  and  C_21
REMARK    6  A    between atoms: C_21  and  C_22
REMARK    7  A    between atoms: C_22  and  C_24
REMARK    8  A    between atoms: C_24  and  C_26
REMARK                            x       y       z     vdW  Elec       q    Type
REMARK                         _______ _______ _______ _____ _____    ______ ____
ROOT
ATOM      1  N   UNL     1      34.114 -16.242 -23.243  0.00  0.00    +0.387 N 
ATOM      2  C   UNL     1      35.628 -18.403 -21.878  0.00  0.00    +0.103 C 
ATOM      3  C   UNL     1      34.736 -18.630 -23.119  0.00  0.00    +0.008 C 
ATOM      4  C   UNL     1      35.169 -17.108 -21.170  0.00  0.00    +0.008 C 
ATOM      5  C   UNL     1      34.619 -17.387 -24.010  0.00  0.00    -0.075 C 
ATOM      6  C   UNL     1      35.008 -15.919 -22.127  0.00  0.00    -0.075 C 
ATOM      7  H   UNL     1      33.206 -16.499 -22.856  0.00  0.00    -0.080 HD
ENDROOT
BRANCH   2   8
ATOM      8  C   UNL     1      35.666 -19.570 -20.890  0.00  0.00    +0.002 C 
ATOM      9  C   UNL     1      34.495 -20.258 -20.579  0.00  0.00    +0.002 C 
ATOM     10  C   UNL     1      36.874 -19.944 -20.304  0.00  0.00    -0.002 C 
ATOM     11  C   UNL     1      34.530 -21.323 -19.678  0.00  0.00    +0.071 C 
ATOM     12  C   UNL     1      36.909 -21.010 -19.403  0.00  0.00    -0.000 C 
ATOM     13  C   UNL     1      35.737 -21.698 -19.090  0.00  0.00    +0.004 C 
BRANCH  11  17
ATOM     14  F   UNL     1      32.812 -21.801 -18.084  0.00  0.00    -0.166 F 
ATOM     15  F   UNL     1      32.233 -21.767 -20.174  0.00  0.00    -0.166 F 
ATOM     16  F   UNL     1      33.429 -23.413 -19.407  0.00  0.00    -0.166 F 
ATOM     17  C   UNL     1      33.276 -22.058 -19.343  0.00  0.00    +0.419 C 
ENDBRANCH  11  17
ENDBRANCH   2   8
BRANCH   2  18
ATOM     18  O   UNL     1      36.980 -18.244 -22.334  0.00  0.00    -0.383 OA
ATOM     19  H   UNL     1      37.227 -19.003 -22.885  0.00  0.00    +0.211 HD
ENDBRANCH   2  18
BRANCH   1  20
ATOM     20  C   UNL     1      33.938 -15.080 -24.114  0.00  0.00    -0.077 C 
BRANCH  20  21
ATOM     21  C   UNL     1      33.906 -13.796 -23.282  0.00  0.00    -0.015 C 
BRANCH  21  22
ATOM     22  C   UNL     1      32.479 -13.377 -22.917  0.00  0.00    +0.067 C 
BRANCH  22  24
ATOM     23  O   UNL     1      32.259 -14.135 -20.636  0.00  0.00    -0.291 OA
ATOM     24  C   UNL     1      32.268 -13.190 -21.421  0.00  0.00    +0.173 C 
BRANCH  24  26
ATOM     25  F   UNL     1      31.597  -8.012 -19.443  0.00  0.00    -0.204 F 
ATOM     26  C   UNL     1      32.088 -11.808 -20.893  0.00  0.00    +0.035 C 
ATOM     27  C   UNL     1      32.014 -11.625 -19.529  0.00  0.00    +0.005 C 
ATOM     28  C   UNL     1      32.003 -10.765 -21.787  0.00  0.00    +0.005 C 
ATOM     29  C   UNL     1      31.846 -10.331 -19.036  0.00  0.00    +0.030 C 
ATOM     30  C   UNL     1      31.835  -9.471 -21.293  0.00  0.00    +0.030 C 
ATOM     31  C   UNL     1      31.758  -9.254 -19.917  0.00  0.00    +0.140 C 
ENDBRANCH  24  26
ENDBRANCH  22  24
ENDBRANCH  21  22
ENDBRANCH  20  21
ENDBRANCH   1  20
TORSDOF 8
ENDMDL
MODEL 8
REMARK VINA RESULT:     -11.1      3.955     11.401
REMARK  Name = 5567
REMARK  8 active torsions:
REMARK  status: ('A' for Active; 'I' for Inactive)
REMARK    1  A    between atoms: N_1  and  C_20
REMARK    2  A    between atoms: C_2  and  C_8
REMARK    3  A    between atoms: C_2  and  O_18
REMARK    4  A    between atoms: C_11  and  C_17
REMARK    5  A    between atoms: C_20  and  C_21
REMARK    6  A    between atoms: C_21  and  C_22
REMARK    7  A    between atoms: C_22  and  C_24
REMARK    8  A    between atoms: C_24  and  C_26
REMARK                            x       y       z     vdW  Elec       q    Type
REMARK                         _______ _______ _______ _____ _____    ______ ____
ROOT
ATOM      1  N   UNL     1      34.248 -14.637 -20.927  0.00  0.00    +0.387 N 
ATOM      2  C   UNL     1      32.609 -12.414 -22.019  0.00  0.00    +0.103 C 
ATOM      3  C   UNL     1      33.853 -12.993 -22.728  0.00  0.00    +0.008 C 
ATOM      4  C   UNL     1      32.703 -12.741 -20.511  0.00  0.00    +0.008 C 
ATOM      5  C   UNL     1      34.114 -14.463 -22.378  0.00  0.00    -0.075 C 
ATOM      6  C   UNL     1      33.031 -14.213 -20.229  0.00  0.00    -0.075 C 
ATOM      7  H   UNL     1      35.016 -14.046 -20.610  0.00  0.00    -0.080 HD
ENDROOT
BRANCH   2   8
ATOM      8  C   UNL     1      32.385 -10.915 -22.231  0.00  0.00    +0.002 C 
ATOM      9  C   UNL     1      32.284 -10.065 -21.131  0.00  0.00    +0.002 C 
ATOM     10  C   UNL     1      32.285 -10.403 -23.523  0.00  0.00    -0.002 C 
ATOM     11  C   UNL     1      32.082  -8.698 -21.324  0.00  0.00    +0.071 C 
ATOM     12  C   UNL     1      32.083  -9.036 -23.716  0.00  0.00    -0.000 C 
ATOM     13  C   UNL     1      31.981  -8.184 -22.616  0.00  0.00    +0.004 C 
BRANCH  11  17
ATOM     14  F   UNL     1      31.451  -8.389 -19.037  0.00  0.00    -0.166 F 
ATOM     15  F   UNL     1      33.169  -7.269 -19.744  0.00  0.00    -0.166 F 
ATOM     16  F   UNL     1      31.170  -6.711 -20.391  0.00  0.00    -0.166 F 
ATOM     17  C   UNL     1      31.972  -7.787 -20.148  0.00  0.00    +0.419 C 
ENDBRANCH  11  17
ENDBRANCH   2   8
BRANCH   2  18
ATOM     18  O   UNL     1      31.450 -13.055 -22.574  0.00  0.00    -0.383 OA
ATOM     19  H   UNL     1      30.801 -13.215 -21.871  0.00  0.00    +0.211 HD
ENDBRANCH   2  18
BRANCH   1  20
ATOM     20  C   UNL     1      34.566 -16.028 -20.605  0.00  0.00    -0.077 C 
BRANCH  20  21
ATOM     21  C   UNL     1      35.168 -16.729 -21.824  0.00  0.00    -0.015 C 
BRANCH  21  22
ATOM     22  C   UNL     1      35.796 -18.079 -21.467  0.00  0.00    +0.067 C 
BRANCH  22  24
ATOM     23  O   UNL     1      34.306 -19.413 -22.819  0.00  0.00    -0.291 OA
ATOM     24  C   UNL     1      34.881 -19.264 -21.744  0.00  0.00    +0.173 C 
BRANCH  24  26
ATOM     25  F   UNL     1      34.192 -23.102 -17.748  0.00  0.00    -0.204 F 
ATOM     26  C   UNL     1      34.697 -20.288 -20.676  0.00  0.00    +0.035 C 
ATOM     27  C   UNL     1      33.417 -20.618 -20.290  0.00  0.00    +0.005 C 
ATOM     28  C   UNL     1      35.813 -20.866 -20.116  0.00  0.00    +0.005 C 
ATOM     29  C   UNL     1      33.245 -21.577 -19.292  0.00  0.00    +0.030 C 
ATOM     30  C   UNL     1      35.641 -21.825 -19.117  0.00  0.00    +0.030 C 
ATOM     31  C   UNL     1      34.357 -22.181 -18.706  0.00  0.00    +0.140 C 
ENDBRANCH  24  26
ENDBRANCH  22  24
ENDBRANCH  21  22
ENDBRANCH  20  21
ENDBRANCH   1  20
TORSDOF 8
ENDMDL
MODEL 9
REMARK VINA RESULT:     -11.0      3.603      9.790
REMARK  Name = 5567
REMARK  8 active torsions:
REMARK  status: ('A' for Active; 'I' for Inactive)
REMARK    1  A    between atoms: N_1  and  C_20
REMARK    2  A    between atoms: C_2  and  C_8
REMARK    3  A    between atoms: C_2  and  O_18
REMARK    4  A    between atoms: C_11  and  C_17
REMARK    5  A    between atoms: C_20  and  C_21
REMARK    6  A    between atoms: C_21  and  C_22
REMARK    7  A    between atoms: C_22  and  C_24
REMARK    8  A    between atoms: C_24  and  C_26
REMARK                            x       y       z     vdW  Elec       q    Type
REMARK                         _______ _______ _______ _____ _____    ______ ____
ROOT
ATOM      1  N   UNL     1      34.365 -23.477 -15.514  0.00  0.00    +0.387 N 
ATOM      2  C   UNL     1      34.314 -22.606 -18.354  0.00  0.00    +0.103 C 
ATOM      3  C   UNL     1      35.523 -22.403 -17.413  0.00  0.00    +0.008 C 
ATOM      4  C   UNL     1      33.042 -22.775 -17.493  0.00  0.00    +0.008 C 
ATOM      5  C   UNL     1      35.603 -23.456 -16.301  0.00  0.00    -0.075 C 
ATOM      6  C   UNL     1      33.208 -23.794 -16.358  0.00  0.00    -0.075 C 
ATOM      7  H   UNL     1      34.225 -22.545 -15.124  0.00  0.00    -0.080 HD
ENDROOT
BRANCH   2   8
ATOM      8  C   UNL     1      34.115 -21.505 -19.396  0.00  0.00    +0.002 C 
ATOM      9  C   UNL     1      35.213 -20.788 -19.869  0.00  0.00    +0.002 C 
ATOM     10  C   UNL     1      32.836 -21.223 -19.873  0.00  0.00    -0.002 C 
ATOM     11  C   UNL     1      35.032 -19.783 -20.821  0.00  0.00    +0.071 C 
ATOM     12  C   UNL     1      32.655 -20.218 -20.825  0.00  0.00    -0.000 C 
ATOM     13  C   UNL     1      33.753 -19.499 -21.298  0.00  0.00    +0.004 C 
BRANCH  11  17
ATOM     14  F   UNL     1      37.381 -19.347 -20.716  0.00  0.00    -0.166 F 
ATOM     15  F   UNL     1      36.436 -19.182 -22.661  0.00  0.00    -0.166 F 
ATOM     16  F   UNL     1      36.068 -17.668 -21.144  0.00  0.00    -0.166 F 
ATOM     17  C   UNL     1      36.205 -19.014 -21.326  0.00  0.00    +0.419 C 
ENDBRANCH  11  17
ENDBRANCH   2   8
BRANCH   2  18
ATOM     18  O   UNL     1      34.542 -23.808 -19.107  0.00  0.00    -0.383 OA
ATOM     19  H   UNL     1      34.844 -23.577 -20.000  0.00  0.00    +0.211 HD
ENDBRANCH   2  18
BRANCH   1  20
ATOM     20  C   UNL     1      34.474 -24.433 -14.413  0.00  0.00    -0.077 C 
BRANCH  20  21
ATOM     21  C   UNL     1      33.372 -24.181 -13.382  0.00  0.00    -0.015 C 
BRANCH  21  22
ATOM     22  C   UNL     1      32.292 -25.266 -13.409  0.00  0.00    +0.067 C 
BRANCH  22  24
ATOM     23  O   UNL     1      30.465 -24.591 -11.983  0.00  0.00    -0.291 OA
ATOM     24  C   UNL     1      30.894 -24.735 -13.125  0.00  0.00    +0.173 C 
BRANCH  24  26
ATOM     25  F   UNL     1      27.650 -23.320 -17.444  0.00  0.00    -0.204 F 
ATOM     26  C   UNL     1      30.027 -24.357 -14.277  0.00  0.00    +0.035 C 
ATOM     27  C   UNL     1      29.911 -23.025 -14.609  0.00  0.00    +0.005 C 
ATOM     28  C   UNL     1      29.375 -25.353 -14.968  0.00  0.00    +0.005 C 
ATOM     29  C   UNL     1      29.101 -22.672 -15.688  0.00  0.00    +0.030 C 
ATOM     30  C   UNL     1      28.564 -25.000 -16.047  0.00  0.00    +0.030 C 
ATOM     31  C   UNL     1      28.428 -23.659 -16.408  0.00  0.00    +0.140 C 
ENDBRANCH  24  26
ENDBRANCH  22  24
ENDBRANCH  21  22
ENDBRANCH  20  21
ENDBRANCH   1  20
TORSDOF 8
ENDMDL
