MODEL 1
REMARK VINA RESULT:     -12.1      0.000      0.000
REMARK  Name = 5289109
REMARK  6 active torsions:
REMARK  status: ('A' for Active; 'I' for Inactive)
REMARK    1  A    between atoms: C_3  and  C_9
REMARK    2  A    between atoms: C_4  and  C_21
REMARK    3  A    between atoms: N_8  and  C_11
REMARK    4  A    between atoms: C_11  and  C_12
REMARK    5  A    between atoms: N_20  and  C_23
REMARK    6  A    between atoms: C_23  and  C_24
REMARK                            x       y       z     vdW  Elec       q    Type
REMARK                         _______ _______ _______ _____ _____    ______ ____
ROOT
ATOM      1  N   UNL     1      34.760 -19.809 -23.192  0.00  0.00    -0.244 NA
ATOM      2  N   UNL     1      33.879 -18.212 -24.767  0.00  0.00    -0.244 NA
ATOM      3  C   UNL     1      35.199 -18.774 -22.446  0.00  0.00    +0.115 C 
ATOM      4  C   UNL     1      34.351 -17.257 -23.963  0.00  0.00    +0.115 C 
ATOM      5  C   UNL     1      35.020 -17.449 -22.790  0.00  0.00    +0.100 C 
ATOM      6  C   UNL     1      34.117 -19.460 -24.323  0.00  0.00    +0.250 C 
ENDROOT
BRANCH   3   9
ATOM      7  O   UNL     1      36.511 -18.264 -20.570  0.00  0.00    -0.269 OA
ATOM      8  N   UNL     1      35.817 -20.465 -20.808  0.00  0.00    -0.296 N 
ATOM      9  C   UNL     1      35.895 -19.128 -21.221  0.00  0.00    +0.260 C 
ATOM     10  H   UNL     1      35.315 -21.097 -21.370  0.00  0.00    +0.150 HD
BRANCH   8  11
ATOM     11  C   UNL     1      36.435 -20.966 -19.602  0.00  0.00    +0.117 C 
BRANCH  11  12
ATOM     12  C   UNL     1      35.466 -21.735 -18.752  0.00  0.00    -0.003 C 
ATOM     13  C   UNL     1      35.878 -22.240 -17.525  0.00  0.00    -0.007 C 
ATOM     14  C   UNL     1      34.976 -22.952 -16.734  0.00  0.00    -0.022 C 
ATOM     15  C   UNL     1      34.165 -21.934 -19.201  0.00  0.00    -0.003 C 
ATOM     16  C   UNL     1      33.669 -23.157 -17.177  0.00  0.00    -0.004 C 
ATOM     17  C   UNL     1      33.264 -22.647 -18.410  0.00  0.00    -0.001 C 
ATOM     18  C   UNL     1      35.410 -23.499 -15.415  0.00  0.00    +0.031 C 
ENDBRANCH  11  12
ENDBRANCH   8  11
ENDBRANCH   3   9
BRANCH   4  21
ATOM     19  O   UNL     1      33.846 -15.678 -25.621  0.00  0.00    -0.269 OA
ATOM     20  N   UNL     1      34.150 -14.880 -23.465  0.00  0.00    -0.296 N 
ATOM     21  C   UNL     1      34.100 -15.872 -24.435  0.00  0.00    +0.260 C 
ATOM     22  H   UNL     1      34.363 -15.135 -22.538  0.00  0.00    +0.150 HD
BRANCH  20  23
ATOM     23  C   UNL     1      33.904 -13.491 -23.762  0.00  0.00    +0.117 C 
BRANCH  23  24
ATOM     24  C   UNL     1      33.066 -12.829 -22.721  0.00  0.00    -0.003 C 
ATOM     25  C   UNL     1      32.672 -11.502 -22.885  0.00  0.00    -0.007 C 
ATOM     26  C   UNL     1      31.886 -10.881 -21.912  0.00  0.00    -0.022 C 
ATOM     27  C   UNL     1      32.676 -13.537 -21.585  0.00  0.00    -0.003 C 
ATOM     28  C   UNL     1      31.497 -11.590 -20.776  0.00  0.00    -0.004 C 
ATOM     29  C   UNL     1      31.891 -12.918 -20.612  0.00  0.00    -0.001 C 
ATOM     30  C   UNL     1      31.465  -9.462 -22.087  0.00  0.00    +0.031 C 
ENDBRANCH  23  24
ENDBRANCH  20  23
ENDBRANCH   4  21
TORSDOF 6
ENDMDL
MODEL 2
REMARK VINA RESULT:     -12.1      0.061      9.336
REMARK  Name = 5289109
REMARK  6 active torsions:
REMARK  status: ('A' for Active; 'I' for Inactive)
REMARK    1  A    between atoms: C_3  and  C_9
REMARK    2  A    between atoms: C_4  and  C_21
REMARK    3  A    between atoms: N_8  and  C_11
REMARK    4  A    between atoms: C_11  and  C_12
REMARK    5  A    between atoms: N_20  and  C_23
REMARK    6  A    between atoms: C_23  and  C_24
REMARK                            x       y       z     vdW  Elec       q    Type
REMARK                         _______ _______ _______ _____ _____    ______ ____
ROOT
ATOM      1  N   UNL     1      33.827 -18.212 -24.754  0.00  0.00    -0.244 NA
ATOM      2  N   UNL     1      34.727 -19.808 -23.189  0.00  0.00    -0.244 NA
ATOM      3  C   UNL     1      34.315 -17.227 -23.972  0.00  0.00    +0.115 C 
ATOM      4  C   UNL     1      35.170 -18.766 -22.482  0.00  0.00    +0.115 C 
ATOM      5  C   UNL     1      35.008 -17.450 -22.799  0.00  0.00    +0.100 C 
ATOM      6  C   UNL     1      34.067 -19.461 -24.310  0.00  0.00    +0.250 C 
ENDROOT
BRANCH   3   9
ATOM      7  O   UNL     1      33.836 -15.644 -25.635  0.00  0.00    -0.269 OA
ATOM      8  N   UNL     1      34.083 -14.858 -23.467  0.00  0.00    -0.296 N 
ATOM      9  C   UNL     1      34.068 -15.871 -24.434  0.00  0.00    +0.260 C 
ATOM     10  H   UNL     1      34.274 -15.106 -22.534  0.00  0.00    +0.150 HD
BRANCH   8  11
ATOM     11  C   UNL     1      33.832 -13.466 -23.765  0.00  0.00    +0.117 C 
BRANCH  11  12
ATOM     12  C   UNL     1      33.020 -12.799 -22.692  0.00  0.00    -0.003 C 
ATOM     13  C   UNL     1      32.651 -11.468 -22.837  0.00  0.00    -0.007 C 
ATOM     14  C   UNL     1      31.894 -10.849 -21.841  0.00  0.00    -0.022 C 
ATOM     15  C   UNL     1      32.644 -13.522 -21.565  0.00  0.00    -0.003 C 
ATOM     16  C   UNL     1      31.514 -11.566 -20.707  0.00  0.00    -0.004 C 
ATOM     17  C   UNL     1      31.888 -12.903 -20.570  0.00  0.00    -0.001 C 
ATOM     18  C   UNL     1      31.495  -9.419 -21.987  0.00  0.00    +0.031 C 
ENDBRANCH  11  12
ENDBRANCH   8  11
ENDBRANCH   3   9
BRANCH   4  21
ATOM     19  O   UNL     1      36.513 -18.256 -20.628  0.00  0.00    -0.269 OA
ATOM     20  N   UNL     1      35.813 -20.457 -20.849  0.00  0.00    -0.296 N 
ATOM     21  C   UNL     1      35.901 -19.128 -21.241  0.00  0.00    +0.260 C 
ATOM     22  H   UNL     1      35.298 -21.082 -21.408  0.00  0.00    +0.150 HD
BRANCH  20  23
ATOM     23  C   UNL     1      36.446 -20.956 -19.654  0.00  0.00    +0.117 C 
BRANCH  23  24
ATOM     24  C   UNL     1      35.502 -21.721 -18.790  0.00  0.00    -0.003 C 
ATOM     25  C   UNL     1      35.923 -22.196 -17.548  0.00  0.00    -0.007 C 
ATOM     26  C   UNL     1      35.039 -22.912 -16.738  0.00  0.00    -0.022 C 
ATOM     27  C   UNL     1      34.198 -21.961 -19.222  0.00  0.00    -0.003 C 
ATOM     28  C   UNL     1      33.735 -23.150 -17.172  0.00  0.00    -0.004 C 
ATOM     29  C   UNL     1      33.314 -22.675 -18.413  0.00  0.00    -0.001 C 
ATOM     30  C   UNL     1      35.489 -23.421 -15.411  0.00  0.00    +0.031 C 
ENDBRANCH  23  24
ENDBRANCH  20  23
ENDBRANCH   4  21
TORSDOF 6
ENDMDL
MODEL 3
REMARK VINA RESULT:     -12.0      5.712     10.897
REMARK  Name = 5289109
REMARK  6 active torsions:
REMARK  status: ('A' for Active; 'I' for Inactive)
REMARK    1  A    between atoms: C_3  and  C_9
REMARK    2  A    between atoms: C_4  and  C_21
REMARK    3  A    between atoms: N_8  and  C_11
REMARK    4  A    between atoms: C_11  and  C_12
REMARK    5  A    between atoms: N_20  and  C_23
REMARK    6  A    between atoms: C_23  and  C_24
REMARK                            x       y       z     vdW  Elec       q    Type
REMARK                         _______ _______ _______ _____ _____    ______ ____
ROOT
ATOM      1  N   UNL     1      37.859 -23.895 -14.955  0.00  0.00    -0.244 NA
ATOM      2  N   UNL     1      36.438 -24.888 -13.282  0.00  0.00    -0.244 NA
ATOM      3  C   UNL     1      36.837 -23.078 -15.285  0.00  0.00    +0.115 C 
ATOM      4  C   UNL     1      35.488 -24.038 -13.679  0.00  0.00    +0.115 C 
ATOM      5  C   UNL     1      35.603 -23.106 -14.668  0.00  0.00    +0.100 C 
ATOM      6  C   UNL     1      37.594 -24.762 -13.959  0.00  0.00    +0.250 C 
ENDROOT
BRANCH   3   9
ATOM      7  O   UNL     1      37.782 -21.113 -16.148  0.00  0.00    -0.269 OA
ATOM      8  N   UNL     1      36.580 -22.442 -17.619  0.00  0.00    -0.296 N 
ATOM      9  C   UNL     1      37.102 -22.134 -16.357  0.00  0.00    +0.260 C 
ATOM     10  H   UNL     1      36.050 -23.266 -17.716  0.00  0.00    +0.150 HD
BRANCH   8  11
ATOM     11  C   UNL     1      36.777 -21.616 -18.789  0.00  0.00    +0.117 C 
BRANCH  11  12
ATOM     12  C   UNL     1      35.476 -21.242 -19.438  0.00  0.00    -0.003 C 
ATOM     13  C   UNL     1      35.479 -20.429 -20.565  0.00  0.00    -0.007 C 
ATOM     14  C   UNL     1      34.270 -20.084 -21.170  0.00  0.00    -0.022 C 
ATOM     15  C   UNL     1      34.281 -21.714 -18.906  0.00  0.00    -0.003 C 
ATOM     16  C   UNL     1      33.067 -20.552 -20.642  0.00  0.00    -0.004 C 
ATOM     17  C   UNL     1      33.073 -21.368 -19.510  0.00  0.00    -0.001 C 
ATOM     18  C   UNL     1      34.263 -19.210 -22.379  0.00  0.00    +0.031 C 
ENDBRANCH  11  12
ENDBRANCH   8  11
ENDBRANCH   3   9
BRANCH   4  21
ATOM     19  O   UNL     1      34.138 -24.905 -11.969  0.00  0.00    -0.269 OA
ATOM     20  N   UNL     1      33.155 -23.385 -13.419  0.00  0.00    -0.296 N 
ATOM     21  C   UNL     1      34.203 -24.161 -12.945  0.00  0.00    +0.260 C 
ATOM     22  H   UNL     1      33.305 -22.819 -14.211  0.00  0.00    +0.150 HD
BRANCH  20  23
ATOM     23  C   UNL     1      31.854 -23.376 -12.799  0.00  0.00    +0.117 C 
BRANCH  23  24
ATOM     24  C   UNL     1      30.802 -23.961 -13.680  0.00  0.00    -0.003 C 
ATOM     25  C   UNL     1      30.038 -23.130 -14.498  0.00  0.00    -0.007 C 
ATOM     26  C   UNL     1      29.053 -23.676 -15.323  0.00  0.00    -0.022 C 
ATOM     27  C   UNL     1      30.582 -25.338 -13.685  0.00  0.00    -0.003 C 
ATOM     28  C   UNL     1      28.835 -25.054 -15.328  0.00  0.00    -0.004 C 
ATOM     29  C   UNL     1      29.599 -25.885 -14.509  0.00  0.00    -0.001 C 
ATOM     30  C   UNL     1      28.235 -22.788 -16.199  0.00  0.00    +0.031 C 
ENDBRANCH  23  24
ENDBRANCH  20  23
ENDBRANCH   4  21
TORSDOF 6
ENDMDL
MODEL 4
REMARK VINA RESULT:     -12.0      5.716      9.375
REMARK  Name = 5289109
REMARK  6 active torsions:
REMARK  status: ('A' for Active; 'I' for Inactive)
REMARK    1  A    between atoms: C_3  and  C_9
REMARK    2  A    between atoms: C_4  and  C_21
REMARK    3  A    between atoms: N_8  and  C_11
REMARK    4  A    between atoms: C_11  and  C_12
REMARK    5  A    between atoms: N_20  and  C_23
REMARK    6  A    between atoms: C_23  and  C_24
REMARK                            x       y       z     vdW  Elec       q    Type
REMARK                         _______ _______ _______ _____ _____    ______ ____
ROOT
ATOM      1  N   UNL     1      36.511 -24.909 -13.336  0.00  0.00    -0.244 NA
ATOM      2  N   UNL     1      37.902 -23.885 -15.016  0.00  0.00    -0.244 NA
ATOM      3  C   UNL     1      35.521 -24.064 -13.694  0.00  0.00    +0.115 C 
ATOM      4  C   UNL     1      36.865 -23.093 -15.298  0.00  0.00    +0.115 C 
ATOM      5  C   UNL     1      35.645 -23.115 -14.689  0.00  0.00    +0.100 C 
ATOM      6  C   UNL     1      37.657 -24.767 -14.028  0.00  0.00    +0.250 C 
ENDROOT
BRANCH   3   9
ATOM      7  O   UNL     1      34.203 -24.949 -11.968  0.00  0.00    -0.269 OA
ATOM      8  N   UNL     1      33.187 -23.439 -13.405  0.00  0.00    -0.296 N 
ATOM      9  C   UNL     1      34.275 -24.200 -12.959  0.00  0.00    +0.260 C 
ATOM     10  H   UNL     1      33.311 -22.868 -14.197  0.00  0.00    +0.150 HD
BRANCH   8  11
ATOM     11  C   UNL     1      31.890 -23.448 -12.767  0.00  0.00    +0.117 C 
BRANCH  11  12
ATOM     12  C   UNL     1      30.826 -24.012 -13.664  0.00  0.00    -0.003 C 
ATOM     13  C   UNL     1      30.078 -23.158 -14.464  0.00  0.00    -0.007 C 
ATOM     14  C   UNL     1      29.091 -23.682 -15.299  0.00  0.00    -0.022 C 
ATOM     15  C   UNL     1      30.600 -25.384 -13.684  0.00  0.00    -0.003 C 
ATOM     16  C   UNL     1      28.858 -25.057 -15.326  0.00  0.00    -0.004 C 
ATOM     17  C   UNL     1      29.613 -25.908 -14.518  0.00  0.00    -0.001 C 
ATOM     18  C   UNL     1      28.283 -22.772 -16.161  0.00  0.00    +0.031 C 
ENDBRANCH  11  12
ENDBRANCH   8  11
ENDBRANCH   3   9
BRANCH   4  21
ATOM     19  O   UNL     1      37.748 -21.089 -16.136  0.00  0.00    -0.269 OA
ATOM     20  N   UNL     1      36.620 -22.452 -17.636  0.00  0.00    -0.296 N 
ATOM     21  C   UNL     1      37.115 -22.113 -16.385  0.00  0.00    +0.260 C 
ATOM     22  H   UNL     1      36.125 -23.296 -17.736  0.00  0.00    +0.150 HD
BRANCH  20  23
ATOM     23  C   UNL     1      36.803 -21.616 -18.796  0.00  0.00    +0.117 C 
BRANCH  23  24
ATOM     24  C   UNL     1      35.509 -21.242 -19.435  0.00  0.00    -0.003 C 
ATOM     25  C   UNL     1      35.501 -20.433 -20.571  0.00  0.00    -0.007 C 
ATOM     26  C   UNL     1      34.290 -20.083 -21.171  0.00  0.00    -0.022 C 
ATOM     27  C   UNL     1      34.307 -21.702 -18.899  0.00  0.00    -0.003 C 
ATOM     28  C   UNL     1      33.088 -20.545 -20.633  0.00  0.00    -0.004 C 
ATOM     29  C   UNL     1      33.096 -21.354 -19.498  0.00  0.00    -0.001 C 
ATOM     30  C   UNL     1      34.281 -19.217 -22.385  0.00  0.00    +0.031 C 
ENDBRANCH  23  24
ENDBRANCH  20  23
ENDBRANCH   4  21
TORSDOF 6
ENDMDL
MODEL 5
REMARK VINA RESULT:     -11.8      1.985      9.600
REMARK  Name = 5289109
REMARK  6 active torsions:
REMARK  status: ('A' for Active; 'I' for Inactive)
REMARK    1  A    between atoms: C_3  and  C_9
REMARK    2  A    between atoms: C_4  and  C_21
REMARK    3  A    between atoms: N_8  and  C_11
REMARK    4  A    between atoms: C_11  and  C_12
REMARK    5  A    between atoms: N_20  and  C_23
REMARK    6  A    between atoms: C_23  and  C_24
REMARK                            x       y       z     vdW  Elec       q    Type
REMARK                         _______ _______ _______ _____ _____    ______ ____
ROOT
ATOM      1  N   UNL     1      36.667 -18.649 -21.100  0.00  0.00    -0.244 NA
ATOM      2  N   UNL     1      36.047 -20.541 -19.743  0.00  0.00    -0.244 NA
ATOM      3  C   UNL     1      35.393 -18.595 -21.541  0.00  0.00    +0.115 C 
ATOM      4  C   UNL     1      34.814 -20.408 -20.237  0.00  0.00    +0.115 C 
ATOM      5  C   UNL     1      34.403 -19.468 -21.136  0.00  0.00    +0.100 C 
ATOM      6  C   UNL     1      36.920 -19.632 -20.215  0.00  0.00    +0.250 C 
ENDROOT
BRANCH   3   9
ATOM      7  O   UNL     1      34.904 -17.810 -23.696  0.00  0.00    -0.269 OA
ATOM      8  N   UNL     1      35.023 -16.234 -21.999  0.00  0.00    -0.296 N 
ATOM      9  C   UNL     1      35.098 -17.542 -22.497  0.00  0.00    +0.260 C 
ATOM     10  H   UNL     1      35.188 -16.091 -21.040  0.00  0.00    +0.150 HD
BRANCH   8  11
ATOM     11  C   UNL     1      34.715 -15.084 -22.818  0.00  0.00    +0.117 C 
BRANCH  11  12
ATOM     12  C   UNL     1      33.739 -14.161 -22.148  0.00  0.00    -0.003 C 
ATOM     13  C   UNL     1      33.385 -12.968 -22.765  0.00  0.00    -0.007 C 
ATOM     14  C   UNL     1      32.476 -12.112 -22.143  0.00  0.00    -0.022 C 
ATOM     15  C   UNL     1      33.197 -14.511 -20.916  0.00  0.00    -0.003 C 
ATOM     16  C   UNL     1      31.928 -12.455 -20.907  0.00  0.00    -0.004 C 
ATOM     17  C   UNL     1      32.289 -13.656 -20.294  0.00  0.00    -0.001 C 
ATOM     18  C   UNL     1      32.091 -10.828 -22.798  0.00  0.00    +0.031 C 
ENDBRANCH  11  12
ENDBRANCH   8  11
ENDBRANCH   3   9
BRANCH   4  21
ATOM     19  O   UNL     1      32.636 -21.225 -19.938  0.00  0.00    -0.269 OA
ATOM     20  N   UNL     1      34.368 -22.497 -19.063  0.00  0.00    -0.296 N 
ATOM     21  C   UNL     1      33.834 -21.402 -19.730  0.00  0.00    +0.260 C 
ATOM     22  H   UNL     1      35.344 -22.550 -18.946  0.00  0.00    +0.150 HD
BRANCH  20  23
ATOM     23  C   UNL     1      33.549 -23.558 -18.535  0.00  0.00    +0.117 C 
BRANCH  23  24
ATOM     24  C   UNL     1      33.348 -23.440 -17.062  0.00  0.00    -0.003 C 
ATOM     25  C   UNL     1      32.058 -23.347 -16.540  0.00  0.00    -0.007 C 
ATOM     26  C   UNL     1      31.869 -23.237 -15.161  0.00  0.00    -0.022 C 
ATOM     27  C   UNL     1      34.449 -23.421 -16.206  0.00  0.00    -0.003 C 
ATOM     28  C   UNL     1      32.971 -23.219 -14.307  0.00  0.00    -0.004 C 
ATOM     29  C   UNL     1      34.261 -23.311 -14.829  0.00  0.00    -0.001 C 
ATOM     30  C   UNL     1      30.490 -23.137 -14.603  0.00  0.00    +0.031 C 
ENDBRANCH  23  24
ENDBRANCH  20  23
ENDBRANCH   4  21
TORSDOF 6
ENDMDL
MODEL 6
REMARK VINA RESULT:     -11.8      1.946      3.130
REMARK  Name = 5289109
REMARK  6 active torsions:
REMARK  status: ('A' for Active; 'I' for Inactive)
REMARK    1  A    between atoms: C_3  and  C_9
REMARK    2  A    between atoms: C_4  and  C_21
REMARK    3  A    between atoms: N_8  and  C_11
REMARK    4  A    between atoms: C_11  and  C_12
REMARK    5  A    between atoms: N_20  and  C_23
REMARK    6  A    between atoms: C_23  and  C_24
REMARK                            x       y       z     vdW  Elec       q    Type
REMARK                         _______ _______ _______ _____ _____    ______ ____
ROOT
ATOM      1  N   UNL     1      36.100 -20.522 -19.806  0.00  0.00    -0.244 NA
ATOM      2  N   UNL     1      36.727 -18.656 -21.197  0.00  0.00    -0.244 NA
ATOM      3  C   UNL     1      34.833 -20.378 -20.249  0.00  0.00    +0.115 C 
ATOM      4  C   UNL     1      35.448 -18.593 -21.575  0.00  0.00    +0.115 C 
ATOM      5  C   UNL     1      34.442 -19.410 -21.152  0.00  0.00    +0.100 C 
ATOM      6  C   UNL     1      36.982 -19.640 -20.315  0.00  0.00    +0.250 C 
ENDROOT
BRANCH   3   9
ATOM      7  O   UNL     1      32.645 -21.104 -19.823  0.00  0.00    -0.269 OA
ATOM      8  N   UNL     1      34.371 -22.472 -19.098  0.00  0.00    -0.296 N 
ATOM      9  C   UNL     1      33.865 -21.319 -19.713  0.00  0.00    +0.260 C 
ATOM     10  H   UNL     1      35.348 -22.580 -19.044  0.00  0.00    +0.150 HD
BRANCH   8  11
ATOM     11  C   UNL     1      33.537 -23.511 -18.539  0.00  0.00    +0.117 C 
BRANCH  11  12
ATOM     12  C   UNL     1      33.435 -23.406 -17.045  0.00  0.00    -0.003 C 
ATOM     13  C   UNL     1      32.184 -23.395 -16.441  0.00  0.00    -0.007 C 
ATOM     14  C   UNL     1      32.088 -23.300 -15.053  0.00  0.00    -0.022 C 
ATOM     15  C   UNL     1      34.593 -23.322 -16.280  0.00  0.00    -0.003 C 
ATOM     16  C   UNL     1      33.245 -23.215 -14.278  0.00  0.00    -0.004 C 
ATOM     17  C   UNL     1      34.498 -23.227 -14.893  0.00  0.00    -0.001 C 
ATOM     18  C   UNL     1      30.749 -23.286 -14.396  0.00  0.00    +0.031 C 
ENDBRANCH  11  12
ENDBRANCH   8  11
ENDBRANCH   3   9
BRANCH   4  21
ATOM     19  O   UNL     1      35.009 -17.797 -23.737  0.00  0.00    -0.269 OA
ATOM     20  N   UNL     1      35.010 -16.238 -22.019  0.00  0.00    -0.296 N 
ATOM     21  C   UNL     1      35.144 -17.514 -22.549  0.00  0.00    +0.260 C 
ATOM     22  H   UNL     1      35.138 -16.111 -21.051  0.00  0.00    +0.150 HD
BRANCH  20  23
ATOM     23  C   UNL     1      34.692 -15.091 -22.832  0.00  0.00    +0.117 C 
BRANCH  23  24
ATOM     24  C   UNL     1      33.734 -14.167 -22.157  0.00  0.00    -0.003 C 
ATOM     25  C   UNL     1      33.371 -12.970 -22.773  0.00  0.00    -0.007 C 
ATOM     26  C   UNL     1      32.474 -12.105 -22.143  0.00  0.00    -0.022 C 
ATOM     27  C   UNL     1      33.201 -14.501 -20.913  0.00  0.00    -0.003 C 
ATOM     28  C   UNL     1      31.941 -12.440 -20.898  0.00  0.00    -0.004 C 
ATOM     29  C   UNL     1      32.305 -13.638 -20.283  0.00  0.00    -0.001 C 
ATOM     30  C   UNL     1      32.085 -10.824 -22.800  0.00  0.00    +0.031 C 
ENDBRANCH  23  24
ENDBRANCH  20  23
ENDBRANCH   4  21
TORSDOF 6
ENDMDL
MODEL 7
REMARK VINA RESULT:     -11.5      2.162     10.010
REMARK  Name = 5289109
REMARK  6 active torsions:
REMARK  status: ('A' for Active; 'I' for Inactive)
REMARK    1  A    between atoms: C_3  and  C_9
REMARK    2  A    between atoms: C_4  and  C_21
REMARK    3  A    between atoms: N_8  and  C_11
REMARK    4  A    between atoms: C_11  and  C_12
REMARK    5  A    between atoms: N_20  and  C_23
REMARK    6  A    between atoms: C_23  and  C_24
REMARK                            x       y       z     vdW  Elec       q    Type
REMARK                         _______ _______ _______ _____ _____    ______ ____
ROOT
ATOM      1  N   UNL     1      33.041 -13.776 -24.571  0.00  0.00    -0.244 NA
ATOM      2  N   UNL     1      33.999 -15.865 -25.294  0.00  0.00    -0.244 NA
ATOM      3  C   UNL     1      33.295 -14.142 -23.298  0.00  0.00    +0.115 C 
ATOM      4  C   UNL     1      34.210 -16.139 -24.004  0.00  0.00    +0.115 C 
ATOM      5  C   UNL     1      33.889 -15.338 -22.948  0.00  0.00    +0.100 C 
ATOM      6  C   UNL     1      33.414 -14.671 -25.505  0.00  0.00    +0.250 C 
ENDROOT
BRANCH   3   9
ATOM      7  O   UNL     1      33.115 -13.427 -21.072  0.00  0.00    -0.269 OA
ATOM      8  N   UNL     1      32.296 -12.003 -22.708  0.00  0.00    -0.296 N 
ATOM      9  C   UNL     1      32.900 -13.190 -22.274  0.00  0.00    +0.260 C 
ATOM     10  H   UNL     1      32.154 -11.878 -23.674  0.00  0.00    +0.150 HD
BRANCH   8  11
ATOM     11  C   UNL     1      31.870 -10.949 -21.815  0.00  0.00    +0.117 C 
BRANCH  11  12
ATOM     12  C   UNL     1      32.551  -9.646 -22.118  0.00  0.00    -0.003 C 
ATOM     13  C   UNL     1      32.223  -8.513 -21.385  0.00  0.00    -0.007 C 
ATOM     14  C   UNL     1      32.857  -7.302 -21.665  0.00  0.00    -0.022 C 
ATOM     15  C   UNL     1      33.503  -9.586 -23.130  0.00  0.00    -0.003 C 
ATOM     16  C   UNL     1      33.813  -7.233 -22.679  0.00  0.00    -0.004 C 
ATOM     17  C   UNL     1      34.136  -8.376 -23.411  0.00  0.00    -0.001 C 
ATOM     18  C   UNL     1      32.510  -6.080 -20.883  0.00  0.00    +0.031 C 
ENDBRANCH  11  12
ENDBRANCH   8  11
ENDBRANCH   3   9
BRANCH   4  21
ATOM     19  O   UNL     1      34.749 -18.345 -24.586  0.00  0.00    -0.269 OA
ATOM     20  N   UNL     1      35.564 -17.560 -22.561  0.00  0.00    -0.296 N 
ATOM     21  C   UNL     1      34.854 -17.452 -23.749  0.00  0.00    +0.260 C 
ATOM     22  H   UNL     1      35.591 -16.786 -21.953  0.00  0.00    +0.150 HD
BRANCH  20  23
ATOM     23  C   UNL     1      36.265 -18.761 -22.184  0.00  0.00    +0.117 C 
BRANCH  23  24
ATOM     24  C   UNL     1      35.461 -19.622 -21.269  0.00  0.00    -0.003 C 
ATOM     25  C   UNL     1      36.102 -20.421 -20.322  0.00  0.00    -0.007 C 
ATOM     26  C   UNL     1      35.350 -21.227 -19.464  0.00  0.00    -0.022 C 
ATOM     27  C   UNL     1      34.070 -19.629 -21.359  0.00  0.00    -0.003 C 
ATOM     28  C   UNL     1      33.959 -21.232 -19.556  0.00  0.00    -0.004 C 
ATOM     29  C   UNL     1      33.318 -20.433 -20.503  0.00  0.00    -0.001 C 
ATOM     30  C   UNL     1      36.035 -22.081 -18.452  0.00  0.00    +0.031 C 
ENDBRANCH  23  24
ENDBRANCH  20  23
ENDBRANCH   4  21
TORSDOF 6
ENDMDL
MODEL 8
REMARK VINA RESULT:     -11.4      6.168      9.746
REMARK  Name = 5289109
REMARK  6 active torsions:
REMARK  status: ('A' for Active; 'I' for Inactive)
REMARK    1  A    between atoms: C_3  and  C_9
REMARK    2  A    between atoms: C_4  and  C_21
REMARK    3  A    between atoms: N_8  and  C_11
REMARK    4  A    between atoms: C_11  and  C_12
REMARK    5  A    between atoms: N_20  and  C_23
REMARK    6  A    between atoms: C_23  and  C_24
REMARK                            x       y       z     vdW  Elec       q    Type
REMARK                         _______ _______ _______ _____ _____    ______ ____
ROOT
ATOM      1  N   UNL     1      31.908 -25.412 -13.104  0.00  0.00    -0.244 NA
ATOM      2  N   UNL     1      30.564 -24.715 -14.978  0.00  0.00    -0.244 NA
ATOM      3  C   UNL     1      32.873 -24.571 -13.530  0.00  0.00    +0.115 C 
ATOM      4  C   UNL     1      31.574 -23.913 -15.320  0.00  0.00    +0.115 C 
ATOM      5  C   UNL     1      32.758 -23.780 -14.656  0.00  0.00    +0.100 C 
ATOM      6  C   UNL     1      30.796 -25.433 -13.863  0.00  0.00    +0.250 C 
ENDROOT
BRANCH   3   9
ATOM      7  O   UNL     1      34.183 -23.736 -11.773  0.00  0.00    -0.269 OA
ATOM      8  N   UNL     1      35.096 -25.439 -13.056  0.00  0.00    -0.296 N 
ATOM      9  C   UNL     1      34.081 -24.532 -12.724  0.00  0.00    +0.260 C 
ATOM     10  H   UNL     1      34.951 -26.042 -13.821  0.00  0.00    +0.150 HD
BRANCH   8  11
ATOM     11  C   UNL     1      36.345 -25.540 -12.336  0.00  0.00    +0.117 C 
BRANCH  11  12
ATOM     12  C   UNL     1      37.530 -25.352 -13.238  0.00  0.00    -0.003 C 
ATOM     13  C   UNL     1      38.658 -26.144 -13.065  0.00  0.00    -0.007 C 
ATOM     14  C   UNL     1      39.758 -25.971 -13.904  0.00  0.00    -0.022 C 
ATOM     15  C   UNL     1      37.487 -24.386 -14.237  0.00  0.00    -0.003 C 
ATOM     16  C   UNL     1      39.724 -25.004 -14.910  0.00  0.00    -0.004 C 
ATOM     17  C   UNL     1      38.587 -24.212 -15.076  0.00  0.00    -0.001 C 
ATOM     18  C   UNL     1      40.974 -26.816 -13.725  0.00  0.00    +0.031 C 
ENDBRANCH  11  12
ENDBRANCH   8  11
ENDBRANCH   3   9
BRANCH   4  21
ATOM     19  O   UNL     1      30.212 -22.674 -16.772  0.00  0.00    -0.269 OA
ATOM     20  N   UNL     1      32.447 -22.894 -17.354  0.00  0.00    -0.296 N 
ATOM     21  C   UNL     1      31.338 -23.111 -16.547  0.00  0.00    +0.260 C 
ATOM     22  H   UNL     1      33.309 -23.286 -17.089  0.00  0.00    +0.150 HD
BRANCH  20  23
ATOM     23  C   UNL     1      32.384 -22.115 -18.565  0.00  0.00    +0.117 C 
BRANCH  23  24
ATOM     24  C   UNL     1      33.734 -21.701 -19.044  0.00  0.00    -0.003 C 
ATOM     25  C   UNL     1      33.853 -20.755 -20.062  0.00  0.00    -0.007 C 
ATOM     26  C   UNL     1      35.117 -20.366 -20.510  0.00  0.00    -0.022 C 
ATOM     27  C   UNL     1      34.878 -22.258 -18.473  0.00  0.00    -0.003 C 
ATOM     28  C   UNL     1      36.260 -20.924 -19.938  0.00  0.00    -0.004 C 
ATOM     29  C   UNL     1      36.141 -21.870 -18.920  0.00  0.00    -0.001 C 
ATOM     30  C   UNL     1      35.244 -19.356 -21.599  0.00  0.00    +0.031 C 
ENDBRANCH  23  24
ENDBRANCH  20  23
ENDBRANCH   4  21
TORSDOF 6
ENDMDL
MODEL 9
REMARK VINA RESULT:     -11.4      6.171     12.246
REMARK  Name = 5289109
REMARK  6 active torsions:
REMARK  status: ('A' for Active; 'I' for Inactive)
REMARK    1  A    between atoms: C_3  and  C_9
REMARK    2  A    between atoms: C_4  and  C_21
REMARK    3  A    between atoms: N_8  and  C_11
REMARK    4  A    between atoms: C_11  and  C_12
REMARK    5  A    between atoms: N_20  and  C_23
REMARK    6  A    between atoms: C_23  and  C_24
REMARK                            x       y       z     vdW  Elec       q    Type
REMARK                         _______ _______ _______ _____ _____    ______ ____
ROOT
ATOM      1  N   UNL     1      30.537 -24.709 -14.960  0.00  0.00    -0.244 NA
ATOM      2  N   UNL     1      31.884 -25.395 -13.084  0.00  0.00    -0.244 NA
ATOM      3  C   UNL     1      31.542 -23.889 -15.333  0.00  0.00    +0.115 C 
ATOM      4  C   UNL     1      32.820 -24.556 -13.532  0.00  0.00    +0.115 C 
ATOM      5  C   UNL     1      32.731 -23.769 -14.642  0.00  0.00    +0.100 C 
ATOM      6  C   UNL     1      30.773 -25.423 -13.843  0.00  0.00    +0.250 C 
ENDROOT
BRANCH   3   9
ATOM      7  O   UNL     1      30.172 -22.677 -16.801  0.00  0.00    -0.269 OA
ATOM      8  N   UNL     1      32.416 -22.855 -17.355  0.00  0.00    -0.296 N 
ATOM      9  C   UNL     1      31.308 -23.109 -16.537  0.00  0.00    +0.260 C 
ATOM     10  H   UNL     1      33.288 -23.227 -17.089  0.00  0.00    +0.150 HD
BRANCH   8  11
ATOM     11  C   UNL     1      32.351 -22.077 -18.571  0.00  0.00    +0.117 C 
BRANCH  11  12
ATOM     12  C   UNL     1      33.714 -21.680 -19.059  0.00  0.00    -0.003 C 
ATOM     13  C   UNL     1      33.833 -20.748 -20.082  0.00  0.00    -0.007 C 
ATOM     14  C   UNL     1      35.100 -20.377 -20.533  0.00  0.00    -0.022 C 
ATOM     15  C   UNL     1      34.843 -22.248 -18.481  0.00  0.00    -0.003 C 
ATOM     16  C   UNL     1      36.239 -20.943 -19.959  0.00  0.00    -0.004 C 
ATOM     17  C   UNL     1      36.110 -21.878 -18.932  0.00  0.00    -0.001 C 
ATOM     18  C   UNL     1      35.238 -19.378 -21.633  0.00  0.00    +0.031 C 
ENDBRANCH  11  12
ENDBRANCH   8  11
ENDBRANCH   3   9
BRANCH   4  21
ATOM     19  O   UNL     1      34.117 -23.728 -11.763  0.00  0.00    -0.269 OA
ATOM     20  N   UNL     1      35.060 -25.397 -13.069  0.00  0.00    -0.296 N 
ATOM     21  C   UNL     1      34.055 -24.510 -12.709  0.00  0.00    +0.260 C 
ATOM     22  H   UNL     1      34.915 -25.986 -13.845  0.00  0.00    +0.150 HD
BRANCH  20  23
ATOM     23  C   UNL     1      36.306 -25.490 -12.353  0.00  0.00    +0.117 C 
BRANCH  23  24
ATOM     24  C   UNL     1      37.488 -25.324 -13.247  0.00  0.00    -0.003 C 
ATOM     25  C   UNL     1      38.617 -26.122 -13.065  0.00  0.00    -0.007 C 
ATOM     26  C   UNL     1      39.724 -25.967 -13.903  0.00  0.00    -0.022 C 
ATOM     27  C   UNL     1      37.464 -24.371 -14.266  0.00  0.00    -0.003 C 
ATOM     28  C   UNL     1      39.698 -25.015 -14.921  0.00  0.00    -0.004 C 
ATOM     29  C   UNL     1      38.569 -24.217 -15.103  0.00  0.00    -0.001 C 
ATOM     30  C   UNL     1      40.932 -26.819 -13.708  0.00  0.00    +0.031 C 
ENDBRANCH  23  24
ENDBRANCH  20  23
ENDBRANCH   4  21
TORSDOF 6
ENDMDL
