MODEL 1
REMARK VINA RESULT:     -11.5      0.000      0.000
REMARK  Name = 44177328
REMARK  2 active torsions:
REMARK  status: ('A' for Active; 'I' for Inactive)
REMARK    1  A    between atoms: N_1  and  C_15
REMARK    2  A    between atoms: C_6  and  C_23
REMARK                            x       y       z     vdW  Elec       q    Type
REMARK                         _______ _______ _______ _____ _____    ______ ____
ROOT
ATOM      1  N   UNL     1      32.389 -22.860 -17.829  0.00  0.00    -0.286 N 
ATOM      2  N   UNL     1      33.410 -23.728 -15.878  0.00  0.00    -0.386 NA
ATOM      3  N   UNL     1      30.902 -23.799 -14.623  0.00  0.00    -0.246 NA
ATOM      4  N   UNL     1      29.908 -22.929 -16.593  0.00  0.00    -0.340 N 
ATOM      5  C   UNL     1      32.287 -23.326 -16.505  0.00  0.00    +0.214 C 
ATOM      6  C   UNL     1      33.258 -24.166 -14.612  0.00  0.00    +0.135 C 
ATOM      7  C   UNL     1      31.055 -23.362 -15.890  0.00  0.00    +0.166 C 
ATOM      8  C   UNL     1      32.026 -24.200 -13.996  0.00  0.00    +0.185 C 
ATOM      9  H   UNL     1      31.583 -23.024 -18.370  0.00  0.00    +0.155 HD
ATOM     10  H   UNL     1      29.025 -22.952 -16.158  0.00  0.00    +0.144 HD
ATOM     11  H   UNL     1      29.992 -22.605 -17.519  0.00  0.00    +0.144 HD
ENDROOT
BRANCH   1  15
ATOM     12  N   UNL     1      36.259 -20.156 -20.713  0.00  0.00    -0.312 N 
ATOM     13  C   UNL     1      34.132 -20.598 -20.203  0.00  0.00    +0.016 C 
ATOM     14  C   UNL     1      35.456 -20.926 -19.901  0.00  0.00    +0.048 C 
ATOM     15  C   UNL     1      33.422 -22.203 -18.533  0.00  0.00    +0.050 C 
ATOM     16  C   UNL     1      33.096 -21.250 -19.505  0.00  0.00    +0.016 C 
ATOM     17  C   UNL     1      35.796 -21.875 -18.931  0.00  0.00    +0.016 C 
ATOM     18  C   UNL     1      34.752 -22.509 -18.252  0.00  0.00    +0.016 C 
ATOM     19  C   UNL     1      34.169 -19.607 -21.224  0.00  0.00    +0.017 C 
ATOM     20  C   UNL     1      35.490 -19.357 -21.516  0.00  0.00    +0.062 C 
ATOM     21  H   UNL     1      37.243 -20.179 -20.717  0.00  0.00    +0.152 HD
ENDBRANCH   1  15
BRANCH   6  23
ATOM     22  N   UNL     1      36.795 -25.416 -12.646  0.00  0.00    -0.242 NA
ATOM     23  C   UNL     1      34.460 -24.591 -13.943  0.00  0.00    +0.031 C 
ATOM     24  C   UNL     1      34.559 -24.500 -12.559  0.00  0.00    +0.023 C 
ATOM     25  C   UNL     1      35.527 -25.095 -14.679  0.00  0.00    +0.023 C 
ATOM     26  C   UNL     1      35.737 -24.921 -11.964  0.00  0.00    +0.099 C 
ATOM     27  C   UNL     1      36.662 -25.490 -13.989  0.00  0.00    +0.099 C 
ENDBRANCH   6  23
TORSDOF 2
ENDMDL
MODEL 2
REMARK VINA RESULT:     -11.2      1.266      2.036
REMARK  Name = 44177328
REMARK  2 active torsions:
REMARK  status: ('A' for Active; 'I' for Inactive)
REMARK    1  A    between atoms: N_1  and  C_15
REMARK    2  A    between atoms: C_6  and  C_23
REMARK                            x       y       z     vdW  Elec       q    Type
REMARK                         _______ _______ _______ _____ _____    ______ ____
ROOT
ATOM      1  N   UNL     1      32.674 -22.588 -18.288  0.00  0.00    -0.286 N 
ATOM      2  N   UNL     1      34.192 -23.380 -16.653  0.00  0.00    -0.386 NA
ATOM      3  N   UNL     1      32.032 -23.977 -14.966  0.00  0.00    -0.246 NA
ATOM      4  N   UNL     1      30.535 -23.178 -16.625  0.00  0.00    -0.340 N 
ATOM      5  C   UNL     1      32.916 -23.147 -17.019  0.00  0.00    +0.214 C 
ATOM      6  C   UNL     1      34.370 -23.916 -15.429  0.00  0.00    +0.135 C 
ATOM      7  C   UNL     1      31.855 -23.441 -16.192  0.00  0.00    +0.166 C 
ATOM      8  C   UNL     1      33.308 -24.208 -14.601  0.00  0.00    +0.185 C 
ATOM      9  H   UNL     1      31.814 -22.860 -18.682  0.00  0.00    +0.155 HD
ATOM     10  H   UNL     1      29.773 -23.385 -16.037  0.00  0.00    +0.144 HD
ATOM     11  H   UNL     1      30.379 -22.786 -17.515  0.00  0.00    +0.144 HD
ENDROOT
BRANCH   1  15
ATOM     12  N   UNL     1      35.824 -19.253 -21.380  0.00  0.00    -0.312 N 
ATOM     13  C   UNL     1      35.560 -20.806 -19.800  0.00  0.00    +0.016 C 
ATOM     14  C   UNL     1      34.877 -20.000 -20.714  0.00  0.00    +0.048 C 
ATOM     15  C   UNL     1      33.424 -21.714 -19.106  0.00  0.00    +0.050 C 
ATOM     16  C   UNL     1      34.818 -21.680 -18.981  0.00  0.00    +0.016 C 
ATOM     17  C   UNL     1      33.486 -20.025 -20.851  0.00  0.00    +0.016 C 
ATOM     18  C   UNL     1      32.770 -20.899 -20.026  0.00  0.00    +0.016 C 
ATOM     19  C   UNL     1      36.946 -20.516 -19.941  0.00  0.00    +0.017 C 
ATOM     20  C   UNL     1      37.076 -19.557 -20.919  0.00  0.00    +0.062 C 
ATOM     21  H   UNL     1      35.627 -18.594 -22.084  0.00  0.00    +0.152 HD
ENDBRANCH   1  15
BRANCH   6  23
ATOM     22  N   UNL     1      38.384 -24.634 -14.282  0.00  0.00    -0.242 NA
ATOM     23  C   UNL     1      35.735 -24.159 -15.039  0.00  0.00    +0.031 C 
ATOM     24  C   UNL     1      36.752 -23.331 -15.501  0.00  0.00    +0.023 C 
ATOM     25  C   UNL     1      36.041 -25.224 -14.198  0.00  0.00    +0.023 C 
ATOM     26  C   UNL     1      38.047 -23.608 -15.098  0.00  0.00    +0.099 C 
ATOM     27  C   UNL     1      37.369 -25.417 -13.853  0.00  0.00    +0.099 C 
ENDBRANCH   6  23
TORSDOF 2
ENDMDL
MODEL 3
REMARK VINA RESULT:     -10.7      1.076      1.286
REMARK  Name = 44177328
REMARK  2 active torsions:
REMARK  status: ('A' for Active; 'I' for Inactive)
REMARK    1  A    between atoms: N_1  and  C_15
REMARK    2  A    between atoms: C_6  and  C_23
REMARK                            x       y       z     vdW  Elec       q    Type
REMARK                         _______ _______ _______ _____ _____    ______ ____
ROOT
ATOM      1  N   UNL     1      32.952 -23.327 -17.273  0.00  0.00    -0.286 N 
ATOM      2  N   UNL     1      34.461 -24.035 -15.592  0.00  0.00    -0.386 NA
ATOM      3  N   UNL     1      32.299 -24.444 -13.853  0.00  0.00    -0.246 NA
ATOM      4  N   UNL     1      30.812 -23.730 -15.557  0.00  0.00    -0.340 N 
ATOM      5  C   UNL     1      33.189 -23.796 -15.967  0.00  0.00    +0.214 C 
ATOM      6  C   UNL     1      34.634 -24.483 -14.333  0.00  0.00    +0.135 C 
ATOM      7  C   UNL     1      32.127 -23.997 -15.113  0.00  0.00    +0.166 C 
ATOM      8  C   UNL     1      33.571 -24.683 -13.479  0.00  0.00    +0.185 C 
ATOM      9  H   UNL     1      32.082 -23.603 -17.641  0.00  0.00    +0.155 HD
ATOM     10  H   UNL     1      30.049 -23.872 -14.952  0.00  0.00    +0.144 HD
ATOM     11  H   UNL     1      30.659 -23.402 -16.473  0.00  0.00    +0.144 HD
ENDROOT
BRANCH   1  15
ATOM     12  N   UNL     1      35.741 -20.153 -20.844  0.00  0.00    -0.312 N 
ATOM     13  C   UNL     1      33.843 -20.960 -19.993  0.00  0.00    +0.016 C 
ATOM     14  C   UNL     1      35.236 -20.998 -19.882  0.00  0.00    +0.048 C 
ATOM     15  C   UNL     1      33.720 -22.538 -18.158  0.00  0.00    +0.050 C 
ATOM     16  C   UNL     1      33.072 -21.746 -19.113  0.00  0.00    +0.016 C 
ATOM     17  C   UNL     1      35.896 -21.784 -18.932  0.00  0.00    +0.016 C 
ATOM     18  C   UNL     1      35.110 -22.555 -18.070  0.00  0.00    +0.016 C 
ATOM     19  C   UNL     1      33.533 -20.065 -21.054  0.00  0.00    +0.017 C 
ATOM     20  C   UNL     1      34.720 -19.585 -21.558  0.00  0.00    +0.062 C 
ATOM     21  H   UNL     1      36.698 -19.983 -20.998  0.00  0.00    +0.152 HD
ENDBRANCH   1  15
BRANCH   6  23
ATOM     22  N   UNL     1      38.637 -25.222 -13.161  0.00  0.00    -0.242 NA
ATOM     23  C   UNL     1      35.995 -24.735 -13.934  0.00  0.00    +0.031 C 
ATOM     24  C   UNL     1      36.279 -25.139 -12.634  0.00  0.00    +0.023 C 
ATOM     25  C   UNL     1      37.031 -24.575 -14.848  0.00  0.00    +0.023 C 
ATOM     26  C   UNL     1      37.603 -25.368 -12.301  0.00  0.00    +0.099 C 
ATOM     27  C   UNL     1      38.323 -24.829 -14.415  0.00  0.00    +0.099 C 
ENDBRANCH   6  23
TORSDOF 2
ENDMDL
MODEL 4
REMARK VINA RESULT:     -10.5      1.737      6.827
REMARK  Name = 44177328
REMARK  2 active torsions:
REMARK  status: ('A' for Active; 'I' for Inactive)
REMARK    1  A    between atoms: N_1  and  C_15
REMARK    2  A    between atoms: C_6  and  C_23
REMARK                            x       y       z     vdW  Elec       q    Type
REMARK                         _______ _______ _______ _____ _____    ______ ____
ROOT
ATOM      1  N   UNL     1      34.294 -24.625 -14.289  0.00  0.00    -0.286 N 
ATOM      2  N   UNL     1      35.030 -23.315 -16.118  0.00  0.00    -0.386 NA
ATOM      3  N   UNL     1      37.490 -22.931 -14.826  0.00  0.00    -0.246 NA
ATOM      4  N   UNL     1      36.725 -24.249 -13.008  0.00  0.00    -0.340 N 
ATOM      5  C   UNL     1      35.293 -23.851 -14.910  0.00  0.00    +0.214 C 
ATOM      6  C   UNL     1      36.019 -22.584 -16.669  0.00  0.00    +0.135 C 
ATOM      7  C   UNL     1      36.501 -23.664 -14.275  0.00  0.00    +0.166 C 
ATOM      8  C   UNL     1      37.227 -22.395 -16.034  0.00  0.00    +0.185 C 
ATOM      9  H   UNL     1      34.649 -25.334 -13.705  0.00  0.00    +0.155 HD
ATOM     10  H   UNL     1      37.586 -24.118 -12.549  0.00  0.00    +0.144 HD
ATOM     11  H   UNL     1      36.018 -24.788 -12.584  0.00  0.00    +0.144 HD
ENDROOT
BRANCH   1  15
ATOM     12  N   UNL     1      28.786 -24.308 -14.691  0.00  0.00    -0.312 N 
ATOM     13  C   UNL     1      30.844 -23.767 -15.362  0.00  0.00    +0.016 C 
ATOM     14  C   UNL     1      30.122 -24.516 -14.429  0.00  0.00    +0.048 C 
ATOM     15  C   UNL     1      32.883 -24.584 -14.341  0.00  0.00    +0.050 C 
ATOM     16  C   UNL     1      32.252 -23.803 -15.315  0.00  0.00    +0.016 C 
ATOM     17  C   UNL     1      30.739 -25.302 -13.451  0.00  0.00    +0.016 C 
ATOM     18  C   UNL     1      32.137 -25.321 -13.424  0.00  0.00    +0.016 C 
ATOM     19  C   UNL     1      29.896 -23.104 -16.190  0.00  0.00    +0.017 C 
ATOM     20  C   UNL     1      28.640 -23.455 -15.753  0.00  0.00    +0.062 C 
ATOM     21  H   UNL     1      28.044 -24.712 -14.186  0.00  0.00    +0.152 HD
ENDBRANCH   1  15
BRANCH   6  23
ATOM     22  N   UNL     1      35.180 -20.893 -20.461  0.00  0.00    -0.242 NA
ATOM     23  C   UNL     1      35.734 -22.009 -17.959  0.00  0.00    +0.031 C 
ATOM     24  C   UNL     1      36.732 -21.345 -18.663  0.00  0.00    +0.023 C 
ATOM     25  C   UNL     1      34.459 -22.116 -18.505  0.00  0.00    +0.023 C 
ATOM     26  C   UNL     1      36.407 -20.809 -19.899  0.00  0.00    +0.099 C 
ATOM     27  C   UNL     1      34.236 -21.546 -19.748  0.00  0.00    +0.099 C 
ENDBRANCH   6  23
TORSDOF 2
ENDMDL
MODEL 5
REMARK VINA RESULT:     -10.4      1.586      4.040
REMARK  Name = 44177328
REMARK  2 active torsions:
REMARK  status: ('A' for Active; 'I' for Inactive)
REMARK    1  A    between atoms: N_1  and  C_15
REMARK    2  A    between atoms: C_6  and  C_23
REMARK                            x       y       z     vdW  Elec       q    Type
REMARK                         _______ _______ _______ _____ _____    ______ ____
ROOT
ATOM      1  N   UNL     1      36.674 -22.446 -16.673  0.00  0.00    -0.286 N 
ATOM      2  N   UNL     1      34.843 -23.333 -15.463  0.00  0.00    -0.386 NA
ATOM      3  N   UNL     1      36.600 -25.039 -14.095  0.00  0.00    -0.246 NA
ATOM      4  N   UNL     1      38.415 -24.130 -15.323  0.00  0.00    -0.340 N 
ATOM      5  C   UNL     1      36.169 -23.334 -15.704  0.00  0.00    +0.214 C 
ATOM      6  C   UNL     1      34.410 -24.200 -14.527  0.00  0.00    +0.135 C 
ATOM      7  C   UNL     1      37.033 -24.171 -15.032  0.00  0.00    +0.166 C 
ATOM      8  C   UNL     1      35.274 -25.038 -13.855  0.00  0.00    +0.185 C 
ATOM      9  H   UNL     1      37.596 -22.149 -16.495  0.00  0.00    +0.155 HD
ATOM     10  H   UNL     1      39.037 -24.726 -14.846  0.00  0.00    +0.144 HD
ATOM     11  H   UNL     1      38.757 -23.505 -16.003  0.00  0.00    +0.144 HD
ENDROOT
BRANCH   1  15
ATOM     12  N   UNL     1      34.707 -20.171 -21.316  0.00  0.00    -0.312 N 
ATOM     13  C   UNL     1      36.293 -20.429 -19.768  0.00  0.00    +0.016 C 
ATOM     14  C   UNL     1      35.014 -20.840 -20.152  0.00  0.00    +0.048 C 
ATOM     15  C   UNL     1      36.117 -21.899 -17.850  0.00  0.00    +0.050 C 
ATOM     16  C   UNL     1      36.854 -20.971 -18.594  0.00  0.00    +0.016 C 
ATOM     17  C   UNL     1      34.267 -21.769 -19.420  0.00  0.00    +0.016 C 
ATOM     18  C   UNL     1      34.844 -22.291 -18.258  0.00  0.00    +0.016 C 
ATOM     19  C   UNL     1      36.740 -19.491 -20.740  0.00  0.00    +0.017 C 
ATOM     20  C   UNL     1      35.744 -19.353 -21.678  0.00  0.00    +0.062 C 
ATOM     21  H   UNL     1      33.863 -20.265 -21.813  0.00  0.00    +0.152 HD
ENDBRANCH   1  15
BRANCH   6  23
ATOM     22  N   UNL     1      30.240 -24.201 -13.782  0.00  0.00    -0.242 NA
ATOM     23  C   UNL     1      32.992 -24.201 -14.274  0.00  0.00    +0.031 C 
ATOM     24  C   UNL     1      32.180 -23.232 -14.853  0.00  0.00    +0.023 C 
ATOM     25  C   UNL     1      32.431 -25.170 -13.450  0.00  0.00    +0.023 C 
ATOM     26  C   UNL     1      30.823 -23.276 -14.578  0.00  0.00    +0.099 C 
ATOM     27  C   UNL     1      31.062 -25.127 -13.238  0.00  0.00    +0.099 C 
ENDBRANCH   6  23
TORSDOF 2
ENDMDL
MODEL 6
REMARK VINA RESULT:     -10.3     10.696     14.077
REMARK  Name = 44177328
REMARK  2 active torsions:
REMARK  status: ('A' for Active; 'I' for Inactive)
REMARK    1  A    between atoms: N_1  and  C_15
REMARK    2  A    between atoms: C_6  and  C_23
REMARK                            x       y       z     vdW  Elec       q    Type
REMARK                         _______ _______ _______ _____ _____    ______ ____
ROOT
ATOM      1  N   UNL     1      31.722  -9.849 -21.823  0.00  0.00    -0.286 N 
ATOM      2  N   UNL     1      32.494 -11.974 -22.526  0.00  0.00    -0.386 NA
ATOM      3  N   UNL     1      32.163 -12.935 -19.912  0.00  0.00    -0.246 NA
ATOM      4  N   UNL     1      31.392 -10.796 -19.238  0.00  0.00    -0.340 N 
ATOM      5  C   UNL     1      32.038 -11.189 -21.530  0.00  0.00    +0.214 C 
ATOM      6  C   UNL     1      32.782 -13.247 -22.193  0.00  0.00    +0.135 C 
ATOM      7  C   UNL     1      31.875 -11.661 -20.246  0.00  0.00    +0.166 C 
ATOM      8  C   UNL     1      32.619 -13.719 -20.909  0.00  0.00    +0.185 C 
ATOM      9  H   UNL     1      31.005  -9.479 -21.260  0.00  0.00    +0.155 HD
ATOM     10  H   UNL     1      31.274 -11.127 -18.319  0.00  0.00    +0.144 HD
ATOM     11  H   UNL     1      31.175  -9.860 -19.456  0.00  0.00    +0.144 HD
ENDROOT
BRANCH   1  15
ATOM     12  N   UNL     1      33.944  -6.258 -25.398  0.00  0.00    -0.312 N 
ATOM     13  C   UNL     1      34.048  -7.546 -23.579  0.00  0.00    +0.016 C 
ATOM     14  C   UNL     1      33.219  -7.139 -24.627  0.00  0.00    +0.048 C 
ATOM     15  C   UNL     1      32.233  -8.932 -22.768  0.00  0.00    +0.050 C 
ATOM     16  C   UNL     1      33.544  -8.461 -22.632  0.00  0.00    +0.016 C 
ATOM     17  C   UNL     1      31.908  -7.603 -24.776  0.00  0.00    +0.016 C 
ATOM     18  C   UNL     1      31.429  -8.509 -23.824  0.00  0.00    +0.016 C 
ATOM     19  C   UNL     1      35.293  -6.879 -23.748  0.00  0.00    +0.017 C 
ATOM     20  C   UNL     1      35.198  -6.094 -24.874  0.00  0.00    +0.062 C 
ATOM     21  H   UNL     1      33.608  -5.810 -26.207  0.00  0.00    +0.152 HD
ENDBRANCH   1  15
BRANCH   6  23
ATOM     22  N   UNL     1      34.226 -15.705 -25.327  0.00  0.00    -0.242 NA
ATOM     23  C   UNL     1      33.273 -14.083 -23.259  0.00  0.00    +0.031 C 
ATOM     24  C   UNL     1      32.941 -13.798 -24.579  0.00  0.00    +0.023 C 
ATOM     25  C   UNL     1      34.082 -15.177 -22.972  0.00  0.00    +0.023 C 
ATOM     26  C   UNL     1      33.438 -14.632 -25.567  0.00  0.00    +0.099 C 
ATOM     27  C   UNL     1      34.528 -15.950 -24.033  0.00  0.00    +0.099 C 
ENDBRANCH   6  23
TORSDOF 2
ENDMDL
MODEL 7
REMARK VINA RESULT:     -10.2      1.956      4.792
REMARK  Name = 44177328
REMARK  2 active torsions:
REMARK  status: ('A' for Active; 'I' for Inactive)
REMARK    1  A    between atoms: N_1  and  C_15
REMARK    2  A    between atoms: C_6  and  C_23
REMARK                            x       y       z     vdW  Elec       q    Type
REMARK                         _______ _______ _______ _____ _____    ______ ____
ROOT
ATOM      1  N   UNL     1      34.708 -23.338 -14.395  0.00  0.00    -0.286 N 
ATOM      2  N   UNL     1      32.407 -23.750 -14.769  0.00  0.00    -0.386 NA
ATOM      3  N   UNL     1      32.389 -25.512 -12.588  0.00  0.00    -0.246 NA
ATOM      4  N   UNL     1      34.695 -25.078 -12.237  0.00  0.00    -0.340 N 
ATOM      5  C   UNL     1      33.514 -23.994 -14.040  0.00  0.00    +0.214 C 
ATOM      6  C   UNL     1      31.291 -24.402 -14.389  0.00  0.00    +0.135 C 
ATOM      7  C   UNL     1      33.506 -24.859 -12.968  0.00  0.00    +0.166 C 
ATOM      8  C   UNL     1      31.283 -25.268 -13.317  0.00  0.00    +0.185 C 
ATOM      9  H   UNL     1      35.308 -23.170 -13.633  0.00  0.00    +0.155 HD
ATOM     10  H   UNL     1      34.695 -25.696 -11.470  0.00  0.00    +0.144 HD
ATOM     11  H   UNL     1      35.524 -24.614 -12.495  0.00  0.00    +0.144 HD
ENDROOT
BRANCH   1  15
ATOM     12  N   UNL     1      36.455 -21.563 -19.335  0.00  0.00    -0.312 N 
ATOM     13  C   UNL     1      34.885 -22.388 -17.981  0.00  0.00    +0.016 C 
ATOM     14  C   UNL     1      36.214 -21.961 -18.039  0.00  0.00    +0.048 C 
ATOM     15  C   UNL     1      35.212 -22.874 -15.630  0.00  0.00    +0.050 C 
ATOM     16  C   UNL     1      34.376 -22.853 -16.752  0.00  0.00    +0.016 C 
ATOM     17  C   UNL     1      37.061 -21.976 -16.926  0.00  0.00    +0.016 C 
ATOM     18  C   UNL     1      36.534 -22.442 -15.718  0.00  0.00    +0.016 C 
ATOM     19  C   UNL     1      34.339 -22.232 -19.286  0.00  0.00    +0.017 C 
ATOM     20  C   UNL     1      35.328 -21.723 -20.096  0.00  0.00    +0.062 C 
ATOM     21  H   UNL     1      37.314 -21.215 -19.666  0.00  0.00    +0.152 HD
ENDBRANCH   1  15
BRANCH   6  23
ATOM     22  N   UNL     1      27.818 -23.639 -16.691  0.00  0.00    -0.242 NA
ATOM     23  C   UNL     1      30.110 -24.142 -15.172  0.00  0.00    +0.031 C 
ATOM     24  C   UNL     1      29.759 -22.836 -15.494  0.00  0.00    +0.023 C 
ATOM     25  C   UNL     1      29.316 -25.197 -15.609  0.00  0.00    +0.023 C 
ATOM     26  C   UNL     1      28.615 -22.639 -16.249  0.00  0.00    +0.099 C 
ATOM     27  C   UNL     1      28.191 -24.895 -16.358  0.00  0.00    +0.099 C 
ENDBRANCH   6  23
TORSDOF 2
ENDMDL
MODEL 8
REMARK VINA RESULT:     -10.0      1.638      6.702
REMARK  Name = 44177328
REMARK  2 active torsions:
REMARK  status: ('A' for Active; 'I' for Inactive)
REMARK    1  A    between atoms: N_1  and  C_15
REMARK    2  A    between atoms: C_6  and  C_23
REMARK                            x       y       z     vdW  Elec       q    Type
REMARK                         _______ _______ _______ _____ _____    ______ ____
ROOT
ATOM      1  N   UNL     1      34.387 -24.712 -14.095  0.00  0.00    -0.286 N 
ATOM      2  N   UNL     1      34.125 -23.504 -16.114  0.00  0.00    -0.386 NA
ATOM      3  N   UNL     1      31.340 -23.648 -15.816  0.00  0.00    -0.246 NA
ATOM      4  N   UNL     1      31.634 -24.856 -13.795  0.00  0.00    -0.340 N 
ATOM      5  C   UNL     1      33.552 -24.124 -15.064  0.00  0.00    +0.214 C 
ATOM      6  C   UNL     1      33.282 -22.957 -17.013  0.00  0.00    +0.135 C 
ATOM      7  C   UNL     1      32.184 -24.194 -14.916  0.00  0.00    +0.166 C 
ATOM      8  C   UNL     1      31.914 -23.029 -16.865  0.00  0.00    +0.185 C 
ATOM      9  H   UNL     1      33.998 -24.721 -13.191  0.00  0.00    +0.155 HD
ATOM     10  H   UNL     1      30.657 -24.910 -13.685  0.00  0.00    +0.144 HD
ATOM     11  H   UNL     1      32.229 -25.263 -13.124  0.00  0.00    +0.144 HD
ENDROOT
BRANCH   1  15
ATOM     12  N   UNL     1      39.515 -26.782 -14.242  0.00  0.00    -0.312 N 
ATOM     13  C   UNL     1      38.037 -25.221 -13.642  0.00  0.00    +0.016 C 
ATOM     14  C   UNL     1      38.184 -26.436 -14.316  0.00  0.00    +0.048 C 
ATOM     15  C   UNL     1      35.673 -25.290 -14.167  0.00  0.00    +0.050 C 
ATOM     16  C   UNL     1      36.756 -24.638 -13.567  0.00  0.00    +0.016 C 
ATOM     17  C   UNL     1      37.110 -27.099 -14.919  0.00  0.00    +0.016 C 
ATOM     18  C   UNL     1      35.849 -26.501 -14.833  0.00  0.00    +0.016 C 
ATOM     19  C   UNL     1      39.325 -24.851 -13.163  0.00  0.00    +0.017 C 
ATOM     20  C   UNL     1      40.212 -25.830 -13.548  0.00  0.00    +0.062 C 
ATOM     21  H   UNL     1      39.908 -27.595 -14.634  0.00  0.00    +0.152 HD
ENDBRANCH   1  15
BRANCH   6  23
ATOM     22  N   UNL     1      35.092 -21.020 -20.316  0.00  0.00    -0.242 NA
ATOM     23  C   UNL     1      33.898 -22.299 -18.136  0.00  0.00    +0.031 C 
ATOM     24  C   UNL     1      35.277 -22.353 -18.308  0.00  0.00    +0.023 C 
ATOM     25  C   UNL     1      33.115 -21.607 -19.054  0.00  0.00    +0.023 C 
ATOM     26  C   UNL     1      35.820 -21.703 -19.404  0.00  0.00    +0.099 C 
ATOM     27  C   UNL     1      33.755 -20.989 -20.117  0.00  0.00    +0.099 C 
ENDBRANCH   6  23
TORSDOF 2
ENDMDL
MODEL 9
REMARK VINA RESULT:      -9.6      7.374     11.379
REMARK  Name = 44177328
REMARK  2 active torsions:
REMARK  status: ('A' for Active; 'I' for Inactive)
REMARK    1  A    between atoms: N_1  and  C_15
REMARK    2  A    between atoms: C_6  and  C_23
REMARK                            x       y       z     vdW  Elec       q    Type
REMARK                         _______ _______ _______ _____ _____    ______ ____
ROOT
ATOM      1  N   UNL     1      33.255 -12.920 -23.594  0.00  0.00    -0.286 N 
ATOM      2  N   UNL     1      34.003 -15.129 -23.186  0.00  0.00    -0.386 NA
ATOM      3  N   UNL     1      33.640 -15.731 -25.901  0.00  0.00    -0.246 NA
ATOM      4  N   UNL     1      32.896 -13.510 -26.279  0.00  0.00    -0.340 N 
ATOM      5  C   UNL     1      33.550 -14.213 -24.065  0.00  0.00    +0.214 C 
ATOM      6  C   UNL     1      34.271 -16.351 -23.688  0.00  0.00    +0.135 C 
ATOM      7  C   UNL     1      33.373 -14.508 -25.399  0.00  0.00    +0.166 C 
ATOM      8  C   UNL     1      34.092 -16.646 -25.022  0.00  0.00    +0.185 C 
ATOM      9  H   UNL     1      33.387 -12.214 -24.266  0.00  0.00    +0.155 HD
ATOM     10  H   UNL     1      32.767 -13.715 -27.233  0.00  0.00    +0.144 HD
ATOM     11  H   UNL     1      32.693 -12.609 -25.937  0.00  0.00    +0.144 HD
ENDROOT
BRANCH   1  15
ATOM     12  N   UNL     1      31.485 -10.801 -18.800  0.00  0.00    -0.312 N 
ATOM     13  C   UNL     1      32.069 -10.604 -20.944  0.00  0.00    +0.016 C 
ATOM     14  C   UNL     1      31.930 -11.512 -19.892  0.00  0.00    +0.048 C 
ATOM     15  C   UNL     1      32.807 -12.439 -22.343  0.00  0.00    +0.050 C 
ATOM     16  C   UNL     1      32.516 -11.078 -22.194  0.00  0.00    +0.016 C 
ATOM     17  C   UNL     1      32.216 -12.875 -20.028  0.00  0.00    +0.016 C 
ATOM     18  C   UNL     1      32.659 -13.322 -21.276  0.00  0.00    +0.016 C 
ATOM     19  C   UNL     1      31.693  -9.325 -20.445  0.00  0.00    +0.017 C 
ATOM     20  C   UNL     1      31.339  -9.479 -19.125  0.00  0.00    +0.062 C 
ATOM     21  H   UNL     1      31.300 -11.188 -17.914  0.00  0.00    +0.152 HD
ENDBRANCH   1  15
BRANCH   6  23
ATOM     22  N   UNL     1      35.681 -19.227 -20.916  0.00  0.00    -0.242 NA
ATOM     23  C   UNL     1      34.750 -17.329 -22.745  0.00  0.00    +0.031 C 
ATOM     24  C   UNL     1      35.264 -16.923 -21.518  0.00  0.00    +0.023 C 
ATOM     25  C   UNL     1      34.701 -18.683 -23.058  0.00  0.00    +0.023 C 
ATOM     26  C   UNL     1      35.712 -17.902 -20.647  0.00  0.00    +0.099 C 
ATOM     27  C   UNL     1      35.175 -19.584 -22.118  0.00  0.00    +0.099 C 
ENDBRANCH   6  23
TORSDOF 2
ENDMDL
