MODEL 1
REMARK VINA RESULT:     -11.9      0.000      0.000
REMARK  Name = 16755766
REMARK  5 active torsions:
REMARK  status: ('A' for Active; 'I' for Inactive)
REMARK    1  A    between atoms: N_1  and  C_25
REMARK    2  A    between atoms: N_3  and  C_12
REMARK    3  A    between atoms: C_5  and  C_20
REMARK    4  A    between atoms: C_25  and  C_26
REMARK    5  A    between atoms: C_26  and  C_29
REMARK                            x       y       z     vdW  Elec       q    Type
REMARK                         _______ _______ _______ _____ _____    ______ ____
ROOT
ATOM      1  N   UNL     1      32.553 -23.535 -15.779  0.00  0.00    -0.174 N 
ATOM      2  N   UNL     1      33.766 -23.736 -15.261  0.00  0.00    -0.096 NA
ATOM      3  N   UNL     1      34.314 -24.738 -13.154  0.00  0.00    -0.246 N 
ATOM      4  N   UNL     1      32.103 -24.474 -13.874  0.00  0.00    -0.319 NA
ATOM      5  C   UNL     1      31.569 -23.969 -14.963  0.00  0.00    +0.216 C 
ATOM      6  C   UNL     1      33.439 -24.311 -14.102  0.00  0.00    +0.165 C 
ATOM      7  H   UNL     1      33.882 -25.057 -12.329  0.00  0.00    +0.165 HD
ENDROOT
BRANCH   3  12
ATOM      8  F   UNL     1      40.501 -27.156 -13.858  0.00  0.00    -0.125 F 
ATOM      9  F   UNL     1      40.619 -25.464 -15.240  0.00  0.00    -0.125 F 
ATOM     10  O   UNL     1      38.591 -26.377 -14.799  0.00  0.00    -0.395 OA
ATOM     11  O   UNL     1      39.819 -25.113 -13.149  0.00  0.00    -0.395 OA
ATOM     12  C   UNL     1      35.735 -24.813 -13.126  0.00  0.00    +0.061 C 
ATOM     13  C   UNL     1      37.773 -25.655 -13.984  0.00  0.00    +0.183 C 
ATOM     14  C   UNL     1      36.394 -25.615 -14.052  0.00  0.00    +0.056 C 
ATOM     15  C   UNL     1      38.474 -24.934 -13.043  0.00  0.00    +0.182 C 
ATOM     16  C   UNL     1      36.440 -24.076 -12.164  0.00  0.00    +0.019 C 
ATOM     17  C   UNL     1      37.834 -24.134 -12.118  0.00  0.00    +0.042 C 
ATOM     18  C   UNL     1      39.871 -26.023 -14.257  0.00  0.00    +0.589 C 
ENDBRANCH   3  12
BRANCH   5  20
ATOM     19  N   UNL     1      27.433 -23.695 -15.843  0.00  0.00    -0.242 NA
ATOM     20  C   UNL     1      30.160 -23.876 -15.260  0.00  0.00    +0.050 C 
ATOM     21  C   UNL     1      29.455 -22.720 -14.944  0.00  0.00    +0.025 C 
ATOM     22  C   UNL     1      29.504 -24.941 -15.867  0.00  0.00    +0.025 C 
ATOM     23  C   UNL     1      28.105 -22.680 -15.253  0.00  0.00    +0.099 C 
ATOM     24  C   UNL     1      28.152 -24.801 -16.135  0.00  0.00    +0.099 C 
ENDBRANCH   5  20
BRANCH   1  25
ATOM     25  C   UNL     1      32.425 -22.897 -17.084  0.00  0.00    +0.129 C 
BRANCH  25  26
ATOM     26  C   UNL     1      33.715 -22.987 -17.897  0.00  0.00    +0.109 C 
BRANCH  26  29
ATOM     27  O   UNL     1      32.679 -21.812 -19.711  0.00  0.00    -0.275 OA
ATOM     28  N   UNL     1      34.951 -21.458 -19.411  0.00  0.00    -0.276 N 
ATOM     29  C   UNL     1      33.720 -22.037 -19.088  0.00  0.00    +0.228 C 
ATOM     30  C   UNL     1      36.171 -21.740 -18.658  0.00  0.00    +0.115 C 
ATOM     31  C   UNL     1      35.111 -20.531 -20.524  0.00  0.00    +0.115 C 
ENDBRANCH  26  29
ENDBRANCH  25  26
ENDBRANCH   1  25
TORSDOF 5
ENDMDL
MODEL 2
REMARK VINA RESULT:     -11.4      4.358      8.137
REMARK  Name = 16755766
REMARK  5 active torsions:
REMARK  status: ('A' for Active; 'I' for Inactive)
REMARK    1  A    between atoms: N_1  and  C_25
REMARK    2  A    between atoms: N_3  and  C_12
REMARK    3  A    between atoms: C_5  and  C_20
REMARK    4  A    between atoms: C_25  and  C_26
REMARK    5  A    between atoms: C_26  and  C_29
REMARK                            x       y       z     vdW  Elec       q    Type
REMARK                         _______ _______ _______ _____ _____    ______ ____
ROOT
ATOM      1  N   UNL     1      34.692 -23.851 -15.386  0.00  0.00    -0.174 N 
ATOM      2  N   UNL     1      34.611 -23.066 -16.463  0.00  0.00    -0.096 NA
ATOM      3  N   UNL     1      36.413 -22.090 -17.705  0.00  0.00    -0.246 N 
ATOM      4  N   UNL     1      36.777 -23.442 -15.829  0.00  0.00    -0.319 NA
ATOM      5  C   UNL     1      35.969 -24.075 -15.010  0.00  0.00    +0.216 C 
ATOM      6  C   UNL     1      35.907 -22.844 -16.695  0.00  0.00    +0.165 C 
ATOM      7  H   UNL     1      37.390 -21.972 -17.662  0.00  0.00    +0.165 HD
ENDROOT
BRANCH   3  12
ATOM      8  F   UNL     1      35.076 -17.436 -22.306  0.00  0.00    -0.125 F 
ATOM      9  F   UNL     1      35.710 -19.065 -23.620  0.00  0.00    -0.125 F 
ATOM     10  O   UNL     1      36.469 -19.024 -21.484  0.00  0.00    -0.395 OA
ATOM     11  O   UNL     1      34.162 -19.491 -22.021  0.00  0.00    -0.395 OA
ATOM     12  C   UNL     1      35.803 -21.436 -18.812  0.00  0.00    +0.061 C 
ATOM     13  C   UNL     1      35.911 -19.928 -20.631  0.00  0.00    +0.183 C 
ATOM     14  C   UNL     1      36.547 -20.537 -19.568  0.00  0.00    +0.056 C 
ATOM     15  C   UNL     1      34.595 -20.194 -20.938  0.00  0.00    +0.182 C 
ATOM     16  C   UNL     1      34.463 -21.713 -19.116  0.00  0.00    +0.019 C 
ATOM     17  C   UNL     1      33.844 -21.084 -20.198  0.00  0.00    +0.042 C 
ATOM     18  C   UNL     1      35.354 -18.763 -22.347  0.00  0.00    +0.589 C 
ENDBRANCH   3  12
BRANCH   5  20
ATOM     19  N   UNL     1      37.113 -26.437 -11.684  0.00  0.00    -0.242 NA
ATOM     20  C   UNL     1      36.357 -24.880 -13.878  0.00  0.00    +0.050 C 
ATOM     21  C   UNL     1      36.821 -26.177 -14.070  0.00  0.00    +0.025 C 
ATOM     22  C   UNL     1      36.271 -24.361 -12.591  0.00  0.00    +0.025 C 
ATOM     23  C   UNL     1      37.183 -26.908 -12.949  0.00  0.00    +0.099 C 
ATOM     24  C   UNL     1      36.658 -25.174 -11.537  0.00  0.00    +0.099 C 
ENDBRANCH   5  20
BRANCH   1  25
ATOM     25  C   UNL     1      33.469 -24.343 -14.763  0.00  0.00    +0.129 C 
BRANCH  25  26
ATOM     26  C   UNL     1      32.420 -23.243 -14.606  0.00  0.00    +0.109 C 
BRANCH  26  29
ATOM     27  O   UNL     1      31.031 -23.004 -16.545  0.00  0.00    -0.275 OA
ATOM     28  N   UNL     1      30.215 -24.354 -14.844  0.00  0.00    -0.276 N 
ATOM     29  C   UNL     1      31.168 -23.513 -15.429  0.00  0.00    +0.228 C 
ATOM     30  C   UNL     1      30.397 -24.945 -13.521  0.00  0.00    +0.115 C 
ATOM     31  C   UNL     1      28.966 -24.701 -15.511  0.00  0.00    +0.115 C 
ENDBRANCH  26  29
ENDBRANCH  25  26
ENDBRANCH   1  25
TORSDOF 5
ENDMDL
MODEL 3
REMARK VINA RESULT:     -10.7      4.467      8.184
REMARK  Name = 16755766
REMARK  5 active torsions:
REMARK  status: ('A' for Active; 'I' for Inactive)
REMARK    1  A    between atoms: N_1  and  C_25
REMARK    2  A    between atoms: N_3  and  C_12
REMARK    3  A    between atoms: C_5  and  C_20
REMARK    4  A    between atoms: C_25  and  C_26
REMARK    5  A    between atoms: C_26  and  C_29
REMARK                            x       y       z     vdW  Elec       q    Type
REMARK                         _______ _______ _______ _____ _____    ______ ____
ROOT
ATOM      1  N   UNL     1      34.745 -23.685 -14.637  0.00  0.00    -0.174 N 
ATOM      2  N   UNL     1      33.460 -23.804 -14.973  0.00  0.00    -0.096 NA
ATOM      3  N   UNL     1      31.672 -24.693 -13.646  0.00  0.00    -0.246 N 
ATOM      4  N   UNL     1      33.874 -24.579 -12.861  0.00  0.00    -0.319 NA
ATOM      5  C   UNL     1      34.994 -24.142 -13.391  0.00  0.00    +0.216 C 
ATOM      6  C   UNL     1      32.971 -24.353 -13.859  0.00  0.00    +0.165 C 
ATOM      7  H   UNL     1      31.519 -25.165 -12.796  0.00  0.00    +0.165 HD
ENDROOT
BRANCH   3  12
ATOM      8  F   UNL     1      25.760 -22.267 -15.592  0.00  0.00    -0.125 F 
ATOM      9  F   UNL     1      26.977 -21.658 -17.304  0.00  0.00    -0.125 F 
ATOM     10  O   UNL     1      27.989 -21.975 -15.300  0.00  0.00    -0.395 OA
ATOM     11  O   UNL     1      27.091 -23.806 -16.591  0.00  0.00    -0.395 OA
ATOM     12  C   UNL     1      30.492 -24.497 -14.417  0.00  0.00    +0.061 C 
ATOM     13  C   UNL     1      28.732 -23.110 -15.175  0.00  0.00    +0.183 C 
ATOM     14  C   UNL     1      29.874 -23.251 -14.413  0.00  0.00    +0.056 C 
ATOM     15  C   UNL     1      28.219 -24.155 -15.913  0.00  0.00    +0.182 C 
ATOM     16  C   UNL     1      29.978 -25.566 -15.163  0.00  0.00    +0.019 C 
ATOM     17  C   UNL     1      28.821 -25.396 -15.927  0.00  0.00    +0.042 C 
ATOM     18  C   UNL     1      26.965 -22.434 -16.192  0.00  0.00    +0.589 C 
ENDBRANCH   3  12
BRANCH   5  20
ATOM     19  N   UNL     1      38.812 -24.153 -11.554  0.00  0.00    -0.242 NA
ATOM     20  C   UNL     1      36.294 -24.144 -12.766  0.00  0.00    +0.050 C 
ATOM     21  C   UNL     1      36.591 -23.223 -11.767  0.00  0.00    +0.025 C 
ATOM     22  C   UNL     1      37.255 -25.069 -13.159  0.00  0.00    +0.025 C 
ATOM     23  C   UNL     1      37.853 -23.269 -11.198  0.00  0.00    +0.099 C 
ATOM     24  C   UNL     1      38.487 -25.032 -12.528  0.00  0.00    +0.099 C 
ENDBRANCH   5  20
BRANCH   1  25
ATOM     25  C   UNL     1      35.689 -23.121 -15.594  0.00  0.00    +0.129 C 
BRANCH  25  26
ATOM     26  C   UNL     1      35.053 -22.893 -16.965  0.00  0.00    +0.109 C 
BRANCH  26  29
ATOM     27  O   UNL     1      37.134 -21.900 -17.617  0.00  0.00    -0.275 OA
ATOM     28  N   UNL     1      35.335 -21.567 -19.042  0.00  0.00    -0.276 N 
ATOM     29  C   UNL     1      35.945 -22.079 -17.892  0.00  0.00    +0.228 C 
ATOM     30  C   UNL     1      33.924 -21.792 -19.348  0.00  0.00    +0.115 C 
ATOM     31  C   UNL     1      36.061 -20.768 -20.021  0.00  0.00    +0.115 C 
ENDBRANCH  26  29
ENDBRANCH  25  26
ENDBRANCH   1  25
TORSDOF 5
ENDMDL
MODEL 4
REMARK VINA RESULT:     -10.5      3.880      7.306
REMARK  Name = 16755766
REMARK  5 active torsions:
REMARK  status: ('A' for Active; 'I' for Inactive)
REMARK    1  A    between atoms: N_1  and  C_25
REMARK    2  A    between atoms: N_3  and  C_12
REMARK    3  A    between atoms: C_5  and  C_20
REMARK    4  A    between atoms: C_25  and  C_26
REMARK    5  A    between atoms: C_26  and  C_29
REMARK                            x       y       z     vdW  Elec       q    Type
REMARK                         _______ _______ _______ _____ _____    ______ ____
ROOT
ATOM      1  N   UNL     1      33.318 -23.576 -15.816  0.00  0.00    -0.174 N 
ATOM      2  N   UNL     1      33.879 -22.914 -16.829  0.00  0.00    -0.096 NA
ATOM      3  N   UNL     1      32.809 -22.061 -18.797  0.00  0.00    -0.246 N 
ATOM      4  N   UNL     1      31.631 -23.207 -17.131  0.00  0.00    -0.319 NA
ATOM      5  C   UNL     1      31.990 -23.751 -15.991  0.00  0.00    +0.216 C 
ATOM      6  C   UNL     1      32.811 -22.711 -17.604  0.00  0.00    +0.165 C 
ATOM      7  H   UNL     1      31.942 -22.087 -19.262  0.00  0.00    +0.165 HD
ENDROOT
BRANCH   3  12
ATOM      8  F   UNL     1      35.896 -18.703 -23.677  0.00  0.00    -0.125 F 
ATOM      9  F   UNL     1      35.898 -17.161 -22.125  0.00  0.00    -0.125 F 
ATOM     10  O   UNL     1      34.309 -18.776 -22.060  0.00  0.00    -0.395 OA
ATOM     11  O   UNL     1      36.633 -19.239 -21.600  0.00  0.00    -0.395 OA
ATOM     12  C   UNL     1      33.820 -21.351 -19.503  0.00  0.00    +0.061 C 
ATOM     13  C   UNL     1      34.468 -19.737 -21.107  0.00  0.00    +0.183 C 
ATOM     14  C   UNL     1      33.451 -20.399 -20.448  0.00  0.00    +0.056 C 
ATOM     15  C   UNL     1      35.794 -20.000 -20.845  0.00  0.00    +0.182 C 
ATOM     16  C   UNL     1      35.167 -21.626 -19.230  0.00  0.00    +0.019 C 
ATOM     17  C   UNL     1      36.176 -20.941 -19.910  0.00  0.00    +0.042 C 
ATOM     18  C   UNL     1      35.680 -18.479 -22.356  0.00  0.00    +0.589 C 
ENDBRANCH   3  12
BRANCH   5  20
ATOM     19  N   UNL     1      29.452 -25.762 -13.258  0.00  0.00    -0.242 NA
ATOM     20  C   UNL     1      31.127 -24.437 -15.060  0.00  0.00    +0.050 C 
ATOM     21  C   UNL     1      31.449 -24.476 -13.708  0.00  0.00    +0.025 C 
ATOM     22  C   UNL     1      29.969 -25.059 -15.512  0.00  0.00    +0.025 C 
ATOM     23  C   UNL     1      30.586 -25.145 -12.856  0.00  0.00    +0.099 C 
ATOM     24  C   UNL     1      29.173 -25.703 -14.579  0.00  0.00    +0.099 C 
ENDBRANCH   5  20
BRANCH   1  25
ATOM     25  C   UNL     1      34.146 -24.023 -14.703  0.00  0.00    +0.129 C 
BRANCH  25  26
ATOM     26  C   UNL     1      35.608 -24.204 -15.109  0.00  0.00    +0.109 C 
BRANCH  26  29
ATOM     27  O   UNL     1      35.957 -26.573 -15.221  0.00  0.00    -0.275 OA
ATOM     28  N   UNL     1      36.980 -25.456 -13.465  0.00  0.00    -0.276 N 
ATOM     29  C   UNL     1      36.189 -25.523 -14.617  0.00  0.00    +0.228 C 
ATOM     30  C   UNL     1      37.242 -24.201 -12.765  0.00  0.00    +0.115 C 
ATOM     31  C   UNL     1      37.602 -26.635 -12.875  0.00  0.00    +0.115 C 
ENDBRANCH  26  29
ENDBRANCH  25  26
ENDBRANCH   1  25
TORSDOF 5
ENDMDL
MODEL 5
REMARK VINA RESULT:     -10.1      2.795      5.801
REMARK  Name = 16755766
REMARK  5 active torsions:
REMARK  status: ('A' for Active; 'I' for Inactive)
REMARK    1  A    between atoms: N_1  and  C_25
REMARK    2  A    between atoms: N_3  and  C_12
REMARK    3  A    between atoms: C_5  and  C_20
REMARK    4  A    between atoms: C_25  and  C_26
REMARK    5  A    between atoms: C_26  and  C_29
REMARK                            x       y       z     vdW  Elec       q    Type
REMARK                         _______ _______ _______ _____ _____    ______ ____
ROOT
ATOM      1  N   UNL     1      34.781 -22.397 -17.794  0.00  0.00    -0.174 N 
ATOM      2  N   UNL     1      35.258 -22.993 -16.700  0.00  0.00    -0.096 NA
ATOM      3  N   UNL     1      37.488 -22.893 -15.829  0.00  0.00    -0.246 N 
ATOM      4  N   UNL     1      36.858 -21.767 -17.782  0.00  0.00    -0.319 NA
ATOM      5  C   UNL     1      35.723 -21.673 -18.435  0.00  0.00    +0.216 C 
ATOM      6  C   UNL     1      36.526 -22.579 -16.735  0.00  0.00    +0.165 C 
ATOM      7  H   UNL     1      38.384 -22.564 -16.070  0.00  0.00    +0.165 HD
ENDROOT
BRANCH   3  12
ATOM      8  F   UNL     1      36.476 -24.233  -9.363  0.00  0.00    -0.125 F 
ATOM      9  F   UNL     1      35.103 -25.687 -10.249  0.00  0.00    -0.125 F 
ATOM     10  O   UNL     1      35.632 -23.823 -11.427  0.00  0.00    -0.395 OA
ATOM     11  O   UNL     1      37.232 -25.585 -11.019  0.00  0.00    -0.395 OA
ATOM     12  C   UNL     1      37.449 -23.606 -14.598  0.00  0.00    +0.061 C 
ATOM     13  C   UNL     1      36.490 -23.997 -12.471  0.00  0.00    +0.183 C 
ATOM     14  C   UNL     1      36.487 -23.277 -13.649  0.00  0.00    +0.056 C 
ATOM     15  C   UNL     1      37.403 -25.002 -12.238  0.00  0.00    +0.182 C 
ATOM     16  C   UNL     1      38.382 -24.627 -14.370  0.00  0.00    +0.019 C 
ATOM     17  C   UNL     1      38.362 -25.341 -13.170  0.00  0.00    +0.042 C 
ATOM     18  C   UNL     1      36.116 -24.830 -10.527  0.00  0.00    +0.589 C 
ENDBRANCH   3  12
BRANCH   5  20
ATOM     19  N   UNL     1      35.049 -19.487 -22.002  0.00  0.00    -0.242 NA
ATOM     20  C   UNL     1      35.494 -20.927 -19.649  0.00  0.00    +0.050 C 
ATOM     21  C   UNL     1      36.555 -20.301 -20.295  0.00  0.00    +0.025 C 
ATOM     22  C   UNL     1      34.212 -20.834 -20.178  0.00  0.00    +0.025 C 
ATOM     23  C   UNL     1      36.281 -19.599 -21.458  0.00  0.00    +0.099 C 
ATOM     24  C   UNL     1      34.044 -20.109 -21.347  0.00  0.00    +0.099 C 
ENDBRANCH   5  20
BRANCH   1  25
ATOM     25  C   UNL     1      33.384 -22.588 -18.166  0.00  0.00    +0.129 C 
BRANCH  25  26
ATOM     26  C   UNL     1      32.711 -23.679 -17.334  0.00  0.00    +0.109 C 
BRANCH  26  29
ATOM     27  O   UNL     1      30.675 -22.475 -16.943  0.00  0.00    -0.275 OA
ATOM     28  N   UNL     1      31.693 -23.423 -15.086  0.00  0.00    -0.276 N 
ATOM     29  C   UNL     1      31.597 -23.133 -16.451  0.00  0.00    +0.228 C 
ATOM     30  C   UNL     1      32.793 -24.203 -14.526  0.00  0.00    +0.115 C 
ATOM     31  C   UNL     1      30.702 -22.966 -14.119  0.00  0.00    +0.115 C 
ENDBRANCH  26  29
ENDBRANCH  25  26
ENDBRANCH   1  25
TORSDOF 5
ENDMDL
MODEL 6
REMARK VINA RESULT:      -9.4     12.089     16.249
REMARK  Name = 16755766
REMARK  5 active torsions:
REMARK  status: ('A' for Active; 'I' for Inactive)
REMARK    1  A    between atoms: N_1  and  C_25
REMARK    2  A    between atoms: N_3  and  C_12
REMARK    3  A    between atoms: C_5  and  C_20
REMARK    4  A    between atoms: C_25  and  C_26
REMARK    5  A    between atoms: C_26  and  C_29
REMARK                            x       y       z     vdW  Elec       q    Type
REMARK                         _______ _______ _______ _____ _____    ______ ____
ROOT
ATOM      1  N   UNL     1      34.094  -9.439 -23.351  0.00  0.00    -0.174 N 
ATOM      2  N   UNL     1      34.224 -10.767 -23.389  0.00  0.00    -0.096 NA
ATOM      3  N   UNL     1      32.583 -12.419 -22.821  0.00  0.00    -0.246 N 
ATOM      4  N   UNL     1      32.146 -10.124 -22.680  0.00  0.00    -0.319 NA
ATOM      5  C   UNL     1      32.868  -9.056 -22.933  0.00  0.00    +0.216 C 
ATOM      6  C   UNL     1      33.012 -11.138 -22.971  0.00  0.00    +0.165 C 
ATOM      7  H   UNL     1      31.687 -12.493 -22.421  0.00  0.00    +0.165 HD
ENDROOT
BRANCH   3  12
ATOM      8  F   UNL     1      36.628 -17.722 -22.454  0.00  0.00    -0.125 F 
ATOM      9  F   UNL     1      34.704 -18.717 -22.146  0.00  0.00    -0.125 F 
ATOM     10  O   UNL     1      34.899 -16.523 -21.608  0.00  0.00    -0.395 OA
ATOM     11  O   UNL     1      34.930 -17.295 -23.896  0.00  0.00    -0.395 OA
ATOM     12  C   UNL     1      33.180 -13.672 -23.132  0.00  0.00    +0.061 C 
ATOM     13  C   UNL     1      34.307 -15.642 -22.462  0.00  0.00    +0.183 C 
ATOM     14  C   UNL     1      33.738 -14.434 -22.111  0.00  0.00    +0.056 C 
ATOM     15  C   UNL     1      34.324 -16.083 -23.767  0.00  0.00    +0.182 C 
ATOM     16  C   UNL     1      33.194 -14.112 -24.463  0.00  0.00    +0.019 C 
ATOM     17  C   UNL     1      33.775 -15.339 -24.791  0.00  0.00    +0.042 C 
ATOM     18  C   UNL     1      35.284 -17.553 -22.530  0.00  0.00    +0.589 C 
ENDBRANCH   3  12
BRANCH   5  20
ATOM     19  N   UNL     1      31.632  -5.025 -22.518  0.00  0.00    -0.242 NA
ATOM     20  C   UNL     1      32.446  -7.684 -22.790  0.00  0.00    +0.050 C 
ATOM     21  C   UNL     1      32.762  -6.973 -21.638  0.00  0.00    +0.025 C 
ATOM     22  C   UNL     1      31.725  -7.067 -23.806  0.00  0.00    +0.025 C 
ATOM     23  C   UNL     1      32.335  -5.657 -21.552  0.00  0.00    +0.099 C 
ATOM     24  C   UNL     1      31.345  -5.748 -23.622  0.00  0.00    +0.099 C 
ENDBRANCH   5  20
BRANCH   1  25
ATOM     25  C   UNL     1      35.221  -8.596 -23.731  0.00  0.00    +0.129 C 
BRANCH  25  26
ATOM     26  C   UNL     1      35.061  -8.019 -25.137  0.00  0.00    +0.109 C 
BRANCH  26  29
ATOM     27  O   UNL     1      35.133  -5.866 -24.086  0.00  0.00    -0.275 OA
ATOM     28  N   UNL     1      34.818  -5.888 -26.383  0.00  0.00    -0.276 N 
ATOM     29  C   UNL     1      35.009  -6.497 -25.139  0.00  0.00    +0.228 C 
ATOM     30  C   UNL     1      34.674  -6.656 -27.618  0.00  0.00    +0.115 C 
ATOM     31  C   UNL     1      34.746  -4.441 -26.542  0.00  0.00    +0.115 C 
ENDBRANCH  26  29
ENDBRANCH  25  26
ENDBRANCH   1  25
TORSDOF 5
ENDMDL
MODEL 7
REMARK VINA RESULT:      -9.4     13.908     17.856
REMARK  Name = 16755766
REMARK  5 active torsions:
REMARK  status: ('A' for Active; 'I' for Inactive)
REMARK    1  A    between atoms: N_1  and  C_25
REMARK    2  A    between atoms: N_3  and  C_12
REMARK    3  A    between atoms: C_5  and  C_20
REMARK    4  A    between atoms: C_25  and  C_26
REMARK    5  A    between atoms: C_26  and  C_29
REMARK                            x       y       z     vdW  Elec       q    Type
REMARK                         _______ _______ _______ _____ _____    ______ ____
ROOT
ATOM      1  N   UNL     1      33.234  -7.079 -22.771  0.00  0.00    -0.174 N 
ATOM      2  N   UNL     1      33.248  -8.391 -22.532  0.00  0.00    -0.096 NA
ATOM      3  N   UNL     1      31.435  -9.765 -21.776  0.00  0.00    -0.246 N 
ATOM      4  N   UNL     1      31.196  -7.464 -22.130  0.00  0.00    -0.319 NA
ATOM      5  C   UNL     1      32.024  -6.528 -22.534  0.00  0.00    +0.216 C 
ATOM      6  C   UNL     1      31.984  -8.578 -22.145  0.00  0.00    +0.165 C 
ATOM      7  H   UNL     1      30.513  -9.689 -21.440  0.00  0.00    +0.165 HD
ENDROOT
BRANCH   3  12
ATOM      8  F   UNL     1      33.450 -15.716 -24.045  0.00  0.00    -0.125 F 
ATOM      9  F   UNL     1      35.326 -15.015 -23.167  0.00  0.00    -0.125 F 
ATOM     10  O   UNL     1      33.796 -13.485 -23.844  0.00  0.00    -0.395 OA
ATOM     11  O   UNL     1      33.432 -14.907 -21.927  0.00  0.00    -0.395 OA
ATOM     12  C   UNL     1      31.937 -11.097 -21.783  0.00  0.00    +0.061 C 
ATOM     13  C   UNL     1      33.098 -12.856 -22.857  0.00  0.00    +0.183 C 
ATOM     14  C   UNL     1      32.631 -11.558 -22.897  0.00  0.00    +0.056 C 
ATOM     15  C   UNL     1      32.891 -13.668 -21.763  0.00  0.00    +0.182 C 
ATOM     16  C   UNL     1      31.721 -11.915 -20.666  0.00  0.00    +0.019 C 
ATOM     17  C   UNL     1      32.205 -13.225 -20.651  0.00  0.00    +0.042 C 
ATOM     18  C   UNL     1      33.994 -14.770 -23.239  0.00  0.00    +0.589 C 
ENDBRANCH   3  12
BRANCH   5  20
ATOM     19  N   UNL     1      31.119  -2.417 -23.020  0.00  0.00    -0.242 NA
ATOM     20  C   UNL     1      31.717  -5.128 -22.701  0.00  0.00    +0.050 C 
ATOM     21  C   UNL     1      31.368  -4.633 -23.953  0.00  0.00    +0.025 C 
ATOM     22  C   UNL     1      31.767  -4.269 -21.608  0.00  0.00    +0.025 C 
ATOM     23  C   UNL     1      31.081  -3.282 -24.058  0.00  0.00    +0.099 C 
ATOM     24  C   UNL     1      31.462  -2.934 -21.819  0.00  0.00    +0.099 C 
ENDBRANCH   5  20
BRANCH   1  25
ATOM     25  C   UNL     1      34.452  -6.417 -23.222  0.00  0.00    +0.129 C 
BRANCH  25  26
ATOM     26  C   UNL     1      34.983  -7.015 -24.524  0.00  0.00    +0.109 C 
BRANCH  26  29
ATOM     27  O   UNL     1      33.026  -7.143 -25.901  0.00  0.00    -0.275 OA
ATOM     28  N   UNL     1      34.691  -5.686 -26.598  0.00  0.00    -0.276 N 
ATOM     29  C   UNL     1      34.135  -6.631 -25.729  0.00  0.00    +0.228 C 
ATOM     30  C   UNL     1      36.007  -5.093 -26.374  0.00  0.00    +0.115 C 
ATOM     31  C   UNL     1      33.998  -5.222 -27.793  0.00  0.00    +0.115 C 
ENDBRANCH  26  29
ENDBRANCH  25  26
ENDBRANCH   1  25
TORSDOF 5
ENDMDL
MODEL 8
REMARK VINA RESULT:      -9.3      9.561     13.878
REMARK  Name = 16755766
REMARK  5 active torsions:
REMARK  status: ('A' for Active; 'I' for Inactive)
REMARK    1  A    between atoms: N_1  and  C_25
REMARK    2  A    between atoms: N_3  and  C_12
REMARK    3  A    between atoms: C_5  and  C_20
REMARK    4  A    between atoms: C_25  and  C_26
REMARK    5  A    between atoms: C_26  and  C_29
REMARK                            x       y       z     vdW  Elec       q    Type
REMARK                         _______ _______ _______ _____ _____    ______ ____
ROOT
ATOM      1  N   UNL     1      32.475 -12.314 -22.724  0.00  0.00    -0.174 N 
ATOM      2  N   UNL     1      32.838 -13.598 -22.750  0.00  0.00    -0.096 NA
ATOM      3  N   UNL     1      34.735 -14.563 -23.853  0.00  0.00    -0.246 N 
ATOM      4  N   UNL     1      34.274 -12.270 -23.936  0.00  0.00    -0.319 NA
ATOM      5  C   UNL     1      33.320 -11.527 -23.423  0.00  0.00    +0.216 C 
ATOM      6  C   UNL     1      33.939 -13.519 -23.501  0.00  0.00    +0.165 C 
ATOM      7  H   UNL     1      35.453 -14.321 -24.481  0.00  0.00    +0.165 HD
ENDROOT
BRANCH   3  12
ATOM      8  F   UNL     1      36.290 -20.238 -20.691  0.00  0.00    -0.125 F 
ATOM      9  F   UNL     1      34.182 -20.081 -20.126  0.00  0.00    -0.125 F 
ATOM     10  O   UNL     1      35.316 -18.191 -20.661  0.00  0.00    -0.395 OA
ATOM     11  O   UNL     1      34.748 -19.861 -22.310  0.00  0.00    -0.395 OA
ATOM     12  C   UNL     1      34.729 -15.938 -23.487  0.00  0.00    +0.061 C 
ATOM     13  C   UNL     1      35.032 -17.645 -21.877  0.00  0.00    +0.183 C 
ATOM     14  C   UNL     1      35.051 -16.299 -22.183  0.00  0.00    +0.056 C 
ATOM     15  C   UNL     1      34.707 -18.598 -22.817  0.00  0.00    +0.182 C 
ATOM     16  C   UNL     1      34.398 -16.900 -24.451  0.00  0.00    +0.019 C 
ATOM     17  C   UNL     1      34.385 -18.256 -24.114  0.00  0.00    +0.042 C 
ATOM     18  C   UNL     1      35.132 -19.583 -20.957  0.00  0.00    +0.589 C 
ENDBRANCH   3  12
BRANCH   5  20
ATOM     19  N   UNL     1      32.887  -7.336 -23.866  0.00  0.00    -0.242 NA
ATOM     20  C   UNL     1      33.173 -10.100 -23.572  0.00  0.00    +0.050 C 
ATOM     21  C   UNL     1      34.145  -9.241 -23.071  0.00  0.00    +0.025 C 
ATOM     22  C   UNL     1      32.058  -9.579 -24.219  0.00  0.00    +0.025 C 
ATOM     23  C   UNL     1      33.957  -7.879 -23.243  0.00  0.00    +0.099 C 
ATOM     24  C   UNL     1      31.964  -8.202 -24.339  0.00  0.00    +0.099 C 
ENDBRANCH   5  20
BRANCH   1  25
ATOM     25  C   UNL     1      31.272 -11.922 -21.998  0.00  0.00    +0.129 C 
BRANCH  25  26
ATOM     26  C   UNL     1      31.573 -11.544 -20.548  0.00  0.00    +0.109 C 
BRANCH  26  29
ATOM     27  O   UNL     1      31.246  -9.274 -21.244  0.00  0.00    -0.275 OA
ATOM     28  N   UNL     1      31.664  -9.617 -18.989  0.00  0.00    -0.276 N 
ATOM     29  C   UNL     1      31.477 -10.043 -20.308  0.00  0.00    +0.228 C 
ATOM     30  C   UNL     1      31.937 -10.547 -17.895  0.00  0.00    +0.115 C 
ATOM     31  C   UNL     1      31.603  -8.212 -18.606  0.00  0.00    +0.115 C 
ENDBRANCH  26  29
ENDBRANCH  25  26
ENDBRANCH   1  25
TORSDOF 5
ENDMDL
MODEL 9
REMARK VINA RESULT:      -9.1     10.595     14.736
REMARK  Name = 16755766
REMARK  5 active torsions:
REMARK  status: ('A' for Active; 'I' for Inactive)
REMARK    1  A    between atoms: N_1  and  C_25
REMARK    2  A    between atoms: N_3  and  C_12
REMARK    3  A    between atoms: C_5  and  C_20
REMARK    4  A    between atoms: C_25  and  C_26
REMARK    5  A    between atoms: C_26  and  C_29
REMARK                            x       y       z     vdW  Elec       q    Type
REMARK                         _______ _______ _______ _____ _____    ______ ____
ROOT
ATOM      1  N   UNL     1      32.185 -10.764 -22.349  0.00  0.00    -0.174 N 
ATOM      2  N   UNL     1      32.625 -12.005 -22.134  0.00  0.00    -0.096 NA
ATOM      3  N   UNL     1      34.563 -13.058 -23.073  0.00  0.00    -0.246 N 
ATOM      4  N   UNL     1      33.962 -10.856 -23.591  0.00  0.00    -0.319 NA
ATOM      5  C   UNL     1      32.972 -10.083 -23.209  0.00  0.00    +0.216 C 
ATOM      6  C   UNL     1      33.710 -12.013 -22.912  0.00  0.00    +0.165 C 
ATOM      7  H   UNL     1      35.256 -12.904 -23.754  0.00  0.00    +0.165 HD
ENDROOT
BRANCH   3  12
ATOM      8  F   UNL     1      34.226 -19.672 -22.198  0.00  0.00    -0.125 F 
ATOM      9  F   UNL     1      36.370 -19.378 -21.880  0.00  0.00    -0.125 F 
ATOM     10  O   UNL     1      35.236 -17.877 -23.147  0.00  0.00    -0.395 OA
ATOM     11  O   UNL     1      34.908 -18.056 -20.761  0.00  0.00    -0.395 OA
ATOM     12  C   UNL     1      34.645 -14.333 -22.446  0.00  0.00    +0.061 C 
ATOM     13  C   UNL     1      34.984 -16.671 -22.565  0.00  0.00    +0.183 C 
ATOM     14  C   UNL     1      34.915 -15.457 -23.219  0.00  0.00    +0.056 C 
ATOM     15  C   UNL     1      34.797 -16.774 -21.204  0.00  0.00    +0.182 C 
ATOM     16  C   UNL     1      34.453 -14.427 -21.061  0.00  0.00    +0.019 C 
ATOM     17  C   UNL     1      34.530 -15.668 -20.424  0.00  0.00    +0.042 C 
ATOM     18  C   UNL     1      35.183 -18.732 -21.996  0.00  0.00    +0.589 C 
ENDBRANCH   3  12
BRANCH   5  20
ATOM     19  N   UNL     1      32.278  -6.088 -24.441  0.00  0.00    -0.242 NA
ATOM     20  C   UNL     1      32.735  -8.723 -23.630  0.00  0.00    +0.050 C 
ATOM     21  C   UNL     1      31.616  -8.413 -24.395  0.00  0.00    +0.025 C 
ATOM     22  C   UNL     1      33.626  -7.718 -23.271  0.00  0.00    +0.025 C 
ATOM     23  C   UNL     1      31.434  -7.092 -24.771  0.00  0.00    +0.099 C 
ATOM     24  C   UNL     1      33.354  -6.428 -23.698  0.00  0.00    +0.099 C 
ENDBRANCH   5  20
BRANCH   1  25
ATOM     25  C   UNL     1      30.970 -10.307 -21.684  0.00  0.00    +0.129 C 
BRANCH  25  26
ATOM     26  C   UNL     1      31.084 -10.384 -20.162  0.00  0.00    +0.109 C 
BRANCH  26  29
ATOM     27  O   UNL     1      33.049  -9.917 -18.871  0.00  0.00    -0.275 OA
ATOM     28  N   UNL     1      32.099  -8.127 -20.000  0.00  0.00    -0.276 N 
ATOM     29  C   UNL     1      32.170  -9.469 -19.613  0.00  0.00    +0.228 C 
ATOM     30  C   UNL     1      31.049  -7.618 -20.879  0.00  0.00    +0.115 C 
ATOM     31  C   UNL     1      33.068  -7.133 -19.553  0.00  0.00    +0.115 C 
ENDBRANCH  26  29
ENDBRANCH  25  26
ENDBRANCH   1  25
TORSDOF 5
ENDMDL
