MODEL 1
REMARK VINA RESULT:     -12.1      0.000      0.000
REMARK  Name = 21302490
REMARK  5 active torsions:
REMARK  status: ('A' for Active; 'I' for Inactive)
REMARK    1  A    between atoms: N_2  and  C_19
REMARK    2  A    between atoms: C_19  and  C_20
REMARK    3  A    between atoms: C_20  and  C_21
REMARK    4  A    between atoms: C_21  and  C_23
REMARK    5  A    between atoms: C_23  and  C_25
REMARK                            x       y       z     vdW  Elec       q    Type
REMARK                         _______ _______ _______ _____ _____    ______ ____
ROOT
ATOM      1  N   UNL     1      32.552 -10.990 -22.454  0.00  0.00    -0.307 N 
ATOM      2  N   UNL     1      33.499 -14.556 -21.453  0.00  0.00    +0.387 N 
ATOM      3  N   UNL     1      32.696  -8.190 -21.891  0.00  0.00    -0.303 N 
ATOM      4  C   UNL     1      31.899 -12.305 -22.453  0.00  0.00    +0.073 C 
ATOM      5  C   UNL     1      31.860 -12.750 -20.954  0.00  0.00    +0.021 C 
ATOM      6  C   UNL     1      32.583 -13.317 -23.366  0.00  0.00    -0.003 C 
ATOM      7  C   UNL     1      33.113 -13.514 -20.497  0.00  0.00    -0.071 C 
ATOM      8  C   UNL     1      31.805 -11.406 -20.286  0.00  0.00    -0.008 C 
ATOM      9  C   UNL     1      32.230 -10.437 -21.199  0.00  0.00    +0.057 C 
ATOM     10  C   UNL     1      33.827 -13.950 -22.750  0.00  0.00    -0.076 C 
ATOM     11  C   UNL     1      32.514 -10.041 -23.548  0.00  0.00    +0.112 C 
ATOM     12  C   UNL     1      32.309  -9.079 -20.896  0.00  0.00    +0.061 C 
ATOM     13  C   UNL     1      33.249  -8.756 -23.131  0.00  0.00    +0.112 C 
ATOM     14  C   UNL     1      31.452 -11.055 -19.000  0.00  0.00    -0.003 C 
ATOM     15  C   UNL     1      31.939  -8.730 -19.590  0.00  0.00    +0.016 C 
ATOM     16  C   UNL     1      31.520  -9.703 -18.657  0.00  0.00    +0.001 C 
ATOM     17  C   UNL     1      32.921  -6.786 -21.600  0.00  0.00    +0.112 C 
ATOM     18  H   UNL     1      32.716 -15.198 -21.577  0.00  0.00    -0.080 HD
ENDROOT
BRANCH   2  19
ATOM     19  C   UNL     1      34.644 -15.314 -20.944  0.00  0.00    -0.077 C 
BRANCH  19  20
ATOM     20  C   UNL     1      34.956 -16.489 -21.872  0.00  0.00    -0.015 C 
BRANCH  20  21
ATOM     21  C   UNL     1      35.481 -17.709 -21.110  0.00  0.00    +0.067 C 
BRANCH  21  23
ATOM     22  O   UNL     1      34.704 -19.216 -22.827  0.00  0.00    -0.291 OA
ATOM     23  C   UNL     1      34.938 -19.030 -21.636  0.00  0.00    +0.173 C 
BRANCH  23  25
ATOM     24  F   UNL     1      34.054 -23.212 -17.987  0.00  0.00    -0.204 F 
ATOM     25  C   UNL     1      34.703 -20.141 -20.668  0.00  0.00    +0.035 C 
ATOM     26  C   UNL     1      35.786 -20.832 -20.126  0.00  0.00    +0.005 C 
ATOM     27  C   UNL     1      33.402 -20.485 -20.305  0.00  0.00    +0.005 C 
ATOM     28  C   UNL     1      35.567 -21.870 -19.220  0.00  0.00    +0.030 C 
ATOM     29  C   UNL     1      33.182 -21.523 -19.399  0.00  0.00    +0.030 C 
ATOM     30  C   UNL     1      34.264 -22.215 -18.857  0.00  0.00    +0.140 C 
ENDBRANCH  23  25
ENDBRANCH  21  23
ENDBRANCH  20  21
ENDBRANCH  19  20
ENDBRANCH   2  19
TORSDOF 5
ENDMDL
MODEL 2
REMARK VINA RESULT:     -10.8      3.304      6.030
REMARK  Name = 21302490
REMARK  5 active torsions:
REMARK  status: ('A' for Active; 'I' for Inactive)
REMARK    1  A    between atoms: N_2  and  C_19
REMARK    2  A    between atoms: C_19  and  C_20
REMARK    3  A    between atoms: C_20  and  C_21
REMARK    4  A    between atoms: C_21  and  C_23
REMARK    5  A    between atoms: C_23  and  C_25
REMARK                            x       y       z     vdW  Elec       q    Type
REMARK                         _______ _______ _______ _____ _____    ______ ____
ROOT
ATOM      1  N   UNL     1      32.332  -5.938 -22.609  0.00  0.00    -0.307 N 
ATOM      2  N   UNL     1      32.585  -9.685 -21.890  0.00  0.00    +0.387 N 
ATOM      3  N   UNL     1      32.276  -3.835 -24.545  0.00  0.00    -0.303 N 
ATOM      4  C   UNL     1      32.979  -6.788 -21.601  0.00  0.00    +0.073 C 
ATOM      5  C   UNL     1      33.982  -7.687 -22.395  0.00  0.00    +0.021 C 
ATOM      6  C   UNL     1      31.987  -7.586 -20.762  0.00  0.00    -0.003 C 
ATOM      7  C   UNL     1      33.368  -8.995 -22.920  0.00  0.00    -0.071 C 
ATOM      8  C   UNL     1      34.298  -6.772 -23.543  0.00  0.00    -0.008 C 
ATOM      9  C   UNL     1      33.301  -5.795 -23.621  0.00  0.00    +0.057 C 
ATOM     10  C   UNL     1      31.464  -8.837 -21.461  0.00  0.00    -0.076 C 
ATOM     11  C   UNL     1      31.586  -4.729 -22.326  0.00  0.00    +0.112 C 
ATOM     12  C   UNL     1      33.286  -4.789 -24.585  0.00  0.00    +0.061 C 
ATOM     13  C   UNL     1      31.137  -4.087 -23.649  0.00  0.00    +0.112 C 
ATOM     14  C   UNL     1      35.331  -6.796 -24.456  0.00  0.00    -0.003 C 
ATOM     15  C   UNL     1      34.345  -4.816 -25.503  0.00  0.00    +0.016 C 
ATOM     16  C   UNL     1      35.349  -5.806 -25.440  0.00  0.00    +0.001 C 
ATOM     17  C   UNL     1      32.134  -2.845 -25.597  0.00  0.00    +0.112 C 
ATOM     18  H   UNL     1      33.185  -9.870 -21.086  0.00  0.00    -0.080 HD
ENDROOT
BRANCH   2  19
ATOM     19  C   UNL     1      32.087 -10.963 -22.401  0.00  0.00    -0.077 C 
BRANCH  19  20
ATOM     20  C   UNL     1      33.073 -11.548 -23.415  0.00  0.00    -0.015 C 
BRANCH  20  21
ATOM     21  C   UNL     1      33.626 -12.906 -22.971  0.00  0.00    +0.067 C 
BRANCH  21  23
ATOM     22  O   UNL     1      33.323 -13.671 -25.240  0.00  0.00    -0.291 OA
ATOM     23  C   UNL     1      33.658 -13.938 -24.089  0.00  0.00    +0.173 C 
BRANCH  23  25
ATOM     24  F   UNL     1      35.466 -19.126 -22.905  0.00  0.00    -0.204 F 
ATOM     25  C   UNL     1      34.137 -15.316 -23.774  0.00  0.00    +0.035 C 
ATOM     26  C   UNL     1      33.980 -16.339 -24.709  0.00  0.00    +0.005 C 
ATOM     27  C   UNL     1      34.744 -15.579 -22.547  0.00  0.00    +0.005 C 
ATOM     28  C   UNL     1      34.428 -17.627 -24.415  0.00  0.00    +0.030 C 
ATOM     29  C   UNL     1      35.193 -16.867 -22.253  0.00  0.00    +0.030 C 
ATOM     30  C   UNL     1      35.035 -17.890 -23.187  0.00  0.00    +0.140 C 
ENDBRANCH  23  25
ENDBRANCH  21  23
ENDBRANCH  20  21
ENDBRANCH  19  20
ENDBRANCH   2  19
TORSDOF 5
ENDMDL
MODEL 3
REMARK VINA RESULT:     -10.0      8.091     13.221
REMARK  Name = 21302490
REMARK  5 active torsions:
REMARK  status: ('A' for Active; 'I' for Inactive)
REMARK    1  A    between atoms: N_2  and  C_19
REMARK    2  A    between atoms: C_19  and  C_20
REMARK    3  A    between atoms: C_20  and  C_21
REMARK    4  A    between atoms: C_21  and  C_23
REMARK    5  A    between atoms: C_23  and  C_25
REMARK                            x       y       z     vdW  Elec       q    Type
REMARK                         _______ _______ _______ _____ _____    ______ ____
ROOT
ATOM      1  N   UNL     1      35.076 -24.199 -12.727  0.00  0.00    -0.307 N 
ATOM      2  N   UNL     1      32.665 -23.895 -15.678  0.00  0.00    +0.387 N 
ATOM      3  N   UNL     1      37.773 -24.143 -11.779  0.00  0.00    -0.303 N 
ATOM      4  C   UNL     1      33.847 -24.868 -13.171  0.00  0.00    +0.073 C 
ATOM      5  C   UNL     1      34.195 -25.505 -14.556  0.00  0.00    +0.021 C 
ATOM      6  C   UNL     1      32.641 -23.936 -13.222  0.00  0.00    -0.003 C 
ATOM      7  C   UNL     1      33.966 -24.567 -15.751  0.00  0.00    -0.071 C 
ATOM      8  C   UNL     1      35.666 -25.747 -14.367  0.00  0.00    -0.008 C 
ATOM      9  C   UNL     1      36.115 -24.953 -13.308  0.00  0.00    +0.057 C 
ATOM     10  C   UNL     1      32.599 -23.060 -14.471  0.00  0.00    -0.076 C 
ATOM     11  C   UNL     1      35.347 -23.763 -11.372  0.00  0.00    +0.112 C 
ATOM     12  C   UNL     1      37.439 -24.930 -12.875  0.00  0.00    +0.061 C 
ATOM     13  C   UNL     1      36.768 -23.182 -11.299  0.00  0.00    +0.112 C 
ATOM     14  C   UNL     1      36.542 -26.552 -15.064  0.00  0.00    -0.003 C 
ATOM     15  C   UNL     1      38.321 -25.758 -13.582  0.00  0.00    +0.016 C 
ATOM     16  C   UNL     1      37.879 -26.553 -14.662  0.00  0.00    +0.001 C 
ATOM     17  C   UNL     1      39.155 -23.977 -11.365  0.00  0.00    +0.112 C 
ATOM     18  H   UNL     1      31.930 -24.601 -15.632  0.00  0.00    -0.080 HD
ENDROOT
BRANCH   2  19
ATOM     19  C   UNL     1      32.449 -23.076 -16.872  0.00  0.00    -0.077 C 
BRANCH  19  20
ATOM     20  C   UNL     1      33.772 -22.852 -17.607  0.00  0.00    -0.015 C 
BRANCH  20  21
ATOM     21  C   UNL     1      33.586 -22.761 -19.125  0.00  0.00    +0.067 C 
BRANCH  21  23
ATOM     22  O   UNL     1      32.351 -20.742 -19.595  0.00  0.00    -0.291 OA
ATOM     23  C   UNL     1      33.426 -21.334 -19.629  0.00  0.00    +0.173 C 
BRANCH  23  25
ATOM     24  F   UNL     1      37.953 -18.673 -21.634  0.00  0.00    -0.204 F 
ATOM     25  C   UNL     1      34.628 -20.627 -20.160  0.00  0.00    +0.035 C 
ATOM     26  C   UNL     1      35.891 -20.915 -19.644  0.00  0.00    +0.005 C 
ATOM     27  C   UNL     1      34.488 -19.680 -21.174  0.00  0.00    +0.005 C 
ATOM     28  C   UNL     1      37.015 -20.254 -20.142  0.00  0.00    +0.030 C 
ATOM     29  C   UNL     1      35.611 -19.019 -21.672  0.00  0.00    +0.030 C 
ATOM     30  C   UNL     1      36.874 -19.307 -21.156  0.00  0.00    +0.140 C 
ENDBRANCH  23  25
ENDBRANCH  21  23
ENDBRANCH  20  21
ENDBRANCH  19  20
ENDBRANCH   2  19
TORSDOF 5
ENDMDL
MODEL 4
REMARK VINA RESULT:      -9.7      7.898     13.100
REMARK  Name = 21302490
REMARK  5 active torsions:
REMARK  status: ('A' for Active; 'I' for Inactive)
REMARK    1  A    between atoms: N_2  and  C_19
REMARK    2  A    between atoms: C_19  and  C_20
REMARK    3  A    between atoms: C_20  and  C_21
REMARK    4  A    between atoms: C_21  and  C_23
REMARK    5  A    between atoms: C_23  and  C_25
REMARK                            x       y       z     vdW  Elec       q    Type
REMARK                         _______ _______ _______ _____ _____    ______ ____
ROOT
ATOM      1  N   UNL     1      37.889 -23.930 -14.986  0.00  0.00    -0.307 N 
ATOM      2  N   UNL     1      34.329 -23.073 -16.084  0.00  0.00    +0.387 N 
ATOM      3  N   UNL     1      39.717 -25.888 -13.987  0.00  0.00    -0.303 N 
ATOM      4  C   UNL     1      36.981 -22.783 -14.855  0.00  0.00    +0.073 C 
ATOM      5  C   UNL     1      35.748 -23.317 -14.054  0.00  0.00    +0.021 C 
ATOM      6  C   UNL     1      36.606 -22.158 -16.194  0.00  0.00    -0.003 C 
ATOM      7  C   UNL     1      34.647 -23.927 -14.936  0.00  0.00    -0.071 C 
ATOM      8  C   UNL     1      36.412 -24.393 -13.243  0.00  0.00    -0.008 C 
ATOM      9  C   UNL     1      37.634 -24.711 -13.841  0.00  0.00    +0.057 C 
ATOM     10  C   UNL     1      35.514 -22.920 -16.939  0.00  0.00    -0.076 C 
ATOM     11  C   UNL     1      39.289 -23.848 -15.348  0.00  0.00    +0.112 C 
ATOM     12  C   UNL     1      38.501 -25.683 -13.346  0.00  0.00    +0.061 C 
ATOM     13  C   UNL     1      39.910 -25.254 -15.300  0.00  0.00    +0.112 C 
ATOM     14  C   UNL     1      35.987 -25.059 -12.113  0.00  0.00    -0.003 C 
ATOM     15  C   UNL     1      38.066 -26.348 -12.191  0.00  0.00    +0.016 C 
ATOM     16  C   UNL     1      36.827 -26.042 -11.587  0.00  0.00    +0.001 C 
ATOM     17  C   UNL     1      40.600 -26.972 -13.596  0.00  0.00    +0.112 C 
ATOM     18  H   UNL     1      34.046 -22.153 -15.745  0.00  0.00    -0.080 HD
ENDROOT
BRANCH   2  19
ATOM     19  C   UNL     1      33.221 -23.645 -16.851  0.00  0.00    -0.077 C 
BRANCH  19  20
ATOM     20  C   UNL     1      32.656 -22.605 -17.821  0.00  0.00    -0.015 C 
BRANCH  20  21
ATOM     21  C   UNL     1      33.472 -22.509 -19.113  0.00  0.00    +0.067 C 
BRANCH  21  23
ATOM     22  O   UNL     1      32.281 -20.584 -19.949  0.00  0.00    -0.291 OA
ATOM     23  C   UNL     1      33.358 -21.157 -19.801  0.00  0.00    +0.173 C 
BRANCH  23  25
ATOM     24  F   UNL     1      38.050 -18.676 -21.648  0.00  0.00    -0.204 F 
ATOM     25  C   UNL     1      34.603 -20.497 -20.290  0.00  0.00    +0.035 C 
ATOM     26  C   UNL     1      35.839 -20.856 -19.753  0.00  0.00    +0.005 C 
ATOM     27  C   UNL     1      34.532 -19.524 -21.286  0.00  0.00    +0.005 C 
ATOM     28  C   UNL     1      37.004 -20.241 -20.211  0.00  0.00    +0.030 C 
ATOM     29  C   UNL     1      35.696 -18.908 -21.745  0.00  0.00    +0.030 C 
ATOM     30  C   UNL     1      36.932 -19.267 -21.208  0.00  0.00    +0.140 C 
ENDBRANCH  23  25
ENDBRANCH  21  23
ENDBRANCH  20  21
ENDBRANCH  19  20
ENDBRANCH   2  19
TORSDOF 5
ENDMDL
MODEL 5
REMARK VINA RESULT:      -9.7      5.212     10.383
REMARK  Name = 21302490
REMARK  5 active torsions:
REMARK  status: ('A' for Active; 'I' for Inactive)
REMARK    1  A    between atoms: N_2  and  C_19
REMARK    2  A    between atoms: C_19  and  C_20
REMARK    3  A    between atoms: C_20  and  C_21
REMARK    4  A    between atoms: C_21  and  C_23
REMARK    5  A    between atoms: C_23  and  C_25
REMARK                            x       y       z     vdW  Elec       q    Type
REMARK                         _______ _______ _______ _____ _____    ______ ____
ROOT
ATOM      1  N   UNL     1      32.405 -12.830 -20.834  0.00  0.00    -0.307 N 
ATOM      2  N   UNL     1      31.976  -9.031 -20.884  0.00  0.00    +0.387 N 
ATOM      3  N   UNL     1      34.029 -15.099 -21.461  0.00  0.00    -0.303 N 
ATOM      4  C   UNL     1      31.307 -11.886 -21.074  0.00  0.00    +0.073 C 
ATOM      5  C   UNL     1      31.742 -11.050 -22.322  0.00  0.00    +0.021 C 
ATOM      6  C   UNL     1      30.976 -11.027 -19.859  0.00  0.00    -0.003 C 
ATOM      7  C   UNL     1      32.571  -9.802 -21.981  0.00  0.00    -0.071 C 
ATOM      8  C   UNL     1      32.602 -12.061 -23.025  0.00  0.00    -0.008 C 
ATOM      9  C   UNL     1      32.963 -13.052 -22.109  0.00  0.00    +0.057 C 
ATOM     10  C   UNL     1      31.927  -9.850 -19.665  0.00  0.00    -0.076 C 
ATOM     11  C   UNL     1      32.319 -14.018 -20.009  0.00  0.00    +0.112 C 
ATOM     12  C   UNL     1      33.770 -14.141 -22.433  0.00  0.00    +0.061 C 
ATOM     13  C   UNL     1      33.652 -14.781 -20.074  0.00  0.00    +0.112 C 
ATOM     14  C   UNL     1      33.057 -12.106 -24.326  0.00  0.00    -0.003 C 
ATOM     15  C   UNL     1      34.220 -14.184 -23.759  0.00  0.00    +0.016 C 
ATOM     16  C   UNL     1      33.872 -13.180 -24.689  0.00  0.00    +0.001 C 
ATOM     17  C   UNL     1      34.966 -16.182 -21.701  0.00  0.00    +0.112 C 
ATOM     18  H   UNL     1      31.025  -8.768 -21.143  0.00  0.00    -0.080 HD
ENDROOT
BRANCH   2  19
ATOM     19  C   UNL     1      32.746  -7.810 -20.645  0.00  0.00    -0.077 C 
BRANCH  19  20
ATOM     20  C   UNL     1      31.832  -6.585 -20.712  0.00  0.00    -0.015 C 
BRANCH  20  21
ATOM     21  C   UNL     1      32.472  -5.423 -21.477  0.00  0.00    +0.067 C 
BRANCH  21  23
ATOM     22  O   UNL     1      30.958  -4.952 -23.297  0.00  0.00    -0.291 OA
ATOM     23  C   UNL     1      32.059  -5.364 -22.941  0.00  0.00    +0.173 C 
BRANCH  23  25
ATOM     24  F   UNL     1      35.750  -7.020 -26.843  0.00  0.00    -0.204 F 
ATOM     25  C   UNL     1      33.039  -5.803 -23.977  0.00  0.00    +0.035 C 
ATOM     26  C   UNL     1      34.280  -6.310 -23.592  0.00  0.00    +0.005 C 
ATOM     27  C   UNL     1      32.714  -5.707 -25.329  0.00  0.00    +0.005 C 
ATOM     28  C   UNL     1      35.196  -6.722 -24.560  0.00  0.00    +0.030 C 
ATOM     29  C   UNL     1      33.629  -6.118 -26.298  0.00  0.00    +0.030 C 
ATOM     30  C   UNL     1      34.870  -6.626 -25.913  0.00  0.00    +0.140 C 
ENDBRANCH  23  25
ENDBRANCH  21  23
ENDBRANCH  20  21
ENDBRANCH  19  20
ENDBRANCH   2  19
TORSDOF 5
ENDMDL
MODEL 6
REMARK VINA RESULT:      -9.6      5.075     11.157
REMARK  Name = 21302490
REMARK  5 active torsions:
REMARK  status: ('A' for Active; 'I' for Inactive)
REMARK    1  A    between atoms: N_2  and  C_19
REMARK    2  A    between atoms: C_19  and  C_20
REMARK    3  A    between atoms: C_20  and  C_21
REMARK    4  A    between atoms: C_21  and  C_23
REMARK    5  A    between atoms: C_23  and  C_25
REMARK                            x       y       z     vdW  Elec       q    Type
REMARK                         _______ _______ _______ _____ _____    ______ ____
ROOT
ATOM      1  N   UNL     1      33.702 -22.879 -17.484  0.00  0.00    -0.307 N 
ATOM      2  N   UNL     1      34.796 -20.619 -20.367  0.00  0.00    +0.387 N 
ATOM      3  N   UNL     1      33.639 -23.362 -14.666  0.00  0.00    -0.303 N 
ATOM      4  C   UNL     1      34.224 -23.065 -18.844  0.00  0.00    +0.073 C 
ATOM      5  C   UNL     1      35.638 -22.398 -18.843  0.00  0.00    +0.021 C 
ATOM      6  C   UNL     1      33.298 -22.515 -19.923  0.00  0.00    -0.003 C 
ATOM      7  C   UNL     1      35.623 -20.901 -19.190  0.00  0.00    -0.071 C 
ATOM      8  C   UNL     1      36.013 -22.587 -17.401  0.00  0.00    -0.008 C 
ATOM      9  C   UNL     1      34.851 -22.846 -16.669  0.00  0.00    +0.057 C 
ATOM     10  C   UNL     1      33.402 -21.004 -20.104  0.00  0.00    -0.076 C 
ATOM     11  C   UNL     1      32.589 -23.607 -16.910  0.00  0.00    +0.112 C 
ATOM     12  C   UNL     1      34.842 -23.062 -15.292  0.00  0.00    +0.061 C 
ATOM     13  C   UNL     1      32.404 -23.182 -15.444  0.00  0.00    +0.112 C 
ATOM     14  C   UNL     1      37.238 -22.511 -16.772  0.00  0.00    -0.003 C 
ATOM     15  C   UNL     1      36.093 -22.992 -14.663  0.00  0.00    +0.016 C 
ATOM     16  C   UNL     1      37.271 -22.718 -15.391  0.00  0.00    +0.001 C 
ATOM     17  C   UNL     1      33.547 -23.466 -13.221  0.00  0.00    +0.112 C 
ATOM     18  H   UNL     1      35.146 -21.165 -21.155  0.00  0.00    -0.080 HD
ENDROOT
BRANCH   2  19
ATOM     19  C   UNL     1      34.873 -19.200 -20.715  0.00  0.00    -0.077 C 
BRANCH  19  20
ATOM     20  C   UNL     1      34.664 -19.011 -22.219  0.00  0.00    -0.015 C 
BRANCH  20  21
ATOM     21  C   UNL     1      35.320 -17.729 -22.741  0.00  0.00    +0.067 C 
BRANCH  21  23
ATOM     22  O   UNL     1      34.277 -17.791 -24.916  0.00  0.00    -0.291 OA
ATOM     23  C   UNL     1      34.596 -17.124 -23.935  0.00  0.00    +0.173 C 
BRANCH  23  25
ATOM     24  F   UNL     1      33.275 -11.663 -23.795  0.00  0.00    -0.204 F 
ATOM     25  C   UNL     1      34.244 -15.675 -23.897  0.00  0.00    +0.035 C 
ATOM     26  C   UNL     1      34.559 -14.910 -22.774  0.00  0.00    +0.005 C 
ATOM     27  C   UNL     1      33.603 -15.084 -24.986  0.00  0.00    +0.005 C 
ATOM     28  C   UNL     1      34.231 -13.555 -22.739  0.00  0.00    +0.030 C 
ATOM     29  C   UNL     1      33.275 -13.729 -24.952  0.00  0.00    +0.030 C 
ATOM     30  C   UNL     1      33.590 -12.964 -23.829  0.00  0.00    +0.140 C 
ENDBRANCH  23  25
ENDBRANCH  21  23
ENDBRANCH  20  21
ENDBRANCH  19  20
ENDBRANCH   2  19
TORSDOF 5
ENDMDL
MODEL 7
REMARK VINA RESULT:      -9.6      4.680      9.419
REMARK  Name = 21302490
REMARK  5 active torsions:
REMARK  status: ('A' for Active; 'I' for Inactive)
REMARK    1  A    between atoms: N_2  and  C_19
REMARK    2  A    between atoms: C_19  and  C_20
REMARK    3  A    between atoms: C_20  and  C_21
REMARK    4  A    between atoms: C_21  and  C_23
REMARK    5  A    between atoms: C_23  and  C_25
REMARK                            x       y       z     vdW  Elec       q    Type
REMARK                         _______ _______ _______ _____ _____    ______ ____
ROOT
ATOM      1  N   UNL     1      33.723 -14.194 -23.561  0.00  0.00    -0.307 N 
ATOM      2  N   UNL     1      32.061 -11.727 -21.160  0.00  0.00    +0.387 N 
ATOM      3  N   UNL     1      34.175 -16.914 -24.319  0.00  0.00    -0.303 N 
ATOM      4  C   UNL     1      34.086 -12.925 -22.918  0.00  0.00    +0.073 C 
ATOM      5  C   UNL     1      34.047 -13.210 -21.381  0.00  0.00    +0.021 C 
ATOM      6  C   UNL     1      33.195 -11.762 -23.339  0.00  0.00    -0.003 C 
ATOM      7  C   UNL     1      32.667 -12.994 -20.740  0.00  0.00    -0.071 C 
ATOM      8  C   UNL     1      34.390 -14.673 -21.379  0.00  0.00    -0.008 C 
ATOM      9  C   UNL     1      34.167 -15.184 -22.661  0.00  0.00    +0.057 C 
ATOM     10  C   UNL     1      31.853 -11.729 -22.614  0.00  0.00    -0.076 C 
ATOM     11  C   UNL     1      33.946 -14.518 -24.955  0.00  0.00    +0.112 C 
ATOM     12  C   UNL     1      34.378 -16.518 -23.003  0.00  0.00    +0.061 C 
ATOM     13  C   UNL     1      33.501 -15.965 -25.220  0.00  0.00    +0.112 C 
ATOM     14  C   UNL     1      34.824 -15.494 -20.361  0.00  0.00    -0.003 C 
ATOM     15  C   UNL     1      34.828 -17.343 -21.964  0.00  0.00    +0.016 C 
ATOM     16  C   UNL     1      35.044 -16.840 -20.663  0.00  0.00    +0.001 C 
ATOM     17  C   UNL     1      34.252 -18.311 -24.705  0.00  0.00    +0.112 C 
ATOM     18  H   UNL     1      32.691 -10.962 -20.917  0.00  0.00    -0.080 HD
ENDROOT
BRANCH   2  19
ATOM     19  C   UNL     1      30.789 -11.518 -20.466  0.00  0.00    -0.077 C 
BRANCH  19  20
ATOM     20  C   UNL     1      30.881 -10.296 -19.550  0.00  0.00    -0.015 C 
BRANCH  20  21
ATOM     21  C   UNL     1      32.315  -9.775 -19.417  0.00  0.00    +0.067 C 
BRANCH  21  23
ATOM     22  O   UNL     1      32.633  -7.392 -19.207  0.00  0.00    -0.291 OA
ATOM     23  C   UNL     1      32.495  -8.360 -19.950  0.00  0.00    +0.173 C 
BRANCH  23  25
ATOM     24  F   UNL     1      32.617  -7.575 -25.513  0.00  0.00    -0.204 F 
ATOM     25  C   UNL     1      32.527  -8.153 -21.427  0.00  0.00    +0.035 C 
ATOM     26  C   UNL     1      31.335  -8.060 -22.143  0.00  0.00    +0.005 C 
ATOM     27  C   UNL     1      33.750  -8.051 -22.090  0.00  0.00    +0.005 C 
ATOM     28  C   UNL     1      31.365  -7.864 -23.525  0.00  0.00    +0.030 C 
ATOM     29  C   UNL     1      33.781  -7.856 -23.470  0.00  0.00    +0.030 C 
ATOM     30  C   UNL     1      32.588  -7.762 -24.187  0.00  0.00    +0.140 C 
ENDBRANCH  23  25
ENDBRANCH  21  23
ENDBRANCH  20  21
ENDBRANCH  19  20
ENDBRANCH   2  19
TORSDOF 5
ENDMDL
MODEL 8
REMARK VINA RESULT:      -9.5      4.200      9.483
REMARK  Name = 21302490
REMARK  5 active torsions:
REMARK  status: ('A' for Active; 'I' for Inactive)
REMARK    1  A    between atoms: N_2  and  C_19
REMARK    2  A    between atoms: C_19  and  C_20
REMARK    3  A    between atoms: C_20  and  C_21
REMARK    4  A    between atoms: C_21  and  C_23
REMARK    5  A    between atoms: C_23  and  C_25
REMARK                            x       y       z     vdW  Elec       q    Type
REMARK                         _______ _______ _______ _____ _____    ______ ____
ROOT
ATOM      1  N   UNL     1      34.074 -15.884 -23.636  0.00  0.00    -0.307 N 
ATOM      2  N   UNL     1      32.987 -13.199 -21.142  0.00  0.00    +0.387 N 
ATOM      3  N   UNL     1      34.199 -18.659 -24.316  0.00  0.00    -0.303 N 
ATOM      4  C   UNL     1      34.626 -14.626 -23.119  0.00  0.00    +0.073 C 
ATOM      5  C   UNL     1      34.799 -14.848 -21.580  0.00  0.00    +0.021 C 
ATOM      6  C   UNL     1      33.772 -13.410 -23.460  0.00  0.00    -0.003 C 
ATOM      7  C   UNL     1      33.553 -14.494 -20.754  0.00  0.00    -0.071 C 
ATOM      8  C   UNL     1      35.027 -16.333 -21.557  0.00  0.00    -0.008 C 
ATOM      9  C   UNL     1      34.574 -16.872 -22.764  0.00  0.00    +0.057 C 
ATOM     10  C   UNL     1      32.561 -13.239 -22.548  0.00  0.00    -0.076 C 
ATOM     11  C   UNL     1      34.058 -16.278 -25.030  0.00  0.00    +0.112 C 
ATOM     12  C   UNL     1      34.629 -18.231 -23.067  0.00  0.00    +0.061 C 
ATOM     13  C   UNL     1      33.470 -17.693 -25.153  0.00  0.00    +0.112 C 
ATOM     14  C   UNL     1      35.547 -17.148 -20.574  0.00  0.00    -0.003 C 
ATOM     15  C   UNL     1      35.168 -19.050 -22.066  0.00  0.00    +0.016 C 
ATOM     16  C   UNL     1      35.616 -18.517 -20.838  0.00  0.00    +0.001 C 
ATOM     17  C   UNL     1      34.110 -20.072 -24.639  0.00  0.00    +0.112 C 
ATOM     18  H   UNL     1      33.703 -12.479 -21.034  0.00  0.00    -0.080 HD
ENDROOT
BRANCH   2  19
ATOM     19  C   UNL     1      31.855 -12.859 -20.278  0.00  0.00    -0.077 C 
BRANCH  19  20
ATOM     20  C   UNL     1      32.115 -11.533 -19.561  0.00  0.00    -0.015 C 
BRANCH  20  21
ATOM     21  C   UNL     1      31.157 -10.428 -20.016  0.00  0.00    +0.067 C 
BRANCH  21  23
ATOM     22  O   UNL     1      30.467 -10.480 -22.328  0.00  0.00    -0.291 OA
ATOM     23  C   UNL     1      31.282 -10.092 -21.496  0.00  0.00    +0.173 C 
BRANCH  23  25
ATOM     24  F   UNL     1      35.585  -6.889 -23.172  0.00  0.00    -0.204 F 
ATOM     25  C   UNL     1      32.425  -9.243 -21.940  0.00  0.00    +0.035 C 
ATOM     26  C   UNL     1      33.223  -9.651 -23.008  0.00  0.00    +0.005 C 
ATOM     27  C   UNL     1      32.694  -8.039 -21.288  0.00  0.00    +0.005 C 
ATOM     28  C   UNL     1      34.291  -8.856 -23.425  0.00  0.00    +0.030 C 
ATOM     29  C   UNL     1      33.762  -7.244 -21.704  0.00  0.00    +0.030 C 
ATOM     30  C   UNL     1      34.560  -7.652 -22.773  0.00  0.00    +0.140 C 
ENDBRANCH  23  25
ENDBRANCH  21  23
ENDBRANCH  20  21
ENDBRANCH  19  20
ENDBRANCH   2  19
TORSDOF 5
ENDMDL
MODEL 9
REMARK VINA RESULT:      -9.5      5.702     12.309
REMARK  Name = 21302490
REMARK  5 active torsions:
REMARK  status: ('A' for Active; 'I' for Inactive)
REMARK    1  A    between atoms: N_2  and  C_19
REMARK    2  A    between atoms: C_19  and  C_20
REMARK    3  A    between atoms: C_20  and  C_21
REMARK    4  A    between atoms: C_21  and  C_23
REMARK    5  A    between atoms: C_23  and  C_25
REMARK                            x       y       z     vdW  Elec       q    Type
REMARK                         _______ _______ _______ _____ _____    ______ ____
ROOT
ATOM      1  N   UNL     1      36.975 -23.508 -15.467  0.00  0.00    -0.307 N 
ATOM      2  N   UNL     1      35.356 -21.666 -18.400  0.00  0.00    +0.387 N 
ATOM      3  N   UNL     1      37.112 -25.869 -13.860  0.00  0.00    -0.303 N 
ATOM      4  C   UNL     1      36.553 -22.132 -15.759  0.00  0.00    +0.073 C 
ATOM      5  C   UNL     1      35.009 -22.210 -15.996  0.00  0.00    +0.021 C 
ATOM      6  C   UNL     1      37.312 -21.505 -16.923  0.00  0.00    -0.003 C 
ATOM      7  C   UNL     1      34.615 -22.504 -17.452  0.00  0.00    -0.071 C 
ATOM      8  C   UNL     1      34.672 -23.387 -15.125  0.00  0.00    -0.008 C 
ATOM      9  C   UNL     1      35.846 -24.102 -14.869  0.00  0.00    +0.057 C 
ATOM     10  C   UNL     1      36.795 -21.938 -18.292  0.00  0.00    -0.076 C 
ATOM     11  C   UNL     1      38.235 -23.884 -14.859  0.00  0.00    +0.112 C 
ATOM     12  C   UNL     1      35.885 -25.261 -14.097  0.00  0.00    +0.061 C 
ATOM     13  C   UNL     1      38.264 -25.406 -14.649  0.00  0.00    +0.112 C 
ATOM     14  C   UNL     1      33.462 -23.819 -14.626  0.00  0.00    -0.003 C 
ATOM     15  C   UNL     1      34.652 -25.687 -13.585  0.00  0.00    +0.016 C 
ATOM     16  C   UNL     1      33.460 -24.979 -13.849  0.00  0.00    +0.001 C 
ATOM     17  C   UNL     1      37.200 -27.146 -13.175  0.00  0.00    +0.112 C 
ATOM     18  H   UNL     1      35.187 -20.685 -18.176  0.00  0.00    -0.080 HD
ENDROOT
BRANCH   2  19
ATOM     19  C   UNL     1      34.894 -21.916 -19.767  0.00  0.00    -0.077 C 
BRANCH  19  20
ATOM     20  C   UNL     1      34.180 -20.680 -20.319  0.00  0.00    -0.015 C 
BRANCH  20  21
ATOM     21  C   UNL     1      34.939 -20.043 -21.487  0.00  0.00    +0.067 C 
BRANCH  21  23
ATOM     22  O   UNL     1      36.722 -18.863 -20.369  0.00  0.00    -0.291 OA
ATOM     23  C   UNL     1      35.730 -18.805 -21.090  0.00  0.00    +0.173 C 
BRANCH  23  25
ATOM     24  F   UNL     1      34.086 -13.811 -23.076  0.00  0.00    -0.204 F 
ATOM     25  C   UNL     1      35.292 -17.480 -21.617  0.00  0.00    +0.035 C 
ATOM     26  C   UNL     1      34.956 -16.455 -20.733  0.00  0.00    +0.005 C 
ATOM     27  C   UNL     1      35.222 -17.265 -22.993  0.00  0.00    +0.005 C 
ATOM     28  C   UNL     1      34.549 -15.215 -21.226  0.00  0.00    +0.030 C 
ATOM     29  C   UNL     1      34.814 -16.026 -23.486  0.00  0.00    +0.030 C 
ATOM     30  C   UNL     1      34.478 -15.001 -22.603  0.00  0.00    +0.140 C 
ENDBRANCH  23  25
ENDBRANCH  21  23
ENDBRANCH  20  21
ENDBRANCH  19  20
ENDBRANCH   2  19
TORSDOF 5
ENDMDL
