MODEL 1
REMARK VINA RESULT:     -11.7      0.000      0.000
REMARK  Name = 10361208
REMARK  3 active torsions:
REMARK  status: ('A' for Active; 'I' for Inactive)
REMARK    1  A    between atoms: N_1  and  C_12
REMARK    2  A    between atoms: C_10  and  C_18
REMARK    3  A    between atoms: C_21  and  C_27
REMARK                            x       y       z     vdW  Elec       q    Type
REMARK                         _______ _______ _______ _____ _____    ______ ____
ROOT
ATOM      1  N   UNL     1      34.897 -24.968 -13.704  0.00  0.00    -0.318 N 
ATOM      2  N   UNL     1      33.957 -23.859 -15.483  0.00  0.00    -0.147 NA
ATOM      3  N   UNL     1      32.794 -23.489 -16.077  0.00  0.00    -0.190 N 
ATOM      4  N   UNL     1      30.657 -23.225 -16.502  0.00  0.00    -0.127 NA
ATOM      5  N   UNL     1      31.381 -22.602 -17.498  0.00  0.00    -0.127 NA
ATOM      6  C   UNL     1      33.812 -24.549 -14.375  0.00  0.00    +0.149 C 
ATOM      7  C   UNL     1      32.460 -24.900 -13.813  0.00  0.00    +0.039 C 
ATOM      8  C   UNL     1      31.514 -23.753 -15.654  0.00  0.00    +0.187 A 
ATOM      9  C   UNL     1      31.365 -24.494 -14.467  0.00  0.00    +0.044 C 
ATOM     10  C   UNL     1      32.656 -22.771 -17.228  0.00  0.00    +0.187 A 
ATOM     11  H   UNL     1      34.767 -25.498 -12.884  0.00  0.00    +0.148 HD
ENDROOT
BRANCH   1  12
ATOM     12  C   UNL     1      36.250 -24.674 -14.134  0.00  0.00    +0.070 C 
ATOM     13  C   UNL     1      37.004 -23.930 -13.026  0.00  0.00    +0.020 C 
ATOM     14  C   UNL     1      36.968 -25.967 -14.533  0.00  0.00    +0.020 C 
ATOM     15  C   UNL     1      37.334 -24.826 -11.831  0.00  0.00    +0.002 C 
ATOM     16  C   UNL     1      37.298 -26.855 -13.332  0.00  0.00    +0.002 C 
ATOM     17  C   UNL     1      38.070 -26.091 -12.261  0.00  0.00    +0.000 C 
ENDBRANCH   1  12
BRANCH  10  18
ATOM     18  C   UNL     1      33.764 -22.280 -18.012  0.00  0.00    +0.038 C 
ATOM     19  C   UNL     1      33.530 -21.459 -19.115  0.00  0.00    +0.007 C 
ATOM     20  C   UNL     1      35.069 -22.628 -17.665  0.00  0.00    +0.003 C 
ATOM     21  C   UNL     1      34.602 -20.986 -19.871  0.00  0.00    +0.072 C 
ATOM     22  C   UNL     1      36.142 -22.156 -18.422  0.00  0.00    +0.000 C 
ATOM     23  C   UNL     1      35.907 -21.334 -19.526  0.00  0.00    +0.004 C 
BRANCH  21  27
ATOM     24  F   UNL     1      34.686 -18.800 -20.838  0.00  0.00    -0.166 F 
ATOM     25  F   UNL     1      35.051 -20.476 -22.165  0.00  0.00    -0.166 F 
ATOM     26  F   UNL     1      33.041 -20.094 -21.428  0.00  0.00    -0.166 F 
ATOM     27  C   UNL     1      34.353 -20.107 -21.050  0.00  0.00    +0.419 C 
ENDBRANCH  21  27
ENDBRANCH  10  18
TORSDOF 3
ENDMDL
MODEL 2
REMARK VINA RESULT:     -11.5      3.237      5.222
REMARK  Name = 10361208
REMARK  3 active torsions:
REMARK  status: ('A' for Active; 'I' for Inactive)
REMARK    1  A    between atoms: N_1  and  C_12
REMARK    2  A    between atoms: C_10  and  C_18
REMARK    3  A    between atoms: C_21  and  C_27
REMARK                            x       y       z     vdW  Elec       q    Type
REMARK                         _______ _______ _______ _____ _____    ______ ____
ROOT
ATOM      1  N   UNL     1      36.861 -23.154 -14.261  0.00  0.00    -0.318 N 
ATOM      2  N   UNL     1      34.931 -23.116 -15.507  0.00  0.00    -0.147 NA
ATOM      3  N   UNL     1      34.396 -22.848 -16.724  0.00  0.00    -0.190 N 
ATOM      4  N   UNL     1      34.181 -22.261 -18.828  0.00  0.00    -0.127 NA
ATOM      5  N   UNL     1      32.939 -22.618 -18.345  0.00  0.00    -0.127 NA
ATOM      6  C   UNL     1      36.227 -22.920 -15.421  0.00  0.00    +0.149 C 
ATOM      7  C   UNL     1      37.048 -22.434 -16.585  0.00  0.00    +0.039 C 
ATOM      8  C   UNL     1      35.048 -22.403 -17.848  0.00  0.00    +0.187 A 
ATOM      9  C   UNL     1      36.436 -22.193 -17.750  0.00  0.00    +0.044 C 
ATOM     10  C   UNL     1      33.086 -22.965 -17.086  0.00  0.00    +0.187 A 
ATOM     11  H   UNL     1      37.830 -22.985 -14.212  0.00  0.00    +0.148 HD
ENDROOT
BRANCH   1  12
ATOM     12  C   UNL     1      36.181 -23.644 -13.077  0.00  0.00    +0.070 C 
ATOM     13  C   UNL     1      35.811 -25.120 -13.256  0.00  0.00    +0.020 C 
ATOM     14  C   UNL     1      37.060 -23.430 -11.840  0.00  0.00    +0.020 C 
ATOM     15  C   UNL     1      37.028 -26.044 -13.218  0.00  0.00    +0.002 C 
ATOM     16  C   UNL     1      38.273 -24.361 -11.808  0.00  0.00    +0.002 C 
ATOM     17  C   UNL     1      37.865 -25.823 -11.963  0.00  0.00    +0.000 C 
ENDBRANCH   1  12
BRANCH  10  18
ATOM     18  C   UNL     1      32.039 -23.409 -16.197  0.00  0.00    +0.038 C 
ATOM     19  C   UNL     1      30.702 -23.274 -16.571  0.00  0.00    +0.007 C 
ATOM     20  C   UNL     1      32.366 -23.972 -14.964  0.00  0.00    +0.003 C 
ATOM     21  C   UNL     1      29.692 -23.703 -15.711  0.00  0.00    +0.072 C 
ATOM     22  C   UNL     1      31.356 -24.401 -14.103  0.00  0.00    +0.000 C 
ATOM     23  C   UNL     1      30.018 -24.266 -14.477  0.00  0.00    +0.004 C 
BRANCH  21  27
ATOM     24  F   UNL     1      27.422 -23.323 -15.059  0.00  0.00    -0.166 F 
ATOM     25  F   UNL     1      28.037 -22.537 -16.984  0.00  0.00    -0.166 F 
ATOM     26  F   UNL     1      27.774 -24.679 -16.722  0.00  0.00    -0.166 F 
ATOM     27  C   UNL     1      28.262 -23.561 -16.109  0.00  0.00    +0.419 C 
ENDBRANCH  21  27
ENDBRANCH  10  18
TORSDOF 3
ENDMDL
MODEL 3
REMARK VINA RESULT:     -10.8      3.802      5.649
REMARK  Name = 10361208
REMARK  3 active torsions:
REMARK  status: ('A' for Active; 'I' for Inactive)
REMARK    1  A    between atoms: N_1  and  C_12
REMARK    2  A    between atoms: C_10  and  C_18
REMARK    3  A    between atoms: C_21  and  C_27
REMARK                            x       y       z     vdW  Elec       q    Type
REMARK                         _______ _______ _______ _____ _____    ______ ____
ROOT
ATOM      1  N   UNL     1      36.707 -23.180 -14.701  0.00  0.00    -0.318 N 
ATOM      2  N   UNL     1      34.757 -23.006 -15.903  0.00  0.00    -0.147 NA
ATOM      3  N   UNL     1      34.213 -22.684 -17.104  0.00  0.00    -0.190 N 
ATOM      4  N   UNL     1      33.989 -22.046 -19.192  0.00  0.00    -0.127 NA
ATOM      5  N   UNL     1      32.739 -22.339 -18.689  0.00  0.00    -0.127 NA
ATOM      6  C   UNL     1      36.063 -22.887 -15.842  0.00  0.00    +0.149 C 
ATOM      7  C   UNL     1      36.888 -22.428 -17.016  0.00  0.00    +0.039 C 
ATOM      8  C   UNL     1      34.867 -22.257 -18.234  0.00  0.00    +0.187 A 
ATOM      9  C   UNL     1      36.266 -22.130 -18.163  0.00  0.00    +0.044 C 
ATOM     10  C   UNL     1      32.891 -22.718 -17.439  0.00  0.00    +0.187 A 
ATOM     11  H   UNL     1      37.685 -23.068 -14.671  0.00  0.00    +0.148 HD
ENDROOT
BRANCH   1  12
ATOM     12  C   UNL     1      36.024 -23.652 -13.511  0.00  0.00    +0.070 C 
ATOM     13  C   UNL     1      35.618 -25.118 -13.685  0.00  0.00    +0.020 C 
ATOM     14  C   UNL     1      36.917 -23.457 -12.281  0.00  0.00    +0.020 C 
ATOM     15  C   UNL     1      36.814 -26.071 -13.655  0.00  0.00    +0.002 C 
ATOM     16  C   UNL     1      38.108 -24.415 -12.256  0.00  0.00    +0.002 C 
ATOM     17  C   UNL     1      37.665 -25.868 -12.406  0.00  0.00    +0.000 C 
ENDBRANCH   1  12
BRANCH  10  18
ATOM     18  C   UNL     1      31.839 -23.117 -16.536  0.00  0.00    +0.038 C 
ATOM     19  C   UNL     1      32.156 -23.709 -15.313  0.00  0.00    +0.007 C 
ATOM     20  C   UNL     1      30.506 -22.911 -16.887  0.00  0.00    +0.003 C 
ATOM     21  C   UNL     1      31.139 -24.095 -14.442  0.00  0.00    +0.072 C 
ATOM     22  C   UNL     1      29.487 -23.298 -16.015  0.00  0.00    +0.000 C 
ATOM     23  C   UNL     1      29.804 -23.890 -14.792  0.00  0.00    +0.004 C 
BRANCH  21  27
ATOM     24  F   UNL     1      32.457 -24.072 -12.446  0.00  0.00    -0.166 F 
ATOM     25  F   UNL     1      30.419 -24.793 -12.270  0.00  0.00    -0.166 F 
ATOM     26  F   UNL     1      31.918 -26.011 -13.269  0.00  0.00    -0.166 F 
ATOM     27  C   UNL     1      31.476 -24.727 -13.133  0.00  0.00    +0.419 C 
ENDBRANCH  21  27
ENDBRANCH  10  18
TORSDOF 3
ENDMDL
MODEL 4
REMARK VINA RESULT:     -10.6      1.896      2.405
REMARK  Name = 10361208
REMARK  3 active torsions:
REMARK  status: ('A' for Active; 'I' for Inactive)
REMARK    1  A    between atoms: N_1  and  C_12
REMARK    2  A    between atoms: C_10  and  C_18
REMARK    3  A    between atoms: C_21  and  C_27
REMARK                            x       y       z     vdW  Elec       q    Type
REMARK                         _______ _______ _______ _____ _____    ______ ____
ROOT
ATOM      1  N   UNL     1      34.684 -24.965 -13.336  0.00  0.00    -0.318 N 
ATOM      2  N   UNL     1      33.498 -24.025 -15.065  0.00  0.00    -0.147 NA
ATOM      3  N   UNL     1      32.261 -23.802 -15.575  0.00  0.00    -0.190 N 
ATOM      4  N   UNL     1      30.081 -23.783 -15.839  0.00  0.00    -0.127 NA
ATOM      5  N   UNL     1      30.656 -23.121 -16.905  0.00  0.00    -0.127 NA
ATOM      6  C   UNL     1      33.512 -24.688 -13.931  0.00  0.00    +0.149 C 
ATOM      7  C   UNL     1      32.253 -25.161 -13.257  0.00  0.00    +0.039 C 
ATOM      8  C   UNL     1      31.052 -24.186 -15.047  0.00  0.00    +0.187 A 
ATOM      9  C   UNL     1      31.074 -24.898 -13.833  0.00  0.00    +0.044 C 
ATOM     10  C   UNL     1      31.959 -23.143 -16.731  0.00  0.00    +0.187 A 
ATOM     11  H   UNL     1      34.675 -25.477 -12.495  0.00  0.00    +0.148 HD
ENDROOT
BRANCH   1  12
ATOM     12  C   UNL     1      35.961 -24.543 -13.879  0.00  0.00    +0.070 C 
ATOM     13  C   UNL     1      36.802 -23.875 -12.785  0.00  0.00    +0.020 C 
ATOM     14  C   UNL     1      36.691 -25.739 -14.498  0.00  0.00    +0.020 C 
ATOM     15  C   UNL     1      37.314 -24.870 -11.743  0.00  0.00    +0.002 C 
ATOM     16  C   UNL     1      37.203 -26.727 -13.449  0.00  0.00    +0.002 C 
ATOM     17  C   UNL     1      38.057 -26.033 -12.391  0.00  0.00    +0.000 C 
ENDBRANCH   1  12
BRANCH  10  18
ATOM     18  C   UNL     1      32.945 -22.564 -17.612  0.00  0.00    +0.038 C 
ATOM     19  C   UNL     1      34.293 -22.582 -17.257  0.00  0.00    +0.007 C 
ATOM     20  C   UNL     1      32.547 -21.985 -18.816  0.00  0.00    +0.003 C 
ATOM     21  C   UNL     1      35.245 -22.022 -18.108  0.00  0.00    +0.072 C 
ATOM     22  C   UNL     1      33.499 -21.424 -19.668  0.00  0.00    +0.000 C 
ATOM     23  C   UNL     1      34.849 -21.442 -19.313  0.00  0.00    +0.004 C 
BRANCH  21  27
ATOM     24  F   UNL     1      37.143 -20.851 -17.241  0.00  0.00    -0.166 F 
ATOM     25  F   UNL     1      36.990 -22.962 -16.769  0.00  0.00    -0.166 F 
ATOM     26  F   UNL     1      37.502 -22.337 -18.787  0.00  0.00    -0.166 F 
ATOM     27  C   UNL     1      36.688 -22.042 -17.732  0.00  0.00    +0.419 C 
ENDBRANCH  21  27
ENDBRANCH  10  18
TORSDOF 3
ENDMDL
MODEL 5
REMARK VINA RESULT:     -10.6      4.322      7.276
REMARK  Name = 10361208
REMARK  3 active torsions:
REMARK  status: ('A' for Active; 'I' for Inactive)
REMARK    1  A    between atoms: N_1  and  C_12
REMARK    2  A    between atoms: C_10  and  C_18
REMARK    3  A    between atoms: C_21  and  C_27
REMARK                            x       y       z     vdW  Elec       q    Type
REMARK                         _______ _______ _______ _____ _____    ______ ____
ROOT
ATOM      1  N   UNL     1      31.434 -23.336 -16.867  0.00  0.00    -0.318 N 
ATOM      2  N   UNL     1      33.687 -23.218 -16.432  0.00  0.00    -0.147 NA
ATOM      3  N   UNL     1      34.893 -22.817 -16.904  0.00  0.00    -0.190 N 
ATOM      4  N   UNL     1      36.456 -21.973 -18.194  0.00  0.00    -0.127 NA
ATOM      5  N   UNL     1      37.049 -22.439 -17.039  0.00  0.00    -0.127 NA
ATOM      6  C   UNL     1      32.676 -22.980 -17.235  0.00  0.00    +0.149 C 
ATOM      7  C   UNL     1      32.848 -22.313 -18.573  0.00  0.00    +0.039 C 
ATOM      8  C   UNL     1      35.164 -22.203 -18.103  0.00  0.00    +0.187 A 
ATOM      9  C   UNL     1      34.076 -21.951 -18.960  0.00  0.00    +0.044 C 
ATOM     10  C   UNL     1      36.100 -22.941 -16.280  0.00  0.00    +0.187 A 
ATOM     11  H   UNL     1      30.691 -23.163 -17.491  0.00  0.00    +0.148 HD
ENDROOT
BRANCH   1  12
ATOM     12  C   UNL     1      31.140 -23.965 -15.594  0.00  0.00    +0.070 C 
ATOM     13  C   UNL     1      30.572 -22.932 -14.616  0.00  0.00    +0.020 C 
ATOM     14  C   UNL     1      30.176 -25.138 -15.797  0.00  0.00    +0.020 C 
ATOM     15  C   UNL     1      29.155 -22.487 -14.983  0.00  0.00    +0.002 C 
ATOM     16  C   UNL     1      28.761 -24.685 -16.159  0.00  0.00    +0.002 C 
ATOM     17  C   UNL     1      28.217 -23.677 -15.152  0.00  0.00    +0.000 C 
ENDBRANCH   1  12
BRANCH  10  18
ATOM     18  C   UNL     1      36.277 -23.538 -14.978  0.00  0.00    +0.038 C 
ATOM     19  C   UNL     1      37.378 -24.356 -14.729  0.00  0.00    +0.007 C 
ATOM     20  C   UNL     1      35.345 -23.296 -13.969  0.00  0.00    +0.003 C 
ATOM     21  C   UNL     1      37.548 -24.933 -13.471  0.00  0.00    +0.072 C 
ATOM     22  C   UNL     1      35.514 -23.873 -12.710  0.00  0.00    +0.000 C 
ATOM     23  C   UNL     1      36.617 -24.692 -12.461  0.00  0.00    +0.004 C 
BRANCH  21  27
ATOM     24  F   UNL     1      38.934 -26.756 -14.162  0.00  0.00    -0.166 F 
ATOM     25  F   UNL     1      39.906 -25.124 -13.116  0.00  0.00    -0.166 F 
ATOM     26  F   UNL     1      38.614 -26.493 -12.027  0.00  0.00    -0.166 F 
ATOM     27  C   UNL     1      38.727 -25.807 -13.202  0.00  0.00    +0.419 C 
ENDBRANCH  21  27
ENDBRANCH  10  18
TORSDOF 3
ENDMDL
MODEL 6
REMARK VINA RESULT:     -10.0      1.752      4.362
REMARK  Name = 10361208
REMARK  3 active torsions:
REMARK  status: ('A' for Active; 'I' for Inactive)
REMARK    1  A    between atoms: N_1  and  C_12
REMARK    2  A    between atoms: C_10  and  C_18
REMARK    3  A    between atoms: C_21  and  C_27
REMARK                            x       y       z     vdW  Elec       q    Type
REMARK                         _______ _______ _______ _____ _____    ______ ____
ROOT
ATOM      1  N   UNL     1      33.551 -25.132 -14.008  0.00  0.00    -0.318 N 
ATOM      2  N   UNL     1      34.792 -23.879 -15.480  0.00  0.00    -0.147 NA
ATOM      3  N   UNL     1      36.023 -23.381 -15.758  0.00  0.00    -0.190 N 
ATOM      4  N   UNL     1      38.162 -22.903 -15.625  0.00  0.00    -0.127 NA
ATOM      5  N   UNL     1      37.653 -22.318 -16.767  0.00  0.00    -0.127 NA
ATOM      6  C   UNL     1      34.723 -24.591 -14.380  0.00  0.00    +0.149 C 
ATOM      7  C   UNL     1      35.919 -24.833 -13.498  0.00  0.00    +0.039 C 
ATOM      8  C   UNL     1      37.176 -23.539 -15.028  0.00  0.00    +0.187 A 
ATOM      9  C   UNL     1      37.096 -24.302 -13.849  0.00  0.00    +0.044 C 
ATOM     10  C   UNL     1      36.374 -22.613 -16.829  0.00  0.00    +0.187 A 
ATOM     11  H   UNL     1      33.516 -25.650 -13.171  0.00  0.00    +0.148 HD
ENDROOT
BRANCH   1  12
ATOM     12  C   UNL     1      32.335 -24.987 -14.786  0.00  0.00    +0.070 C 
ATOM     13  C   UNL     1      31.154 -25.608 -14.034  0.00  0.00    +0.020 C 
ATOM     14  C   UNL     1      32.087 -23.508 -15.102  0.00  0.00    +0.020 C 
ATOM     15  C   UNL     1      30.738 -24.793 -12.808  0.00  0.00    +0.002 C 
ATOM     16  C   UNL     1      31.669 -22.702 -13.872  0.00  0.00    +0.002 C 
ATOM     17  C   UNL     1      30.475 -23.334 -13.164  0.00  0.00    +0.000 C 
ENDBRANCH   1  12
BRANCH  10  18
ATOM     18  C   UNL     1      35.454 -22.204 -17.864  0.00  0.00    +0.038 C 
ATOM     19  C   UNL     1      35.860 -21.291 -18.837  0.00  0.00    +0.007 C 
ATOM     20  C   UNL     1      34.160 -22.721 -17.889  0.00  0.00    +0.003 C 
ATOM     21  C   UNL     1      34.971 -20.895 -19.836  0.00  0.00    +0.072 C 
ATOM     22  C   UNL     1      33.270 -22.326 -18.888  0.00  0.00    +0.000 C 
ATOM     23  C   UNL     1      33.676 -21.412 -19.862  0.00  0.00    +0.004 C 
BRANCH  21  27
ATOM     24  F   UNL     1      35.133 -20.326 -22.153  0.00  0.00    -0.166 F 
ATOM     25  F   UNL     1      34.812 -18.695 -20.760  0.00  0.00    -0.166 F 
ATOM     26  F   UNL     1      36.748 -19.681 -20.847  0.00  0.00    -0.166 F 
ATOM     27  C   UNL     1      35.404 -19.920 -20.878  0.00  0.00    +0.419 C 
ENDBRANCH  21  27
ENDBRANCH  10  18
TORSDOF 3
ENDMDL
MODEL 7
REMARK VINA RESULT:     -10.0      2.177      5.044
REMARK  Name = 10361208
REMARK  3 active torsions:
REMARK  status: ('A' for Active; 'I' for Inactive)
REMARK    1  A    between atoms: N_1  and  C_12
REMARK    2  A    between atoms: C_10  and  C_18
REMARK    3  A    between atoms: C_21  and  C_27
REMARK                            x       y       z     vdW  Elec       q    Type
REMARK                         _______ _______ _______ _____ _____    ______ ____
ROOT
ATOM      1  N   UNL     1      32.172 -24.856 -13.913  0.00  0.00    -0.318 N 
ATOM      2  N   UNL     1      34.182 -23.923 -14.520  0.00  0.00    -0.147 NA
ATOM      3  N   UNL     1      35.446 -23.641 -14.118  0.00  0.00    -0.190 N 
ATOM      4  N   UNL     1      37.264 -23.484 -12.898  0.00  0.00    -0.127 NA
ATOM      5  N   UNL     1      37.516 -22.919 -14.131  0.00  0.00    -0.127 NA
ATOM      6  C   UNL     1      33.441 -24.529 -13.621  0.00  0.00    +0.149 C 
ATOM      7  C   UNL     1      33.961 -24.881 -12.252  0.00  0.00    +0.039 C 
ATOM      8  C   UNL     1      36.021 -23.915 -12.901  0.00  0.00    +0.187 A 
ATOM      9  C   UNL     1      35.222 -24.564 -11.940  0.00  0.00    +0.044 C 
ATOM     10  C   UNL     1      36.418 -23.021 -14.847  0.00  0.00    +0.187 A 
ATOM     11  H   UNL     1      31.628 -25.296 -13.219  0.00  0.00    +0.148 HD
ENDROOT
BRANCH   1  12
ATOM     12  C   UNL     1      31.567 -24.588 -15.203  0.00  0.00    +0.070 C 
ATOM     13  C   UNL     1      30.415 -25.566 -15.456  0.00  0.00    +0.020 C 
ATOM     14  C   UNL     1      31.096 -23.132 -15.272  0.00  0.00    +0.020 C 
ATOM     15  C   UNL     1      29.198 -25.287 -14.572  0.00  0.00    +0.002 C 
ATOM     16  C   UNL     1      29.877 -22.863 -14.388  0.00  0.00    +0.002 C 
ATOM     17  C   UNL     1      28.741 -23.836 -14.684  0.00  0.00    +0.000 C 
ENDBRANCH   1  12
BRANCH  10  18
ATOM     18  C   UNL     1      36.239 -22.558 -16.202  0.00  0.00    +0.038 C 
ATOM     19  C   UNL     1      35.059 -22.844 -16.888  0.00  0.00    +0.007 C 
ATOM     20  C   UNL     1      37.248 -21.825 -16.826  0.00  0.00    +0.003 C 
ATOM     21  C   UNL     1      34.887 -22.397 -18.197  0.00  0.00    +0.072 C 
ATOM     22  C   UNL     1      37.078 -21.378 -18.137  0.00  0.00    +0.000 C 
ATOM     23  C   UNL     1      35.896 -21.664 -18.822  0.00  0.00    +0.004 C 
BRANCH  21  27
ATOM     24  F   UNL     1      32.527 -22.777 -18.123  0.00  0.00    -0.166 F 
ATOM     25  F   UNL     1      33.306 -21.771 -19.879  0.00  0.00    -0.166 F 
ATOM     26  F   UNL     1      33.676 -23.894 -19.592  0.00  0.00    -0.166 F 
ATOM     27  C   UNL     1      33.625 -22.701 -18.931  0.00  0.00    +0.419 C 
ENDBRANCH  21  27
ENDBRANCH  10  18
TORSDOF 3
ENDMDL
MODEL 8
REMARK VINA RESULT:      -9.7      4.099      6.955
REMARK  Name = 10361208
REMARK  3 active torsions:
REMARK  status: ('A' for Active; 'I' for Inactive)
REMARK    1  A    between atoms: N_1  and  C_12
REMARK    2  A    between atoms: C_10  and  C_18
REMARK    3  A    between atoms: C_21  and  C_27
REMARK                            x       y       z     vdW  Elec       q    Type
REMARK                         _______ _______ _______ _____ _____    ______ ____
ROOT
ATOM      1  N   UNL     1      31.516 -23.270 -16.884  0.00  0.00    -0.318 N 
ATOM      2  N   UNL     1      33.793 -23.147 -16.610  0.00  0.00    -0.147 NA
ATOM      3  N   UNL     1      34.959 -22.718 -17.155  0.00  0.00    -0.190 N 
ATOM      4  N   UNL     1      36.418 -21.813 -18.524  0.00  0.00    -0.127 NA
ATOM      5  N   UNL     1      37.096 -22.316 -17.433  0.00  0.00    -0.127 NA
ATOM      6  C   UNL     1      32.724 -22.889 -17.328  0.00  0.00    +0.149 C 
ATOM      7  C   UNL     1      32.793 -22.172 -18.650  0.00  0.00    +0.039 C 
ATOM      8  C   UNL     1      35.137 -22.058 -18.347  0.00  0.00    +0.187 A 
ATOM      9  C   UNL     1      33.988 -21.784 -19.112  0.00  0.00    +0.044 C 
ATOM     10  C   UNL     1      36.209 -22.854 -16.626  0.00  0.00    +0.187 A 
ATOM     11  H   UNL     1      30.728 -23.081 -17.444  0.00  0.00    +0.148 HD
ENDROOT
BRANCH   1  12
ATOM     12  C   UNL     1      31.320 -23.947 -15.616  0.00  0.00    +0.070 C 
ATOM     13  C   UNL     1      30.778 -22.965 -14.573  0.00  0.00    +0.020 C 
ATOM     14  C   UNL     1      30.384 -25.146 -15.800  0.00  0.00    +0.020 C 
ATOM     15  C   UNL     1      29.328 -22.559 -14.840  0.00  0.00    +0.002 C 
ATOM     16  C   UNL     1      28.936 -24.732 -16.063  0.00  0.00    +0.002 C 
ATOM     17  C   UNL     1      28.421 -23.775 -14.992  0.00  0.00    +0.000 C 
ENDBRANCH   1  12
BRANCH  10  18
ATOM     18  C   UNL     1      36.486 -23.496 -15.363  0.00  0.00    +0.038 C 
ATOM     19  C   UNL     1      35.456 -23.705 -14.446  0.00  0.00    +0.007 C 
ATOM     20  C   UNL     1      37.783 -23.906 -15.061  0.00  0.00    +0.003 C 
ATOM     21  C   UNL     1      35.724 -24.325 -13.226  0.00  0.00    +0.072 C 
ATOM     22  C   UNL     1      38.053 -24.526 -13.840  0.00  0.00    +0.000 C 
ATOM     23  C   UNL     1      37.022 -24.736 -12.922  0.00  0.00    +0.004 C 
BRANCH  21  27
ATOM     24  F   UNL     1      34.205 -23.411 -11.620  0.00  0.00    -0.166 F 
ATOM     25  F   UNL     1      33.497 -25.087 -12.800  0.00  0.00    -0.166 F 
ATOM     26  F   UNL     1      34.981 -25.408 -11.244  0.00  0.00    -0.166 F 
ATOM     27  C   UNL     1      34.624 -24.551 -12.245  0.00  0.00    +0.419 C 
ENDBRANCH  21  27
ENDBRANCH  10  18
TORSDOF 3
ENDMDL
MODEL 9
REMARK VINA RESULT:      -9.7     10.867     14.622
REMARK  Name = 10361208
REMARK  3 active torsions:
REMARK  status: ('A' for Active; 'I' for Inactive)
REMARK    1  A    between atoms: N_1  and  C_12
REMARK    2  A    between atoms: C_10  and  C_18
REMARK    3  A    between atoms: C_21  and  C_27
REMARK                            x       y       z     vdW  Elec       q    Type
REMARK                         _______ _______ _______ _____ _____    ______ ____
ROOT
ATOM      1  N   UNL     1      32.580  -8.189 -22.516  0.00  0.00    -0.318 N 
ATOM      2  N   UNL     1      32.577 -10.472 -22.259  0.00  0.00    -0.147 NA
ATOM      3  N   UNL     1      32.323 -11.497 -21.408  0.00  0.00    -0.190 N 
ATOM      4  N   UNL     1      31.753 -12.635 -19.619  0.00  0.00    -0.127 NA
ATOM      5  N   UNL     1      32.123 -13.527 -20.604  0.00  0.00    -0.127 NA
ATOM      6  C   UNL     1      32.361  -9.277 -21.760  0.00  0.00    +0.149 C 
ATOM      7  C   UNL     1      31.870  -9.067 -20.352  0.00  0.00    +0.039 C 
ATOM      8  C   UNL     1      31.876 -11.420 -20.111  0.00  0.00    +0.187 A 
ATOM      9  C   UNL     1      31.647 -10.137 -19.581  0.00  0.00    +0.044 C 
ATOM     10  C   UNL     1      32.462 -12.829 -21.666  0.00  0.00    +0.187 A 
ATOM     11  H   UNL     1      32.428  -7.301 -22.118  0.00  0.00    +0.148 HD
ENDROOT
BRANCH   1  12
ATOM     12  C   UNL     1      33.032  -8.265 -23.892  0.00  0.00    +0.070 C 
ATOM     13  C   UNL     1      32.602  -7.009 -24.657  0.00  0.00    +0.020 C 
ATOM     14  C   UNL     1      34.552  -8.458 -23.937  0.00  0.00    +0.020 C 
ATOM     15  C   UNL     1      33.379  -5.762 -24.230  0.00  0.00    +0.002 C 
ATOM     16  C   UNL     1      35.320  -7.206 -23.513  0.00  0.00    +0.002 C 
ATOM     17  C   UNL     1      34.885  -5.981 -24.311  0.00  0.00    +0.000 C 
ENDBRANCH   1  12
BRANCH  10  18
ATOM     18  C   UNL     1      32.913 -13.364 -22.928  0.00  0.00    +0.038 C 
ATOM     19  C   UNL     1      33.356 -14.684 -23.008  0.00  0.00    +0.007 C 
ATOM     20  C   UNL     1      32.907 -12.559 -24.067  0.00  0.00    +0.003 C 
ATOM     21  C   UNL     1      33.793 -15.200 -24.228  0.00  0.00    +0.072 C 
ATOM     22  C   UNL     1      33.344 -13.075 -25.287  0.00  0.00    +0.000 C 
ATOM     23  C   UNL     1      33.787 -14.396 -25.368  0.00  0.00    +0.004 C 
BRANCH  21  27
ATOM     24  F   UNL     1      34.566 -17.165 -23.104  0.00  0.00    -0.166 F 
ATOM     25  F   UNL     1      33.353 -17.459 -24.878  0.00  0.00    -0.166 F 
ATOM     26  F   UNL     1      35.397 -16.740 -25.069  0.00  0.00    -0.166 F 
ATOM     27  C   UNL     1      34.265 -16.612 -24.316  0.00  0.00    +0.419 C 
ENDBRANCH  21  27
ENDBRANCH  10  18
TORSDOF 3
ENDMDL
