MODEL 1
REMARK VINA RESULT:     -11.0      0.000      0.000
REMARK  Name = 6918554
REMARK  8 active torsions:
REMARK  status: ('A' for Active; 'I' for Inactive)
REMARK    1  A    between atoms: C_1  and  N_2
REMARK    2  A    between atoms: C_1  and  C_18
REMARK    3  A    between atoms: N_2  and  C_5
REMARK    4  A    between atoms: C_12  and  C_14
REMARK    5  A    between atoms: C_13  and  C_16
REMARK    6  A    between atoms: C_18  and  C_21
REMARK    7  A    between atoms: C_18  and  O_33
REMARK    8  A    between atoms: C_27  and  O_31
REMARK                            x       y       z     vdW  Elec       q    Type
REMARK                         _______ _______ _______ _____ _____    ______ ____
ROOT
ATOM      1  C   UNL     1      35.102 -19.597 -21.247  0.00  0.00    -0.047 C 
ENDROOT
BRANCH   1   2
ATOM      2  N   UNL     1      36.189 -20.286 -20.565  0.00  0.00    +0.387 N 
ATOM      3  H   UNL     1      36.863 -20.613 -21.257  0.00  0.00    -0.084 HD
ATOM      4  H   UNL     1      36.630 -19.635 -19.916  0.00  0.00    -0.084 HD
BRANCH   2   5
ATOM      5  C   UNL     1      35.692 -21.426 -19.811  0.00  0.00    -0.053 C 
ATOM      6  C   UNL     1      36.355 -21.567 -18.425  0.00  0.00    +0.005 C 
ATOM      7  C   UNL     1      34.172 -21.345 -19.557  0.00  0.00    +0.005 C 
ATOM      8  C   UNL     1      35.287 -22.298 -17.673  0.00  0.00    -0.029 C 
ATOM      9  C   UNL     1      34.049 -22.172 -18.314  0.00  0.00    -0.029 C 
ATOM     10  C   UNL     1      35.405 -22.986 -16.476  0.00  0.00    -0.009 C 
ATOM     11  C   UNL     1      32.904 -22.732 -17.774  0.00  0.00    -0.009 C 
ATOM     12  C   UNL     1      34.257 -23.565 -15.930  0.00  0.00    -0.026 C 
ATOM     13  C   UNL     1      33.015 -23.439 -16.574  0.00  0.00    -0.026 C 
BRANCH  12  14
ATOM     14  C   UNL     1      34.374 -24.315 -14.643  0.00  0.00    +0.026 C 
ATOM     15  C   UNL     1      35.526 -25.315 -14.659  0.00  0.00    +0.005 C 
ENDBRANCH  12  14
BRANCH  13  16
ATOM     16  C   UNL     1      31.788 -24.053 -15.984  0.00  0.00    +0.026 C 
ATOM     17  C   UNL     1      30.582 -23.122 -16.061  0.00  0.00    +0.005 C 
ENDBRANCH  13  16
ENDBRANCH   2   5
ENDBRANCH   1   2
BRANCH   1  18
ATOM     18  C   UNL     1      35.647 -18.540 -22.215  0.00  0.00    +0.112 C 
BRANCH  18  21
ATOM     19  O   UNL     1      33.095 -13.874 -25.804  0.00  0.00    -0.270 OA
ATOM     20  N   UNL     1      33.570 -14.252 -23.582  0.00  0.00    -0.278 N 
ATOM     21  C   UNL     1      35.084 -17.169 -21.915  0.00  0.00    +0.004 C 
ATOM     22  C   UNL     1      34.585 -16.350 -22.919  0.00  0.00    +0.015 C 
ATOM     23  C   UNL     1      35.087 -16.760 -20.587  0.00  0.00    +0.001 C 
ATOM     24  C   UNL     1      34.078 -15.092 -22.575  0.00  0.00    +0.084 C 
ATOM     25  C   UNL     1      34.580 -15.503 -20.253  0.00  0.00    +0.038 C 
ATOM     26  C   UNL     1      34.571 -16.759 -24.321  0.00  0.00    +0.006 C 
ATOM     27  C   UNL     1      34.074 -14.665 -21.246  0.00  0.00    +0.147 C 
ATOM     28  C   UNL     1      34.082 -15.944 -25.264  0.00  0.00    +0.058 C 
ATOM     29  C   UNL     1      33.539 -14.602 -24.919  0.00  0.00    +0.250 C 
ATOM     30  H   UNL     1      33.217 -13.371 -23.322  0.00  0.00    +0.155 HD
BRANCH  27  31
ATOM     31  O   UNL     1      33.585 -13.442 -20.900  0.00  0.00    -0.504 OA
ATOM     32  H   UNL     1      32.660 -13.304 -20.851  0.00  0.00    +0.292 HD
ENDBRANCH  27  31
ENDBRANCH  18  21
BRANCH  18  33
ATOM     33  O   UNL     1      37.069 -18.469 -22.119  0.00  0.00    -0.382 OA
ATOM     34  H   UNL     1      37.325 -18.344 -21.191  0.00  0.00    +0.211 HD
ENDBRANCH  18  33
ENDBRANCH   1  18
TORSDOF 8
ENDMDL
MODEL 2
REMARK VINA RESULT:     -11.0      0.410      2.007
REMARK  Name = 6918554
REMARK  8 active torsions:
REMARK  status: ('A' for Active; 'I' for Inactive)
REMARK    1  A    between atoms: C_1  and  N_2
REMARK    2  A    between atoms: C_1  and  C_18
REMARK    3  A    between atoms: N_2  and  C_5
REMARK    4  A    between atoms: C_12  and  C_14
REMARK    5  A    between atoms: C_13  and  C_16
REMARK    6  A    between atoms: C_18  and  C_21
REMARK    7  A    between atoms: C_18  and  O_33
REMARK    8  A    between atoms: C_27  and  O_31
REMARK                            x       y       z     vdW  Elec       q    Type
REMARK                         _______ _______ _______ _____ _____    ______ ____
ROOT
ATOM      1  C   UNL     1      34.781 -19.552 -21.934  0.00  0.00    -0.047 C 
ENDROOT
BRANCH   1   2
ATOM      2  N   UNL     1      35.600 -20.543 -21.249  0.00  0.00    +0.387 N 
ATOM      3  H   UNL     1      35.563 -21.422 -21.765  0.00  0.00    -0.084 HD
ATOM      4  H   UNL     1      36.557 -20.196 -21.201  0.00  0.00    -0.084 HD
BRANCH   2   5
ATOM      5  C   UNL     1      35.120 -20.768 -19.894  0.00  0.00    -0.053 C 
ATOM      6  C   UNL     1      33.796 -21.559 -19.848  0.00  0.00    +0.005 C 
ATOM      7  C   UNL     1      36.128 -21.563 -19.037  0.00  0.00    +0.005 C 
ATOM      8  C   UNL     1      33.890 -22.190 -18.493  0.00  0.00    -0.029 C 
ATOM      9  C   UNL     1      35.213 -22.193 -18.034  0.00  0.00    -0.029 C 
ATOM     10  C   UNL     1      32.874 -22.762 -17.746  0.00  0.00    -0.009 C 
ATOM     11  C   UNL     1      35.546 -22.767 -16.819  0.00  0.00    -0.009 C 
ATOM     12  C   UNL     1      33.198 -23.333 -16.514  0.00  0.00    -0.026 C 
ATOM     13  C   UNL     1      34.525 -23.335 -16.053  0.00  0.00    -0.026 C 
BRANCH  12  14
ATOM     14  C   UNL     1      32.108 -23.948 -15.697  0.00  0.00    +0.026 C 
ATOM     15  C   UNL     1      30.779 -23.219 -15.865  0.00  0.00    +0.005 C 
ENDBRANCH  12  14
BRANCH  13  16
ATOM     16  C   UNL     1      34.871 -23.952 -14.737  0.00  0.00    +0.026 C 
ATOM     17  C   UNL     1      35.616 -25.274 -14.897  0.00  0.00    +0.005 C 
ENDBRANCH  13  16
ENDBRANCH   2   5
ENDBRANCH   1   2
BRANCH   1  18
ATOM     18  C   UNL     1      35.644 -18.401 -22.463  0.00  0.00    +0.112 C 
BRANCH  18  21
ATOM     19  O   UNL     1      32.940 -13.610 -25.764  0.00  0.00    -0.270 OA
ATOM     20  N   UNL     1      33.471 -14.087 -23.574  0.00  0.00    -0.278 N 
ATOM     21  C   UNL     1      35.067 -17.055 -22.084  0.00  0.00    +0.004 C 
ATOM     22  C   UNL     1      34.533 -16.197 -23.036  0.00  0.00    +0.015 C 
ATOM     23  C   UNL     1      35.093 -16.711 -20.738  0.00  0.00    +0.001 C 
ATOM     24  C   UNL     1      34.014 -14.966 -22.620  0.00  0.00    +0.084 C 
ATOM     25  C   UNL     1      34.575 -15.480 -20.332  0.00  0.00    +0.038 C 
ATOM     26  C   UNL     1      34.493 -16.539 -24.456  0.00  0.00    +0.006 C 
ATOM     27  C   UNL     1      34.034 -14.603 -21.272  0.00  0.00    +0.147 C 
ATOM     28  C   UNL     1      33.971 -15.687 -25.347  0.00  0.00    +0.058 C 
ATOM     29  C   UNL     1      33.415 -14.372 -24.925  0.00  0.00    +0.250 C 
ATOM     30  H   UNL     1      33.111 -13.225 -23.264  0.00  0.00    +0.155 HD
BRANCH  27  31
ATOM     31  O   UNL     1      33.534 -13.407 -20.856  0.00  0.00    -0.504 OA
ATOM     32  H   UNL     1      33.948 -12.609 -21.121  0.00  0.00    +0.292 HD
ENDBRANCH  27  31
ENDBRANCH  18  21
BRANCH  18  33
ATOM     33  O   UNL     1      36.964 -18.487 -21.927  0.00  0.00    -0.382 OA
ATOM     34  H   UNL     1      37.446 -17.668 -22.120  0.00  0.00    +0.211 HD
ENDBRANCH  18  33
ENDBRANCH   1  18
TORSDOF 8
ENDMDL
MODEL 3
REMARK VINA RESULT:     -10.9      1.241      2.753
REMARK  Name = 6918554
REMARK  8 active torsions:
REMARK  status: ('A' for Active; 'I' for Inactive)
REMARK    1  A    between atoms: C_1  and  N_2
REMARK    2  A    between atoms: C_1  and  C_18
REMARK    3  A    between atoms: N_2  and  C_5
REMARK    4  A    between atoms: C_12  and  C_14
REMARK    5  A    between atoms: C_13  and  C_16
REMARK    6  A    between atoms: C_18  and  C_21
REMARK    7  A    between atoms: C_18  and  O_33
REMARK    8  A    between atoms: C_27  and  O_31
REMARK                            x       y       z     vdW  Elec       q    Type
REMARK                         _______ _______ _______ _____ _____    ______ ____
ROOT
ATOM      1  C   UNL     1      35.902 -18.655 -22.118  0.00  0.00    -0.047 C 
ENDROOT
BRANCH   1   2
ATOM      2  N   UNL     1      34.627 -19.360 -22.086  0.00  0.00    +0.387 N 
ATOM      3  H   UNL     1      33.909 -18.734 -21.721  0.00  0.00    -0.084 HD
ATOM      4  H   UNL     1      34.396 -19.656 -23.034  0.00  0.00    -0.084 HD
BRANCH   2   5
ATOM      5  C   UNL     1      34.704 -20.540 -21.239  0.00  0.00    -0.053 C 
ATOM      6  C   UNL     1      35.852 -20.468 -20.210  0.00  0.00    +0.005 C 
ATOM      7  C   UNL     1      33.411 -20.768 -20.428  0.00  0.00    +0.005 C 
ATOM      8  C   UNL     1      35.327 -21.368 -19.135  0.00  0.00    -0.029 C 
ATOM      9  C   UNL     1      33.942 -21.538 -19.259  0.00  0.00    -0.029 C 
ATOM     10  C   UNL     1      36.028 -21.955 -18.095  0.00  0.00    -0.009 C 
ATOM     11  C   UNL     1      33.232 -22.298 -18.346  0.00  0.00    -0.009 C 
ATOM     12  C   UNL     1      35.322 -22.733 -17.176  0.00  0.00    -0.026 C 
ATOM     13  C   UNL     1      33.933 -22.904 -17.300  0.00  0.00    -0.026 C 
BRANCH  12  14
ATOM     14  C   UNL     1      36.070 -23.376 -16.054  0.00  0.00    +0.026 C 
ATOM     15  C   UNL     1      37.382 -22.660 -15.748  0.00  0.00    +0.005 C 
ENDBRANCH  12  14
BRANCH  13  16
ATOM     16  C   UNL     1      33.178 -23.732 -16.312  0.00  0.00    +0.026 C 
ATOM     17  C   UNL     1      31.727 -23.281 -16.171  0.00  0.00    +0.005 C 
ENDBRANCH  13  16
ENDBRANCH   2   5
ENDBRANCH   1   2
BRANCH   1  18
ATOM     18  C   UNL     1      35.724 -17.187 -21.714  0.00  0.00    +0.112 C 
BRANCH  18  21
ATOM     19  O   UNL     1      32.041 -11.939 -21.484  0.00  0.00    -0.270 OA
ATOM     20  N   UNL     1      32.724 -13.477 -23.056  0.00  0.00    -0.278 N 
ATOM     21  C   UNL     1      34.913 -16.425 -22.737  0.00  0.00    +0.004 C 
ATOM     22  C   UNL     1      34.191 -15.288 -22.395  0.00  0.00    +0.015 C 
ATOM     23  C   UNL     1      34.917 -16.909 -24.039  0.00  0.00    +0.001 C 
ATOM     24  C   UNL     1      33.460 -14.628 -23.389  0.00  0.00    +0.084 C 
ATOM     25  C   UNL     1      34.184 -16.245 -25.024  0.00  0.00    +0.038 C 
ATOM     26  C   UNL     1      34.172 -14.759 -21.034  0.00  0.00    +0.006 C 
ATOM     27  C   UNL     1      33.452 -15.103 -24.702  0.00  0.00    +0.147 C 
ATOM     28  C   UNL     1      33.466 -13.661 -20.739  0.00  0.00    +0.058 C 
ATOM     29  C   UNL     1      32.681 -12.946 -21.781  0.00  0.00    +0.250 C 
ATOM     30  H   UNL     1      32.215 -13.025 -23.768  0.00  0.00    +0.155 HD
BRANCH  27  31
ATOM     31  O   UNL     1      32.743 -14.470 -25.676  0.00  0.00    -0.504 OA
ATOM     32  H   UNL     1      32.553 -14.913 -26.480  0.00  0.00    +0.292 HD
ENDBRANCH  27  31
ENDBRANCH  18  21
BRANCH  18  33
ATOM     33  O   UNL     1      35.055 -17.098 -20.458  0.00  0.00    -0.382 OA
ATOM     34  H   UNL     1      35.380 -17.796 -19.867  0.00  0.00    +0.211 HD
ENDBRANCH  18  33
ENDBRANCH   1  18
TORSDOF 8
ENDMDL
MODEL 4
REMARK VINA RESULT:     -10.7      1.212      3.318
REMARK  Name = 6918554
REMARK  8 active torsions:
REMARK  status: ('A' for Active; 'I' for Inactive)
REMARK    1  A    between atoms: C_1  and  N_2
REMARK    2  A    between atoms: C_1  and  C_18
REMARK    3  A    between atoms: N_2  and  C_5
REMARK    4  A    between atoms: C_12  and  C_14
REMARK    5  A    between atoms: C_13  and  C_16
REMARK    6  A    between atoms: C_18  and  C_21
REMARK    7  A    between atoms: C_18  and  O_33
REMARK    8  A    between atoms: C_27  and  O_31
REMARK                            x       y       z     vdW  Elec       q    Type
REMARK                         _______ _______ _______ _____ _____    ______ ____
ROOT
ATOM      1  C   UNL     1      35.869 -18.748 -22.321  0.00  0.00    -0.047 C 
ENDROOT
BRANCH   1   2
ATOM      2  N   UNL     1      34.645 -19.500 -22.077  0.00  0.00    +0.387 N 
ATOM      3  H   UNL     1      33.843 -18.919 -22.317  0.00  0.00    -0.084 HD
ATOM      4  H   UNL     1      34.662 -20.342 -22.652  0.00  0.00    -0.084 HD
BRANCH   2   5
ATOM      5  C   UNL     1      34.545 -19.894 -20.680  0.00  0.00    -0.053 C 
ATOM      6  C   UNL     1      33.384 -20.875 -20.413  0.00  0.00    +0.005 C 
ATOM      7  C   UNL     1      35.825 -20.591 -20.172  0.00  0.00    +0.005 C 
ATOM      8  C   UNL     1      33.887 -21.583 -19.194  0.00  0.00    -0.029 C 
ATOM      9  C   UNL     1      35.271 -21.422 -19.057  0.00  0.00    -0.029 C 
ATOM     10  C   UNL     1      33.166 -22.355 -18.297  0.00  0.00    -0.009 C 
ATOM     11  C   UNL     1      35.962 -22.028 -18.022  0.00  0.00    -0.009 C 
ATOM     12  C   UNL     1      33.852 -22.960 -17.242  0.00  0.00    -0.026 C 
ATOM     13  C   UNL     1      35.241 -22.798 -17.106  0.00  0.00    -0.026 C 
BRANCH  12  14
ATOM     14  C   UNL     1      33.083 -23.789 -16.266  0.00  0.00    +0.026 C 
ATOM     15  C   UNL     1      31.650 -23.297 -16.093  0.00  0.00    +0.005 C 
ENDBRANCH  12  14
BRANCH  13  16
ATOM     16  C   UNL     1      35.975 -23.451 -15.980  0.00  0.00    +0.026 C 
ATOM     17  C   UNL     1      37.340 -22.816 -15.735  0.00  0.00    +0.005 C 
ENDBRANCH  13  16
ENDBRANCH   2   5
ENDBRANCH   1   2
BRANCH   1  18
ATOM     18  C   UNL     1      35.715 -17.292 -21.862  0.00  0.00    +0.112 C 
BRANCH  18  21
ATOM     19  O   UNL     1      32.131 -11.994 -21.372  0.00  0.00    -0.270 OA
ATOM     20  N   UNL     1      32.743 -13.496 -23.008  0.00  0.00    -0.278 N 
ATOM     21  C   UNL     1      34.889 -16.487 -22.838  0.00  0.00    +0.004 C 
ATOM     22  C   UNL     1      34.197 -15.350 -22.442  0.00  0.00    +0.015 C 
ATOM     23  C   UNL     1      34.848 -16.933 -24.153  0.00  0.00    +0.001 C 
ATOM     24  C   UNL     1      33.449 -14.648 -23.395  0.00  0.00    +0.084 C 
ATOM     25  C   UNL     1      34.099 -16.228 -25.097  0.00  0.00    +0.038 C 
ATOM     26  C   UNL     1      34.225 -14.861 -21.066  0.00  0.00    +0.006 C 
ATOM     27  C   UNL     1      33.397 -15.083 -24.721  0.00  0.00    +0.147 C 
ATOM     28  C   UNL     1      33.546 -13.762 -20.719  0.00  0.00    +0.058 C 
ATOM     29  C   UNL     1      32.744 -13.002 -21.717  0.00  0.00    +0.250 C 
ATOM     30  H   UNL     1      32.222 -13.015 -23.691  0.00  0.00    +0.155 HD
BRANCH  27  31
ATOM     31  O   UNL     1      32.671 -14.410 -25.655  0.00  0.00    -0.504 OA
ATOM     32  H   UNL     1      31.784 -14.168 -25.475  0.00  0.00    +0.292 HD
ENDBRANCH  27  31
ENDBRANCH  18  21
BRANCH  18  33
ATOM     33  O   UNL     1      35.075 -17.242 -20.588  0.00  0.00    -0.382 OA
ATOM     34  H   UNL     1      34.820 -18.138 -20.318  0.00  0.00    +0.211 HD
ENDBRANCH  18  33
ENDBRANCH   1  18
TORSDOF 8
ENDMDL
MODEL 5
REMARK VINA RESULT:     -10.6      3.208      9.682
REMARK  Name = 6918554
REMARK  8 active torsions:
REMARK  status: ('A' for Active; 'I' for Inactive)
REMARK    1  A    between atoms: C_1  and  N_2
REMARK    2  A    between atoms: C_1  and  C_18
REMARK    3  A    between atoms: N_2  and  C_5
REMARK    4  A    between atoms: C_12  and  C_14
REMARK    5  A    between atoms: C_13  and  C_16
REMARK    6  A    between atoms: C_18  and  C_21
REMARK    7  A    between atoms: C_18  and  O_33
REMARK    8  A    between atoms: C_27  and  O_31
REMARK                            x       y       z     vdW  Elec       q    Type
REMARK                         _______ _______ _______ _____ _____    ______ ____
ROOT
ATOM      1  C   UNL     1      35.243 -17.628 -21.383  0.00  0.00    -0.047 C 
ENDROOT
BRANCH   1   2
ATOM      2  N   UNL     1      35.239 -16.753 -22.549  0.00  0.00    +0.387 N 
ATOM      3  H   UNL     1      36.164 -16.768 -22.980  0.00  0.00    -0.084 HD
ATOM      4  H   UNL     1      34.534 -17.088 -23.204  0.00  0.00    -0.084 HD
BRANCH   2   5
ATOM      5  C   UNL     1      34.912 -15.386 -22.173  0.00  0.00    -0.053 C 
ATOM      6  C   UNL     1      34.346 -14.558 -23.346  0.00  0.00    +0.005 C 
ATOM      7  C   UNL     1      33.857 -15.322 -21.049  0.00  0.00    +0.005 C 
ATOM      8  C   UNL     1      33.531 -13.543 -22.608  0.00  0.00    -0.029 C 
ATOM      9  C   UNL     1      33.253 -13.976 -21.306  0.00  0.00    -0.029 C 
ATOM     10  C   UNL     1      33.034 -12.340 -23.082  0.00  0.00    -0.009 C 
ATOM     11  C   UNL     1      32.473 -13.215 -20.452  0.00  0.00    -0.009 C 
ATOM     12  C   UNL     1      32.256 -11.560 -22.224  0.00  0.00    -0.026 C 
ATOM     13  C   UNL     1      31.977 -11.995 -20.917  0.00  0.00    -0.026 C 
BRANCH  12  14
ATOM     14  C   UNL     1      31.720 -10.258 -22.723  0.00  0.00    +0.026 C 
ATOM     15  C   UNL     1      32.782  -9.164 -22.739  0.00  0.00    +0.005 C 
ENDBRANCH  12  14
BRANCH  13  16
ATOM     16  C   UNL     1      31.140 -11.162 -20.002  0.00  0.00    +0.026 C 
ATOM     17  C   UNL     1      31.947 -10.592 -18.840  0.00  0.00    +0.005 C 
ENDBRANCH  13  16
ENDBRANCH   2   5
ENDBRANCH   1   2
BRANCH   1  18
ATOM     18  C   UNL     1      35.347 -19.099 -21.805  0.00  0.00    +0.112 C 
BRANCH  18  21
ATOM     19  O   UNL     1      37.059 -22.785 -16.841  0.00  0.00    -0.270 OA
ATOM     20  N   UNL     1      35.130 -22.232 -17.971  0.00  0.00    -0.278 N 
ATOM     21  C   UNL     1      34.593 -20.003 -20.856  0.00  0.00    +0.004 C 
ATOM     22  C   UNL     1      35.241 -20.699 -19.844  0.00  0.00    +0.015 C 
ATOM     23  C   UNL     1      33.220 -20.109 -21.037  0.00  0.00    +0.001 C 
ATOM     24  C   UNL     1      34.486 -21.520 -18.999  0.00  0.00    +0.084 C 
ATOM     25  C   UNL     1      32.474 -20.930 -20.190  0.00  0.00    +0.038 C 
ATOM     26  C   UNL     1      36.684 -20.602 -19.633  0.00  0.00    +0.006 C 
ATOM     27  C   UNL     1      33.106 -21.639 -19.168  0.00  0.00    +0.147 C 
ATOM     28  C   UNL     1      37.276 -21.288 -18.649  0.00  0.00    +0.058 C 
ATOM     29  C   UNL     1      36.491 -22.167 -17.739  0.00  0.00    +0.250 C 
ATOM     30  H   UNL     1      34.583 -22.804 -17.385  0.00  0.00    +0.155 HD
BRANCH  27  31
ATOM     31  O   UNL     1      32.361 -22.436 -18.353  0.00  0.00    -0.504 OA
ATOM     32  H   UNL     1      32.784 -23.049 -17.785  0.00  0.00    +0.292 HD
ENDBRANCH  27  31
ENDBRANCH  18  21
BRANCH  18  33
ATOM     33  O   UNL     1      34.806 -19.276 -23.114  0.00  0.00    -0.382 OA
ATOM     34  H   UNL     1      35.128 -18.569 -23.695  0.00  0.00    +0.211 HD
ENDBRANCH  18  33
ENDBRANCH   1  18
TORSDOF 8
ENDMDL
MODEL 6
REMARK VINA RESULT:     -10.6      3.190      9.633
REMARK  Name = 6918554
REMARK  8 active torsions:
REMARK  status: ('A' for Active; 'I' for Inactive)
REMARK    1  A    between atoms: C_1  and  N_2
REMARK    2  A    between atoms: C_1  and  C_18
REMARK    3  A    between atoms: N_2  and  C_5
REMARK    4  A    between atoms: C_12  and  C_14
REMARK    5  A    between atoms: C_13  and  C_16
REMARK    6  A    between atoms: C_18  and  C_21
REMARK    7  A    between atoms: C_18  and  O_33
REMARK    8  A    between atoms: C_27  and  O_31
REMARK                            x       y       z     vdW  Elec       q    Type
REMARK                         _______ _______ _______ _____ _____    ______ ____
ROOT
ATOM      1  C   UNL     1      35.429 -17.611 -21.322  0.00  0.00    -0.047 C 
ENDROOT
BRANCH   1   2
ATOM      2  N   UNL     1      35.487 -16.660 -22.424  0.00  0.00    +0.387 N 
ATOM      3  H   UNL     1      36.343 -16.111 -22.346  0.00  0.00    -0.084 HD
ATOM      4  H   UNL     1      35.474 -17.179 -23.302  0.00  0.00    -0.084 HD
BRANCH   2   5
ATOM      5  C   UNL     1      34.343 -15.762 -22.399  0.00  0.00    -0.053 C 
ATOM      6  C   UNL     1      34.003 -15.261 -20.979  0.00  0.00    +0.005 C 
ATOM      7  C   UNL     1      34.566 -14.501 -23.260  0.00  0.00    +0.005 C 
ATOM      8  C   UNL     1      33.327 -13.962 -21.292  0.00  0.00    -0.029 C 
ATOM      9  C   UNL     1      33.646 -13.531 -22.585  0.00  0.00    -0.029 C 
ATOM     10  C   UNL     1      32.522 -13.198 -20.463  0.00  0.00    -0.009 C 
ATOM     11  C   UNL     1      33.167 -12.329 -23.076  0.00  0.00    -0.009 C 
ATOM     12  C   UNL     1      32.024 -11.989 -20.954  0.00  0.00    -0.026 C 
ATOM     13  C   UNL     1      32.344 -11.557 -22.252  0.00  0.00    -0.026 C 
BRANCH  12  14
ATOM     14  C   UNL     1      31.150 -11.160 -20.070  0.00  0.00    +0.026 C 
ATOM     15  C   UNL     1      31.936 -10.476 -18.957  0.00  0.00    +0.005 C 
ENDBRANCH  12  14
BRANCH  13  16
ATOM     16  C   UNL     1      31.816 -10.261 -22.773  0.00  0.00    +0.026 C 
ATOM     17  C   UNL     1      32.877  -9.164 -22.774  0.00  0.00    +0.005 C 
ENDBRANCH  13  16
ENDBRANCH   2   5
ENDBRANCH   1   2
BRANCH   1  18
ATOM     18  C   UNL     1      35.385 -19.052 -21.846  0.00  0.00    +0.112 C 
BRANCH  18  21
ATOM     19  O   UNL     1      37.080 -22.760 -16.892  0.00  0.00    -0.270 OA
ATOM     20  N   UNL     1      35.155 -22.205 -18.028  0.00  0.00    -0.278 N 
ATOM     21  C   UNL     1      34.628 -19.962 -20.905  0.00  0.00    +0.004 C 
ATOM     22  C   UNL     1      35.273 -20.662 -19.893  0.00  0.00    +0.015 C 
ATOM     23  C   UNL     1      33.256 -20.069 -21.093  0.00  0.00    +0.001 C 
ATOM     24  C   UNL     1      34.515 -21.489 -19.055  0.00  0.00    +0.084 C 
ATOM     25  C   UNL     1      32.508 -20.896 -20.253  0.00  0.00    +0.038 C 
ATOM     26  C   UNL     1      36.714 -20.565 -19.675  0.00  0.00    +0.006 C 
ATOM     27  C   UNL     1      33.136 -21.609 -19.232  0.00  0.00    +0.147 C 
ATOM     28  C   UNL     1      37.302 -21.254 -18.691  0.00  0.00    +0.058 C 
ATOM     29  C   UNL     1      36.514 -22.139 -17.790  0.00  0.00    +0.250 C 
ATOM     30  H   UNL     1      34.606 -22.781 -17.448  0.00  0.00    +0.155 HD
BRANCH  27  31
ATOM     31  O   UNL     1      32.389 -22.411 -18.424  0.00  0.00    -0.504 OA
ATOM     32  H   UNL     1      32.530 -23.337 -18.424  0.00  0.00    +0.292 HD
ENDBRANCH  27  31
ENDBRANCH  18  21
BRANCH  18  33
ATOM     33  O   UNL     1      34.744 -19.095 -23.120  0.00  0.00    -0.382 OA
ATOM     34  H   UNL     1      33.812 -19.340 -23.005  0.00  0.00    +0.211 HD
ENDBRANCH  18  33
ENDBRANCH   1  18
TORSDOF 8
ENDMDL
MODEL 7
REMARK VINA RESULT:     -10.2      5.876     10.693
REMARK  Name = 6918554
REMARK  8 active torsions:
REMARK  status: ('A' for Active; 'I' for Inactive)
REMARK    1  A    between atoms: C_1  and  N_2
REMARK    2  A    between atoms: C_1  and  C_18
REMARK    3  A    between atoms: N_2  and  C_5
REMARK    4  A    between atoms: C_12  and  C_14
REMARK    5  A    between atoms: C_13  and  C_16
REMARK    6  A    between atoms: C_18  and  C_21
REMARK    7  A    between atoms: C_18  and  O_33
REMARK    8  A    between atoms: C_27  and  O_31
REMARK                            x       y       z     vdW  Elec       q    Type
REMARK                         _______ _______ _______ _____ _____    ______ ____
ROOT
ATOM      1  C   UNL     1      33.372 -23.621 -14.454  0.00  0.00    -0.047 C 
ENDROOT
BRANCH   1   2
ATOM      2  N   UNL     1      32.442 -24.017 -15.504  0.00  0.00    +0.387 N 
ATOM      3  H   UNL     1      32.266 -25.019 -15.434  0.00  0.00    -0.084 HD
ATOM      4  H   UNL     1      31.576 -23.492 -15.385  0.00  0.00    -0.084 HD
BRANCH   2   5
ATOM      5  C   UNL     1      32.986 -23.722 -16.821  0.00  0.00    -0.053 C 
ATOM      6  C   UNL     1      32.224 -22.594 -17.548  0.00  0.00    +0.005 C 
ATOM      7  C   UNL     1      34.462 -23.276 -16.761  0.00  0.00    +0.005 C 
ATOM      8  C   UNL     1      33.292 -22.071 -18.457  0.00  0.00    -0.029 C 
ATOM      9  C   UNL     1      34.561 -22.457 -18.010  0.00  0.00    -0.029 C 
ATOM     10  C   UNL     1      33.142 -21.268 -19.576  0.00  0.00    -0.009 C 
ATOM     11  C   UNL     1      35.706 -22.049 -18.673  0.00  0.00    -0.009 C 
ATOM     12  C   UNL     1      34.291 -20.862 -20.258  0.00  0.00    -0.026 C 
ATOM     13  C   UNL     1      35.564 -21.249 -19.810  0.00  0.00    -0.026 C 
BRANCH  12  14
ATOM     14  C   UNL     1      34.140 -20.000 -21.470  0.00  0.00    +0.026 C 
ATOM     15  C   UNL     1      34.437 -18.533 -21.177  0.00  0.00    +0.005 C 
ENDBRANCH  12  14
BRANCH  13  16
ATOM     16  C   UNL     1      36.792 -20.808 -20.537  0.00  0.00    +0.026 C 
ATOM     17  C   UNL     1      37.307 -19.461 -20.038  0.00  0.00    +0.005 C 
ENDBRANCH  13  16
ENDBRANCH   2   5
ENDBRANCH   1   2
BRANCH   1  18
ATOM     18  C   UNL     1      33.886 -24.848 -13.690  0.00  0.00    +0.112 C 
BRANCH  18  21
ATOM     19  O   UNL     1      39.862 -27.019 -14.541  0.00  0.00    -0.270 OA
ATOM     20  N   UNL     1      38.766 -25.538 -13.161  0.00  0.00    -0.278 N 
ATOM     21  C   UNL     1      35.213 -24.568 -13.021  0.00  0.00    +0.004 C 
ATOM     22  C   UNL     1      36.380 -25.203 -13.424  0.00  0.00    +0.015 C 
ATOM     23  C   UNL     1      35.217 -23.646 -11.982  0.00  0.00    +0.001 C 
ATOM     24  C   UNL     1      37.576 -24.901 -12.763  0.00  0.00    +0.084 C 
ATOM     25  C   UNL     1      36.415 -23.351 -11.327  0.00  0.00    +0.038 C 
ATOM     26  C   UNL     1      36.401 -26.175 -14.515  0.00  0.00    +0.006 C 
ATOM     27  C   UNL     1      37.598 -23.978 -11.716  0.00  0.00    +0.147 C 
ATOM     28  C   UNL     1      37.544 -26.768 -14.877  0.00  0.00    +0.058 C 
ATOM     29  C   UNL     1      38.826 -26.461 -14.187  0.00  0.00    +0.250 C 
ATOM     30  H   UNL     1      39.598 -25.312 -12.686  0.00  0.00    +0.155 HD
BRANCH  27  31
ATOM     31  O   UNL     1      38.755 -23.677 -11.065  0.00  0.00    -0.504 OA
ATOM     32  H   UNL     1      39.488 -23.341 -11.543  0.00  0.00    +0.292 HD
ENDBRANCH  27  31
ENDBRANCH  18  21
BRANCH  18  33
ATOM     33  O   UNL     1      32.950 -25.229 -12.683  0.00  0.00    -0.382 OA
ATOM     34  H   UNL     1      33.336 -25.073 -11.806  0.00  0.00    +0.211 HD
ENDBRANCH  18  33
ENDBRANCH   1  18
TORSDOF 8
ENDMDL
MODEL 8
REMARK VINA RESULT:     -10.1      6.592     13.352
REMARK  Name = 6918554
REMARK  8 active torsions:
REMARK  status: ('A' for Active; 'I' for Inactive)
REMARK    1  A    between atoms: C_1  and  N_2
REMARK    2  A    between atoms: C_1  and  C_18
REMARK    3  A    between atoms: N_2  and  C_5
REMARK    4  A    between atoms: C_12  and  C_14
REMARK    5  A    between atoms: C_13  and  C_16
REMARK    6  A    between atoms: C_18  and  C_21
REMARK    7  A    between atoms: C_18  and  O_33
REMARK    8  A    between atoms: C_27  and  O_31
REMARK                            x       y       z     vdW  Elec       q    Type
REMARK                         _______ _______ _______ _____ _____    ______ ____
ROOT
ATOM      1  C   UNL     1      32.326 -11.154 -23.094  0.00  0.00    -0.047 C 
ENDROOT
BRANCH   1   2
ATOM      2  N   UNL     1      31.912 -10.510 -21.854  0.00  0.00    +0.387 N 
ATOM      3  H   UNL     1      31.173 -11.065 -21.422  0.00  0.00    -0.084 HD
ATOM      4  H   UNL     1      32.720 -10.445 -21.236  0.00  0.00    -0.084 HD
BRANCH   2   5
ATOM      5  C   UNL     1      31.412  -9.167 -22.106  0.00  0.00    -0.053 C 
ATOM      6  C   UNL     1      31.916  -8.134 -21.076  0.00  0.00    +0.005 C 
ATOM      7  C   UNL     1      31.829  -8.635 -23.493  0.00  0.00    +0.005 C 
ATOM      8  C   UNL     1      31.842  -6.874 -21.881  0.00  0.00    -0.029 C 
ATOM      9  C   UNL     1      31.793  -7.157 -23.251  0.00  0.00    -0.029 C 
ATOM     10  C   UNL     1      31.865  -5.567 -21.422  0.00  0.00    -0.009 C 
ATOM     11  C   UNL     1      31.765  -6.141 -24.190  0.00  0.00    -0.009 C 
ATOM     12  C   UNL     1      31.824  -4.535 -22.361  0.00  0.00    -0.026 C 
ATOM     13  C   UNL     1      31.774  -4.819 -23.736  0.00  0.00    -0.026 C 
BRANCH  12  14
ATOM     14  C   UNL     1      31.841  -3.121 -21.877  0.00  0.00    +0.026 C 
ATOM     15  C   UNL     1      30.443  -2.604 -21.555  0.00  0.00    +0.005 C 
ENDBRANCH  12  14
BRANCH  13  16
ATOM     16  C   UNL     1      31.737  -3.714 -24.740  0.00  0.00    +0.026 C 
ATOM     17  C   UNL     1      32.980  -3.696 -25.625  0.00  0.00    +0.005 C 
ENDBRANCH  13  16
ENDBRANCH   2   5
ENDBRANCH   1   2
BRANCH   1  18
ATOM     18  C   UNL     1      33.720 -11.777 -22.946  0.00  0.00    +0.112 C 
BRANCH  18  21
ATOM     19  O   UNL     1      35.209 -17.577 -20.644  0.00  0.00    -0.270 OA
ATOM     20  N   UNL     1      34.541 -16.656 -22.646  0.00  0.00    -0.278 N 
ATOM     21  C   UNL     1      33.772 -13.165 -23.544  0.00  0.00    +0.004 C 
ATOM     22  C   UNL     1      34.140 -14.270 -22.787  0.00  0.00    +0.015 C 
ATOM     23  C   UNL     1      33.436 -13.291 -24.886  0.00  0.00    +0.001 C 
ATOM     24  C   UNL     1      34.169 -15.529 -23.400  0.00  0.00    +0.084 C 
ATOM     25  C   UNL     1      33.468 -14.550 -25.489  0.00  0.00    +0.038 C 
ATOM     26  C   UNL     1      34.497 -14.163 -21.375  0.00  0.00    +0.006 C 
ATOM     27  C   UNL     1      33.836 -15.672 -24.748  0.00  0.00    +0.147 C 
ATOM     28  C   UNL     1      34.847 -15.249 -20.676  0.00  0.00    +0.058 C 
ATOM     29  C   UNL     1      34.885 -16.596 -21.309  0.00  0.00    +0.250 C 
ATOM     30  H   UNL     1      34.556 -17.533 -23.093  0.00  0.00    +0.155 HD
BRANCH  27  31
ATOM     31  O   UNL     1      33.862 -16.891 -25.355  0.00  0.00    -0.504 OA
ATOM     32  H   UNL     1      34.465 -17.546 -25.064  0.00  0.00    +0.292 HD
ENDBRANCH  27  31
ENDBRANCH  18  21
BRANCH  18  33
ATOM     33  O   UNL     1      34.694 -10.970 -23.606  0.00  0.00    -0.382 OA
ATOM     34  H   UNL     1      34.832 -10.153 -23.102  0.00  0.00    +0.211 HD
ENDBRANCH  18  33
ENDBRANCH   1  18
TORSDOF 8
ENDMDL
MODEL 9
REMARK VINA RESULT:     -10.1      6.670     13.430
REMARK  Name = 6918554
REMARK  8 active torsions:
REMARK  status: ('A' for Active; 'I' for Inactive)
REMARK    1  A    between atoms: C_1  and  N_2
REMARK    2  A    between atoms: C_1  and  C_18
REMARK    3  A    between atoms: N_2  and  C_5
REMARK    4  A    between atoms: C_12  and  C_14
REMARK    5  A    between atoms: C_13  and  C_16
REMARK    6  A    between atoms: C_18  and  C_21
REMARK    7  A    between atoms: C_18  and  O_33
REMARK    8  A    between atoms: C_27  and  O_31
REMARK                            x       y       z     vdW  Elec       q    Type
REMARK                         _______ _______ _______ _____ _____    ______ ____
ROOT
ATOM      1  C   UNL     1      32.215 -11.322 -23.034  0.00  0.00    -0.047 C 
ENDROOT
BRANCH   1   2
ATOM      2  N   UNL     1      31.890 -10.416 -21.939  0.00  0.00    +0.387 N 
ATOM      3  H   UNL     1      30.881 -10.420 -21.791  0.00  0.00    -0.084 HD
ATOM      4  H   UNL     1      32.377 -10.731 -21.101  0.00  0.00    -0.084 HD
BRANCH   2   5
ATOM      5  C   UNL     1      32.319  -9.059 -22.242  0.00  0.00    -0.053 C 
ATOM      6  C   UNL     1      31.711  -8.513 -23.551  0.00  0.00    +0.005 C 
ATOM      7  C   UNL     1      31.929  -8.058 -21.134  0.00  0.00    +0.005 C 
ATOM      8  C   UNL     1      31.743  -7.040 -23.286  0.00  0.00    -0.029 C 
ATOM      9  C   UNL     1      31.866  -6.782 -21.915  0.00  0.00    -0.029 C 
ATOM     10  C   UNL     1      31.624  -6.006 -24.199  0.00  0.00    -0.009 C 
ATOM     11  C   UNL     1      31.873  -5.485 -21.430  0.00  0.00    -0.009 C 
ATOM     12  C   UNL     1      31.642  -4.694 -23.721  0.00  0.00    -0.026 C 
ATOM     13  C   UNL     1      31.766  -4.435 -22.346  0.00  0.00    -0.026 C 
BRANCH  12  14
ATOM     14  C   UNL     1      31.520  -3.570 -24.699  0.00  0.00    +0.026 C 
ATOM     15  C   UNL     1      32.831  -3.294 -25.428  0.00  0.00    +0.005 C 
ENDBRANCH  12  14
BRANCH  13  16
ATOM     16  C   UNL     1      31.779  -3.032 -21.835  0.00  0.00    +0.026 C 
ATOM     17  C   UNL     1      30.374  -2.511 -21.543  0.00  0.00    +0.005 C 
ENDBRANCH  13  16
ENDBRANCH   2   5
ENDBRANCH   1   2
BRANCH   1  18
ATOM     18  C   UNL     1      33.640 -11.868 -22.886  0.00  0.00    +0.112 C 
BRANCH  18  21
ATOM     19  O   UNL     1      35.288 -17.600 -20.524  0.00  0.00    -0.270 OA
ATOM     20  N   UNL     1      34.647 -16.709 -22.548  0.00  0.00    -0.278 N 
ATOM     21  C   UNL     1      33.767 -13.253 -23.478  0.00  0.00    +0.004 C 
ATOM     22  C   UNL     1      34.155 -14.342 -22.708  0.00  0.00    +0.015 C 
ATOM     23  C   UNL     1      33.479 -13.394 -24.830  0.00  0.00    +0.001 C 
ATOM     24  C   UNL     1      34.254 -15.598 -23.316  0.00  0.00    +0.084 C 
ATOM     25  C   UNL     1      33.581 -14.651 -25.429  0.00  0.00    +0.038 C 
ATOM     26  C   UNL     1      34.462 -14.218 -21.285  0.00  0.00    +0.006 C 
ATOM     27  C   UNL     1      33.970 -15.757 -24.673  0.00  0.00    +0.147 C 
ATOM     28  C   UNL     1      34.833 -15.289 -20.573  0.00  0.00    +0.058 C 
ATOM     29  C   UNL     1      34.946 -16.633 -21.201  0.00  0.00    +0.250 C 
ATOM     30  H   UNL     1      34.711 -17.585 -22.992  0.00  0.00    +0.155 HD
BRANCH  27  31
ATOM     31  O   UNL     1      34.064 -16.974 -25.276  0.00  0.00    -0.504 OA
ATOM     32  H   UNL     1      34.397 -17.039 -26.150  0.00  0.00    +0.292 HD
ENDBRANCH  27  31
ENDBRANCH  18  21
BRANCH  18  33
ATOM     33  O   UNL     1      34.567 -11.012 -23.551  0.00  0.00    -0.382 OA
ATOM     34  H   UNL     1      34.803 -10.273 -22.967  0.00  0.00    +0.211 HD
ENDBRANCH  18  33
ENDBRANCH   1  18
TORSDOF 8
ENDMDL
