MODEL 1
REMARK VINA RESULT:     -11.6      0.000      0.000
REMARK  Name = 5288708
REMARK  4 active torsions:
REMARK  status: ('A' for Active; 'I' for Inactive)
REMARK    1  A    between atoms: N_1  and  C_9
REMARK    2  A    between atoms: N_1  and  C_16
REMARK    3  A    between atoms: C_15  and  S_21
REMARK    4  A    between atoms: S_21  and  N_24
REMARK                            x       y       z     vdW  Elec       q    Type
REMARK                         _______ _______ _______ _____ _____    ______ ____
ROOT
ATOM      1  N   UNL     1      36.004 -18.909 -21.554  0.00  0.00    -0.311 N 
ATOM      2  H   UNL     1      36.805 -19.179 -22.058  0.00  0.00    +0.152 HD
ENDROOT
BRANCH   1   9
ATOM      3  O   UNL     1      34.739 -19.090 -24.157  0.00  0.00    -0.270 OA
ATOM      4  N   UNL     1      33.901 -16.976 -24.799  0.00  0.00    -0.280 N 
ATOM      5  C   UNL     1      34.519 -15.724 -22.972  0.00  0.00    +0.019 C 
ATOM      6  C   UNL     1      34.954 -17.101 -22.769  0.00  0.00    +0.069 C 
ATOM      7  C   UNL     1      33.886 -15.703 -24.218  0.00  0.00    +0.051 C 
ATOM      8  C   UNL     1      34.544 -17.903 -23.971  0.00  0.00    +0.251 C 
ATOM      9  C   UNL     1      35.606 -17.623 -21.729  0.00  0.00    +0.066 C 
ATOM     10  C   UNL     1      34.622 -14.572 -22.214  0.00  0.00    +0.001 C 
ATOM     11  C   UNL     1      33.339 -14.552 -24.751  0.00  0.00    +0.015 C 
ATOM     12  C   UNL     1      34.074 -13.395 -22.735  0.00  0.00    +0.000 C 
ATOM     13  C   UNL     1      33.440 -13.385 -23.992  0.00  0.00    +0.001 C 
ATOM     14  H   UNL     1      33.512 -17.191 -25.677  0.00  0.00    +0.155 HD
ENDBRANCH   1   9
BRANCH   1  16
ATOM     15  C   UNL     1      34.275 -21.883 -19.144  0.00  0.00    +0.122 C 
ATOM     16  C   UNL     1      35.426 -19.903 -20.748  0.00  0.00    +0.048 C 
ATOM     17  C   UNL     1      35.661 -21.735 -19.183  0.00  0.00    +0.021 C 
ATOM     18  C   UNL     1      33.462 -21.042 -19.906  0.00  0.00    +0.021 C 
ATOM     19  C   UNL     1      36.235 -20.747 -19.983  0.00  0.00    +0.016 C 
ATOM     20  C   UNL     1      34.036 -20.055 -20.706  0.00  0.00    +0.016 C 
BRANCH  15  21
ATOM     21  S   UNL     1      33.555 -23.119 -18.144  0.00  0.00    +0.060 S 
ATOM     22  O   UNL     1      32.238 -22.668 -17.714  0.00  0.00    -0.153 OA
ATOM     23  O   UNL     1      33.681 -24.389 -18.848  0.00  0.00    -0.153 OA
BRANCH  21  24
ATOM     24  N   UNL     1      34.594 -23.144 -16.785  0.00  0.00    -0.178 NA
ATOM     25  C   UNL     1      34.076 -23.567 -15.477  0.00  0.00    +0.110 C 
ATOM     26  H   UNL     1      34.950 -22.196 -16.669  0.00  0.00    +0.149 HD
ENDBRANCH  21  24
ENDBRANCH  15  21
ENDBRANCH   1  16
TORSDOF 4
ENDMDL
MODEL 2
REMARK VINA RESULT:     -11.4      1.472      1.874
REMARK  Name = 5288708
REMARK  4 active torsions:
REMARK  status: ('A' for Active; 'I' for Inactive)
REMARK    1  A    between atoms: N_1  and  C_9
REMARK    2  A    between atoms: N_1  and  C_16
REMARK    3  A    between atoms: C_15  and  S_21
REMARK    4  A    between atoms: S_21  and  N_24
REMARK                            x       y       z     vdW  Elec       q    Type
REMARK                         _______ _______ _______ _____ _____    ______ ____
ROOT
ATOM      1  N   UNL     1      36.136 -18.678 -21.527  0.00  0.00    -0.311 N 
ATOM      2  H   UNL     1      37.074 -18.477 -21.312  0.00  0.00    +0.152 HD
ENDROOT
BRANCH   1   9
ATOM      3  O   UNL     1      35.188 -16.413 -19.984  0.00  0.00    -0.270 OA
ATOM      4  N   UNL     1      34.143 -14.844 -21.407  0.00  0.00    -0.280 N 
ATOM      5  C   UNL     1      34.383 -15.909 -23.431  0.00  0.00    +0.019 C 
ATOM      6  C   UNL     1      34.981 -16.735 -22.388  0.00  0.00    +0.069 C 
ATOM      7  C   UNL     1      33.890 -14.774 -22.781  0.00  0.00    +0.051 C 
ATOM      8  C   UNL     1      34.814 -16.025 -21.075  0.00  0.00    +0.251 C 
ATOM      9  C   UNL     1      35.582 -17.920 -22.508  0.00  0.00    +0.066 C 
ATOM     10  C   UNL     1      34.244 -16.055 -24.799  0.00  0.00    +0.001 C 
ATOM     11  C   UNL     1      33.248 -13.754 -23.458  0.00  0.00    +0.015 C 
ATOM     12  C   UNL     1      33.598 -15.034 -25.504  0.00  0.00    +0.000 C 
ATOM     13  C   UNL     1      33.104 -13.895 -24.840  0.00  0.00    +0.001 C 
ATOM     14  H   UNL     1      33.881 -14.151 -20.758  0.00  0.00    +0.155 HD
ENDBRANCH   1   9
BRANCH   1  16
ATOM     15  C   UNL     1      34.368 -21.760 -19.287  0.00  0.00    +0.122 C 
ATOM     16  C   UNL     1      35.545 -19.708 -20.778  0.00  0.00    +0.048 C 
ATOM     17  C   UNL     1      35.755 -21.611 -19.296  0.00  0.00    +0.021 C 
ATOM     18  C   UNL     1      33.568 -20.884 -20.022  0.00  0.00    +0.021 C 
ATOM     19  C   UNL     1      36.342 -20.587 -20.040  0.00  0.00    +0.016 C 
ATOM     20  C   UNL     1      34.155 -19.861 -20.766  0.00  0.00    +0.016 C 
BRANCH  15  21
ATOM     21  S   UNL     1      33.633 -23.041 -18.357  0.00  0.00    +0.060 S 
ATOM     22  O   UNL     1      32.306 -22.612 -17.935  0.00  0.00    -0.153 OA
ATOM     23  O   UNL     1      33.777 -24.278 -19.114  0.00  0.00    -0.153 OA
BRANCH  21  24
ATOM     24  N   UNL     1      34.644 -23.124 -16.981  0.00  0.00    -0.178 NA
ATOM     25  C   UNL     1      34.137 -23.718 -15.736  0.00  0.00    +0.110 C 
ATOM     26  H   UNL     1      34.920 -22.168 -16.760  0.00  0.00    +0.149 HD
ENDBRANCH  21  24
ENDBRANCH  15  21
ENDBRANCH   1  16
TORSDOF 4
ENDMDL
MODEL 3
REMARK VINA RESULT:     -10.8      2.656      9.209
REMARK  Name = 5288708
REMARK  4 active torsions:
REMARK  status: ('A' for Active; 'I' for Inactive)
REMARK    1  A    between atoms: N_1  and  C_9
REMARK    2  A    between atoms: N_1  and  C_16
REMARK    3  A    between atoms: C_15  and  S_21
REMARK    4  A    between atoms: S_21  and  N_24
REMARK                            x       y       z     vdW  Elec       q    Type
REMARK                         _______ _______ _______ _____ _____    ______ ____
ROOT
ATOM      1  N   UNL     1      34.182 -23.253 -18.577  0.00  0.00    -0.311 N 
ATOM      2  H   UNL     1      34.723 -24.053 -18.762  0.00  0.00    +0.152 HD
ENDROOT
BRANCH   1   9
ATOM      3  O   UNL     1      35.693 -23.262 -16.102  0.00  0.00    -0.270 OA
ATOM      4  N   UNL     1      34.233 -23.528 -14.264  0.00  0.00    -0.280 N 
ATOM      5  C   UNL     1      32.218 -23.661 -15.363  0.00  0.00    +0.019 C 
ATOM      6  C   UNL     1      33.281 -23.489 -16.346  0.00  0.00    +0.069 C 
ATOM      7  C   UNL     1      32.850 -23.677 -14.116  0.00  0.00    +0.051 C 
ATOM      8  C   UNL     1      34.589 -23.405 -15.611  0.00  0.00    +0.251 C 
ATOM      9  C   UNL     1      33.182 -23.414 -17.674  0.00  0.00    +0.066 C 
ATOM     10  C   UNL     1      30.845 -23.794 -15.459  0.00  0.00    +0.001 C 
ATOM     11  C   UNL     1      32.151 -23.826 -12.934  0.00  0.00    +0.015 C 
ATOM     12  C   UNL     1      30.117 -23.945 -14.274  0.00  0.00    +0.000 C 
ATOM     13  C   UNL     1      30.765 -23.961 -13.023  0.00  0.00    +0.001 C 
ATOM     14  H   UNL     1      34.874 -23.512 -13.516  0.00  0.00    +0.155 HD
ENDBRANCH   1   9
BRANCH   1  16
ATOM     15  C   UNL     1      35.268 -19.790 -20.694  0.00  0.00    +0.122 C 
ATOM     16  C   UNL     1      34.545 -22.095 -19.285  0.00  0.00    +0.048 C 
ATOM     17  C   UNL     1      36.252 -20.590 -20.111  0.00  0.00    +0.021 C 
ATOM     18  C   UNL     1      33.923 -20.143 -20.574  0.00  0.00    +0.021 C 
ATOM     19  C   UNL     1      35.891 -21.740 -19.408  0.00  0.00    +0.016 C 
ATOM     20  C   UNL     1      33.562 -21.292 -19.871  0.00  0.00    +0.016 C 
BRANCH  15  21
ATOM     21  S   UNL     1      35.718 -18.351 -21.572  0.00  0.00    +0.060 S 
ATOM     22  O   UNL     1      35.269 -17.184 -20.824  0.00  0.00    -0.153 OA
ATOM     23  O   UNL     1      37.126 -18.471 -21.930  0.00  0.00    -0.153 OA
BRANCH  21  24
ATOM     24  N   UNL     1      34.781 -18.481 -22.997  0.00  0.00    -0.178 NA
ATOM     25  C   UNL     1      34.698 -17.344 -23.924  0.00  0.00    +0.110 C 
ATOM     26  H   UNL     1      33.828 -18.693 -22.705  0.00  0.00    +0.149 HD
ENDBRANCH  21  24
ENDBRANCH  15  21
ENDBRANCH   1  16
TORSDOF 4
ENDMDL
MODEL 4
REMARK VINA RESULT:     -10.7      3.648      6.273
REMARK  Name = 5288708
REMARK  4 active torsions:
REMARK  status: ('A' for Active; 'I' for Inactive)
REMARK    1  A    between atoms: N_1  and  C_9
REMARK    2  A    between atoms: N_1  and  C_16
REMARK    3  A    between atoms: C_15  and  S_21
REMARK    4  A    between atoms: S_21  and  N_24
REMARK                            x       y       z     vdW  Elec       q    Type
REMARK                         _______ _______ _______ _____ _____    ______ ____
ROOT
ATOM      1  N   UNL     1      35.070 -22.938 -17.316  0.00  0.00    -0.311 N 
ATOM      2  H   UNL     1      34.333 -23.484 -17.672  0.00  0.00    +0.152 HD
ENDROOT
BRANCH   1   9
ATOM      3  O   UNL     1      32.754 -22.189 -18.893  0.00  0.00    -0.270 OA
ATOM      4  N   UNL     1      33.379 -20.641 -20.564  0.00  0.00    -0.280 N 
ATOM      5  C   UNL     1      35.629 -20.458 -20.127  0.00  0.00    +0.019 C 
ATOM      6  C   UNL     1      35.038 -21.394 -19.177  0.00  0.00    +0.069 C 
ATOM      7  C   UNL     1      34.579 -20.031 -20.945  0.00  0.00    +0.051 C 
ATOM      8  C   UNL     1      33.570 -21.501 -19.478  0.00  0.00    +0.251 C 
ATOM      9  C   UNL     1      35.635 -22.069 -18.194  0.00  0.00    +0.066 C 
ATOM     10  C   UNL     1      36.913 -19.984 -20.322  0.00  0.00    +0.001 C 
ATOM     11  C   UNL     1      34.763 -19.128 -21.975  0.00  0.00    +0.015 C 
ATOM     12  C   UNL     1      37.122 -19.068 -21.359  0.00  0.00    +0.000 C 
ATOM     13  C   UNL     1      36.057 -18.645 -22.178  0.00  0.00    +0.001 C 
ATOM     14  H   UNL     1      32.512 -20.485 -21.004  0.00  0.00    +0.155 HD
ENDBRANCH   1   9
BRANCH   1  16
ATOM     15  C   UNL     1      36.058 -23.603 -13.288  0.00  0.00    +0.122 C 
ATOM     16  C   UNL     1      35.401 -23.160 -15.970  0.00  0.00    +0.048 C 
ATOM     17  C   UNL     1      34.754 -23.821 -13.732  0.00  0.00    +0.021 C 
ATOM     18  C   UNL     1      37.035 -23.165 -14.184  0.00  0.00    +0.021 C 
ATOM     19  C   UNL     1      34.426 -23.600 -15.070  0.00  0.00    +0.016 C 
ATOM     20  C   UNL     1      36.707 -22.944 -15.521  0.00  0.00    +0.016 C 
BRANCH  15  21
ATOM     21  S   UNL     1      36.469 -23.879 -11.615  0.00  0.00    +0.060 S 
ATOM     22  O   UNL     1      37.159 -22.702 -11.101  0.00  0.00    -0.153 OA
ATOM     23  O   UNL     1      35.272 -24.357 -10.936  0.00  0.00    -0.153 OA
BRANCH  21  24
ATOM     24  N   UNL     1      37.589 -25.167 -11.718  0.00  0.00    -0.178 NA
ATOM     25  C   UNL     1      37.190 -26.434 -12.347  0.00  0.00    +0.110 C 
ATOM     26  H   UNL     1      37.872 -25.388 -10.764  0.00  0.00    +0.149 HD
ENDBRANCH  21  24
ENDBRANCH  15  21
ENDBRANCH   1  16
TORSDOF 4
ENDMDL
MODEL 5
REMARK VINA RESULT:     -10.3      3.638      8.464
REMARK  Name = 5288708
REMARK  4 active torsions:
REMARK  status: ('A' for Active; 'I' for Inactive)
REMARK    1  A    between atoms: N_1  and  C_9
REMARK    2  A    between atoms: N_1  and  C_16
REMARK    3  A    between atoms: C_15  and  S_21
REMARK    4  A    between atoms: S_21  and  N_24
REMARK                            x       y       z     vdW  Elec       q    Type
REMARK                         _______ _______ _______ _____ _____    ______ ____
ROOT
ATOM      1  N   UNL     1      35.441 -18.702 -22.685  0.00  0.00    -0.311 N 
ATOM      2  H   UNL     1      36.259 -18.992 -23.150  0.00  0.00    +0.152 HD
ENDROOT
BRANCH   1   9
ATOM      3  O   UNL     1      37.655 -19.040 -20.842  0.00  0.00    -0.270 OA
ATOM      4  N   UNL     1      37.067 -20.576 -19.145  0.00  0.00    -0.280 N 
ATOM      5  C   UNL     1      34.923 -21.097 -19.794  0.00  0.00    +0.019 C 
ATOM      6  C   UNL     1      35.482 -20.133 -20.736  0.00  0.00    +0.069 C 
ATOM      7  C   UNL     1      35.927 -21.330 -18.849  0.00  0.00    +0.051 C 
ATOM      8  C   UNL     1      36.881 -19.806 -20.299  0.00  0.00    +0.251 C 
ATOM      9  C   UNL     1      34.909 -19.599 -21.816  0.00  0.00    +0.066 C 
ATOM     10  C   UNL     1      33.703 -21.738 -19.700  0.00  0.00    +0.001 C 
ATOM     11  C   UNL     1      35.757 -22.199 -17.789  0.00  0.00    +0.015 C 
ATOM     12  C   UNL     1      33.509 -22.623 -18.633  0.00  0.00    +0.000 C 
ATOM     13  C   UNL     1      34.527 -22.851 -17.687  0.00  0.00    +0.001 C 
ATOM     14  H   UNL     1      37.895 -20.586 -18.612  0.00  0.00    +0.155 HD
ENDBRANCH   1   9
BRANCH   1  16
ATOM     15  C   UNL     1      34.058 -14.856 -23.656  0.00  0.00    +0.122 C 
ATOM     16  C   UNL     1      34.979 -17.416 -23.009  0.00  0.00    +0.048 C 
ATOM     17  C   UNL     1      34.019 -15.874 -24.609  0.00  0.00    +0.021 C 
ATOM     18  C   UNL     1      34.556 -15.117 -22.379  0.00  0.00    +0.021 C 
ATOM     19  C   UNL     1      34.478 -17.151 -24.287  0.00  0.00    +0.016 C 
ATOM     20  C   UNL     1      35.016 -16.394 -22.056  0.00  0.00    +0.016 C 
BRANCH  15  21
ATOM     21  S   UNL     1      33.485 -13.258 -24.059  0.00  0.00    +0.060 S 
ATOM     22  O   UNL     1      34.531 -12.292 -23.750  0.00  0.00    -0.153 OA
ATOM     23  O   UNL     1      32.936 -13.310 -25.408  0.00  0.00    -0.153 OA
BRANCH  21  24
ATOM     24  N   UNL     1      32.197 -13.040 -22.956  0.00  0.00    -0.178 NA
ATOM     25  C   UNL     1      32.074 -11.776 -22.215  0.00  0.00    +0.110 C 
ATOM     26  H   UNL     1      32.275 -13.782 -22.261  0.00  0.00    +0.149 HD
ENDBRANCH  21  24
ENDBRANCH  15  21
ENDBRANCH   1  16
TORSDOF 4
ENDMDL
MODEL 6
REMARK VINA RESULT:      -9.9      2.602      9.473
REMARK  Name = 5288708
REMARK  4 active torsions:
REMARK  status: ('A' for Active; 'I' for Inactive)
REMARK    1  A    between atoms: N_1  and  C_9
REMARK    2  A    between atoms: N_1  and  C_16
REMARK    3  A    between atoms: C_15  and  S_21
REMARK    4  A    between atoms: S_21  and  N_24
REMARK                            x       y       z     vdW  Elec       q    Type
REMARK                         _______ _______ _______ _____ _____    ______ ____
ROOT
ATOM      1  N   UNL     1      33.493 -22.804 -18.598  0.00  0.00    -0.311 N 
ATOM      2  H   UNL     1      32.675 -23.246 -18.918  0.00  0.00    +0.152 HD
ENDROOT
BRANCH   1   9
ATOM      3  O   UNL     1      31.145 -22.755 -16.897  0.00  0.00    -0.270 OA
ATOM      4  N   UNL     1      31.689 -23.563 -14.744  0.00  0.00    -0.280 N 
ATOM      5  C   UNL     1      33.923 -24.021 -15.035  0.00  0.00    +0.019 C 
ATOM      6  C   UNL     1      33.381 -23.498 -16.284  0.00  0.00    +0.069 C 
ATOM      7  C   UNL     1      32.854 -24.039 -14.135  0.00  0.00    +0.051 C 
ATOM      8  C   UNL     1      31.924 -23.204 -16.076  0.00  0.00    +0.251 C 
ATOM      9  C   UNL     1      34.012 -23.291 -17.442  0.00  0.00    +0.066 C 
ATOM     10  C   UNL     1      35.179 -24.450 -14.648  0.00  0.00    +0.001 C 
ATOM     11  C   UNL     1      32.991 -24.479 -12.832  0.00  0.00    +0.015 C 
ATOM     12  C   UNL     1      35.341 -24.900 -13.333  0.00  0.00    +0.000 C 
ATOM     13  C   UNL     1      34.257 -24.914 -12.434  0.00  0.00    +0.001 C 
ATOM     14  H   UNL     1      30.816 -23.488 -14.294  0.00  0.00    +0.155 HD
ENDBRANCH   1   9
BRANCH   1  16
ATOM     15  C   UNL     1      34.918 -19.656 -20.987  0.00  0.00    +0.122 C 
ATOM     16  C   UNL     1      33.970 -21.751 -19.396  0.00  0.00    +0.048 C 
ATOM     17  C   UNL     1      33.545 -19.858 -20.844  0.00  0.00    +0.021 C 
ATOM     18  C   UNL     1      35.818 -20.499 -20.334  0.00  0.00    +0.021 C 
ATOM     19  C   UNL     1      33.072 -20.903 -20.051  0.00  0.00    +0.016 C 
ATOM     20  C   UNL     1      35.345 -21.545 -19.541  0.00  0.00    +0.016 C 
BRANCH  15  21
ATOM     21  S   UNL     1      35.510 -18.348 -21.980  0.00  0.00    +0.060 S 
ATOM     22  O   UNL     1      35.142 -17.083 -21.358  0.00  0.00    -0.153 OA
ATOM     23  O   UNL     1      36.911 -18.617 -22.277  0.00  0.00    -0.153 OA
BRANCH  21  24
ATOM     24  N   UNL     1      34.602 -18.536 -23.416  0.00  0.00    -0.178 NA
ATOM     25  C   UNL     1      34.435 -17.397 -24.330  0.00  0.00    +0.110 C 
ATOM     26  H   UNL     1      33.666 -18.830 -23.138  0.00  0.00    +0.149 HD
ENDBRANCH  21  24
ENDBRANCH  15  21
ENDBRANCH   1  16
TORSDOF 4
ENDMDL
MODEL 7
REMARK VINA RESULT:      -9.8      4.034      6.545
REMARK  Name = 5288708
REMARK  4 active torsions:
REMARK  status: ('A' for Active; 'I' for Inactive)
REMARK    1  A    between atoms: N_1  and  C_9
REMARK    2  A    between atoms: N_1  and  C_16
REMARK    3  A    between atoms: C_15  and  S_21
REMARK    4  A    between atoms: S_21  and  N_24
REMARK                            x       y       z     vdW  Elec       q    Type
REMARK                         _______ _______ _______ _____ _____    ______ ____
ROOT
ATOM      1  N   UNL     1      33.262 -13.492 -23.819  0.00  0.00    -0.311 N 
ATOM      2  H   UNL     1      32.323 -13.526 -24.112  0.00  0.00    +0.152 HD
ENDROOT
BRANCH   1   9
ATOM      3  O   UNL     1      31.355 -12.016 -22.209  0.00  0.00    -0.270 OA
ATOM      4  N   UNL     1      32.050  -9.769 -21.988  0.00  0.00    -0.280 N 
ATOM      5  C   UNL     1      33.996  -9.824 -23.213  0.00  0.00    +0.019 C 
ATOM      6  C   UNL     1      33.393 -11.153 -23.222  0.00  0.00    +0.069 C 
ATOM      7  C   UNL     1      33.141  -9.024 -22.449  0.00  0.00    +0.051 C 
ATOM      8  C   UNL     1      32.125 -11.098 -22.420  0.00  0.00    +0.251 C 
ATOM      9  C   UNL     1      33.834 -12.261 -23.819  0.00  0.00    +0.066 C 
ATOM     10  C   UNL     1      35.143  -9.296 -23.773  0.00  0.00    +0.001 C 
ATOM     11  C   UNL     1      33.391  -7.685 -22.217  0.00  0.00    +0.015 C 
ATOM     12  C   UNL     1      35.417  -7.942 -23.550  0.00  0.00    +0.000 C 
ATOM     13  C   UNL     1      34.548  -7.144 -22.780  0.00  0.00    +0.001 C 
ATOM     14  H   UNL     1      31.324  -9.405 -21.432  0.00  0.00    +0.155 HD
ENDBRANCH   1   9
BRANCH   1  16
ATOM     15  C   UNL     1      34.969 -17.175 -22.739  0.00  0.00    +0.122 C 
ATOM     16  C   UNL     1      33.833 -14.723 -23.458  0.00  0.00    +0.048 C 
ATOM     17  C   UNL     1      34.511 -16.973 -24.040  0.00  0.00    +0.021 C 
ATOM     18  C   UNL     1      34.861 -16.152 -21.795  0.00  0.00    +0.021 C 
ATOM     19  C   UNL     1      33.944 -15.750 -24.399  0.00  0.00    +0.016 C 
ATOM     20  C   UNL     1      34.294 -14.929 -22.154  0.00  0.00    +0.016 C 
BRANCH  15  21
ATOM     21  S   UNL     1      35.678 -18.705 -22.289  0.00  0.00    +0.060 S 
ATOM     22  O   UNL     1      35.233 -19.724 -23.232  0.00  0.00    -0.153 OA
ATOM     23  O   UNL     1      37.105 -18.492 -22.090  0.00  0.00    -0.153 OA
BRANCH  21  24
ATOM     24  N   UNL     1      34.956 -19.014 -20.770  0.00  0.00    -0.178 NA
ATOM     25  C   UNL     1      34.098 -20.194 -20.594  0.00  0.00    +0.110 C 
ATOM     26  H   UNL     1      34.385 -18.199 -20.544  0.00  0.00    +0.149 HD
ENDBRANCH  21  24
ENDBRANCH  15  21
ENDBRANCH   1  16
TORSDOF 4
ENDMDL
MODEL 8
REMARK VINA RESULT:      -9.8      3.653      5.648
REMARK  Name = 5288708
REMARK  4 active torsions:
REMARK  status: ('A' for Active; 'I' for Inactive)
REMARK    1  A    between atoms: N_1  and  C_9
REMARK    2  A    between atoms: N_1  and  C_16
REMARK    3  A    between atoms: C_15  and  S_21
REMARK    4  A    between atoms: S_21  and  N_24
REMARK                            x       y       z     vdW  Elec       q    Type
REMARK                         _______ _______ _______ _____ _____    ______ ____
ROOT
ATOM      1  N   UNL     1      34.396 -23.226 -18.382  0.00  0.00    -0.311 N 
ATOM      2  H   UNL     1      35.093 -23.913 -18.484  0.00  0.00    +0.152 HD
ENDROOT
BRANCH   1   9
ATOM      3  O   UNL     1      36.892 -21.818 -17.941  0.00  0.00    -0.270 OA
ATOM      4  N   UNL     1      37.135 -20.083 -19.526  0.00  0.00    -0.280 N 
ATOM      5  C   UNL     1      35.185 -20.347 -20.717  0.00  0.00    +0.019 C 
ATOM      6  C   UNL     1      35.233 -21.352 -19.660  0.00  0.00    +0.069 C 
ATOM      7  C   UNL     1      36.363 -19.605 -20.591  0.00  0.00    +0.051 C 
ATOM      8  C   UNL     1      36.511 -21.163 -18.893  0.00  0.00    +0.251 C 
ATOM      9  C   UNL     1      34.337 -22.296 -19.370  0.00  0.00    +0.066 C 
ATOM     10  C   UNL     1      34.267 -20.050 -21.707  0.00  0.00    +0.001 C 
ATOM     11  C   UNL     1      36.668 -18.552 -21.432  0.00  0.00    +0.015 C 
ATOM     12  C   UNL     1      34.556 -18.988 -22.570  0.00  0.00    +0.000 C 
ATOM     13  C   UNL     1      35.745 -18.246 -22.433  0.00  0.00    +0.001 C 
ATOM     14  H   UNL     1      38.004 -19.707 -19.257  0.00  0.00    +0.155 HD
ENDBRANCH   1   9
BRANCH   1  16
ATOM     15  C   UNL     1      32.002 -23.553 -14.946  0.00  0.00    +0.122 C 
ATOM     16  C   UNL     1      33.596 -23.335 -17.233  0.00  0.00    +0.048 C 
ATOM     17  C   UNL     1      33.356 -23.885 -14.888  0.00  0.00    +0.021 C 
ATOM     18  C   UNL     1      31.444 -23.111 -16.146  0.00  0.00    +0.021 C 
ATOM     19  C   UNL     1      34.151 -23.776 -16.029  0.00  0.00    +0.016 C 
ATOM     20  C   UNL     1      32.239 -23.003 -17.288  0.00  0.00    +0.016 C 
BRANCH  15  21
ATOM     21  S   UNL     1      31.007 -23.690 -13.519  0.00  0.00    +0.060 S 
ATOM     22  O   UNL     1      31.815 -23.365 -12.350  0.00  0.00    -0.153 OA
ATOM     23  O   UNL     1      29.775 -22.950 -13.764  0.00  0.00    -0.153 OA
BRANCH  21  24
ATOM     24  N   UNL     1      30.641 -25.360 -13.483  0.00  0.00    -0.178 NA
ATOM     25  C   UNL     1      29.786 -25.943 -14.527  0.00  0.00    +0.110 C 
ATOM     26  H   UNL     1      30.182 -25.542 -12.591  0.00  0.00    +0.149 HD
ENDBRANCH  21  24
ENDBRANCH  15  21
ENDBRANCH   1  16
TORSDOF 4
ENDMDL
MODEL 9
REMARK VINA RESULT:      -9.7      2.497      9.750
REMARK  Name = 5288708
REMARK  4 active torsions:
REMARK  status: ('A' for Active; 'I' for Inactive)
REMARK    1  A    between atoms: N_1  and  C_9
REMARK    2  A    between atoms: N_1  and  C_16
REMARK    3  A    between atoms: C_15  and  S_21
REMARK    4  A    between atoms: S_21  and  N_24
REMARK                            x       y       z     vdW  Elec       q    Type
REMARK                         _______ _______ _______ _____ _____    ______ ____
ROOT
ATOM      1  N   UNL     1      34.078 -22.990 -17.663  0.00  0.00    -0.311 N 
ATOM      2  H   UNL     1      33.186 -23.404 -17.706  0.00  0.00    +0.152 HD
ENDROOT
BRANCH   1   9
ATOM      3  O   UNL     1      32.136 -23.153 -15.515  0.00  0.00    -0.270 OA
ATOM      4  N   UNL     1      33.188 -23.869 -13.525  0.00  0.00    -0.280 N 
ATOM      5  C   UNL     1      35.351 -24.105 -14.271  0.00  0.00    +0.019 C 
ATOM      6  C   UNL     1      34.514 -23.658 -15.380  0.00  0.00    +0.069 C 
ATOM      7  C   UNL     1      34.496 -24.218 -13.171  0.00  0.00    +0.051 C 
ATOM      8  C   UNL     1      33.108 -23.508 -14.874  0.00  0.00    +0.251 C 
ATOM      9  C   UNL     1      34.869 -23.406 -16.641  0.00  0.00    +0.066 C 
ATOM     10  C   UNL     1      36.696 -24.400 -14.153  0.00  0.00    +0.001 C 
ATOM     11  C   UNL     1      34.941 -24.622 -11.927  0.00  0.00    +0.015 C 
ATOM     12  C   UNL     1      37.168 -24.812 -12.903  0.00  0.00    +0.000 C 
ATOM     13  C   UNL     1      36.299 -24.921 -11.800  0.00  0.00    +0.001 C 
ATOM     14  H   UNL     1      32.424 -23.876 -12.905  0.00  0.00    +0.155 HD
ENDBRANCH   1   9
BRANCH   1  16
ATOM     15  C   UNL     1      34.933 -20.171 -20.656  0.00  0.00    +0.122 C 
ATOM     16  C   UNL     1      34.364 -22.048 -18.664  0.00  0.00    +0.048 C 
ATOM     17  C   UNL     1      35.973 -20.800 -19.973  0.00  0.00    +0.021 C 
ATOM     18  C   UNL     1      33.607 -20.479 -20.346  0.00  0.00    +0.021 C 
ATOM     19  C   UNL     1      35.689 -21.737 -18.979  0.00  0.00    +0.016 C 
ATOM     20  C   UNL     1      33.324 -21.415 -19.351  0.00  0.00    +0.016 C 
BRANCH  15  21
ATOM     21  S   UNL     1      35.287 -18.999 -21.900  0.00  0.00    +0.060 S 
ATOM     22  O   UNL     1      36.694 -19.111 -22.264  0.00  0.00    -0.153 OA
ATOM     23  O   UNL     1      34.269 -19.128 -22.935  0.00  0.00    -0.153 OA
BRANCH  21  24
ATOM     24  N   UNL     1      35.051 -17.514 -21.085  0.00  0.00    -0.178 NA
ATOM     25  C   UNL     1      34.996 -16.260 -21.850  0.00  0.00    +0.110 C 
ATOM     26  H   UNL     1      35.816 -17.419 -20.418  0.00  0.00    +0.149 HD
ENDBRANCH  21  24
ENDBRANCH  15  21
ENDBRANCH   1  16
TORSDOF 4
ENDMDL
