MODEL 1
REMARK VINA RESULT:     -12.7      0.000      0.000
REMARK  Name = 10138993
REMARK  4 active torsions:
REMARK  status: ('A' for Active; 'I' for Inactive)
REMARK    1  A    between atoms: C_5  and  N_18
REMARK    2  A    between atoms: C_12  and  C_22
REMARK    3  A    between atoms: C_22  and  C_26
REMARK    4  A    between atoms: C_23  and  N_29
REMARK                            x       y       z     vdW  Elec       q    Type
REMARK                         _______ _______ _______ _____ _____    ______ ____
ROOT
ATOM      1  O   UNL     1      33.364 -21.309 -20.372  0.00  0.00    -0.274 OA
ATOM      2  N   UNL     1      32.288 -23.434 -16.908  0.00  0.00    -0.275 N 
ATOM      3  N   UNL     1      34.817 -21.836 -18.603  0.00  0.00    -0.268 N 
ATOM      4  N   UNL     1      32.703 -22.750 -17.987  0.00  0.00    -0.157 NA
ATOM      5  C   UNL     1      35.602 -23.767 -14.520  0.00  0.00    +0.069 C 
ATOM      6  C   UNL     1      35.605 -23.113 -15.758  0.00  0.00    +0.020 C 
ATOM      7  C   UNL     1      34.437 -24.353 -14.021  0.00  0.00    +0.018 C 
ATOM      8  C   UNL     1      34.409 -23.060 -16.493  0.00  0.00    +0.052 A 
ATOM      9  C   UNL     1      33.264 -23.654 -15.973  0.00  0.00    +0.077 A 
ATOM     10  C   UNL     1      33.238 -24.310 -14.741  0.00  0.00    +0.020 C 
ATOM     11  C   UNL     1      33.983 -22.533 -17.720  0.00  0.00    +0.155 A 
ATOM     12  C   UNL     1      34.465 -21.287 -19.833  0.00  0.00    +0.232 C 
ATOM     13  H   UNL     1      31.363 -23.752 -16.799  0.00  0.00    +0.189 HD
ATOM     14  H   UNL     1      35.754 -21.723 -18.324  0.00  0.00    +0.156 HD
ENDROOT
BRANCH   5  18
ATOM     15  S   UNL     1      38.073 -24.932 -14.260  0.00  0.00    +0.057 S 
ATOM     16  O   UNL     1      37.493 -26.187 -14.697  0.00  0.00    -0.154 OA
ATOM     17  O   UNL     1      39.046 -24.214 -15.055  0.00  0.00    -0.154 OA
ATOM     18  N   UNL     1      36.827 -23.832 -13.743  0.00  0.00    -0.194 N 
ATOM     19  C   UNL     1      38.727 -25.172 -12.614  0.00  0.00    +0.174 C 
ATOM     20  C   UNL     1      38.230 -23.982 -11.811  0.00  0.00    +0.051 C 
ATOM     21  C   UNL     1      36.789 -23.744 -12.256  0.00  0.00    +0.117 C 
ENDBRANCH   5  18
BRANCH  12  22
ATOM     22  C   UNL     1      35.666 -20.606 -20.487  0.00  0.00    +0.112 C 
BRANCH  22  26
ATOM     23  C   UNL     1      34.671 -17.038 -22.685  0.00  0.00    +0.048 C 
ATOM     24  C   UNL     1      34.563 -18.309 -23.281  0.00  0.00    +0.014 C 
ATOM     25  C   UNL     1      35.112 -16.966 -21.349  0.00  0.00    +0.014 C 
ATOM     26  C   UNL     1      35.321 -19.370 -21.247  0.00  0.00    -0.013 C 
ATOM     27  C   UNL     1      34.886 -19.465 -22.570  0.00  0.00    -0.003 C 
ATOM     28  C   UNL     1      35.434 -18.121 -20.638  0.00  0.00    -0.003 C 
BRANCH  23  29
ATOM     29  N   UNL     1      34.346 -15.877 -23.399  0.00  0.00    -0.307 N 
ATOM     30  C   UNL     1      33.804 -13.503 -24.948  0.00  0.00    +0.004 C 
ATOM     31  C   UNL     1      33.757 -13.486 -23.425  0.00  0.00    +0.021 C 
ATOM     32  C   UNL     1      33.447 -14.890 -25.470  0.00  0.00    +0.021 C 
ATOM     33  C   UNL     1      34.655 -14.565 -22.821  0.00  0.00    +0.091 C 
ATOM     34  C   UNL     1      34.351 -15.962 -24.867  0.00  0.00    +0.091 C 
ENDBRANCH  23  29
ENDBRANCH  22  26
ENDBRANCH  12  22
TORSDOF 4
ENDMDL
MODEL 2
REMARK VINA RESULT:     -12.1      1.352      1.528
REMARK  Name = 10138993
REMARK  4 active torsions:
REMARK  status: ('A' for Active; 'I' for Inactive)
REMARK    1  A    between atoms: C_5  and  N_18
REMARK    2  A    between atoms: C_12  and  C_22
REMARK    3  A    between atoms: C_22  and  C_26
REMARK    4  A    between atoms: C_23  and  N_29
REMARK                            x       y       z     vdW  Elec       q    Type
REMARK                         _______ _______ _______ _____ _____    ______ ____
ROOT
ATOM      1  O   UNL     1      32.915 -21.411 -19.861  0.00  0.00    -0.274 OA
ATOM      2  N   UNL     1      31.794 -23.465 -16.369  0.00  0.00    -0.275 N 
ATOM      3  N   UNL     1      34.406 -22.313 -18.286  0.00  0.00    -0.268 N 
ATOM      4  N   UNL     1      32.226 -22.819 -17.465  0.00  0.00    -0.157 NA
ATOM      5  C   UNL     1      35.200 -24.582 -14.383  0.00  0.00    +0.069 C 
ATOM      6  C   UNL     1      35.208 -23.875 -15.592  0.00  0.00    +0.020 C 
ATOM      7  C   UNL     1      33.998 -24.951 -13.774  0.00  0.00    +0.018 C 
ATOM      8  C   UNL     1      33.978 -23.545 -16.185  0.00  0.00    +0.052 A 
ATOM      9  C   UNL     1      32.796 -23.926 -15.558  0.00  0.00    +0.077 A 
ATOM     10  C   UNL     1      32.766 -24.630 -14.352  0.00  0.00    +0.020 C 
ATOM     11  C   UNL     1      33.543 -22.877 -17.337  0.00  0.00    +0.155 A 
ATOM     12  C   UNL     1      34.047 -21.638 -19.450  0.00  0.00    +0.232 C 
ATOM     13  H   UNL     1      30.840 -23.596 -16.166  0.00  0.00    +0.189 HD
ATOM     14  H   UNL     1      35.370 -22.404 -18.112  0.00  0.00    +0.156 HD
ENDROOT
BRANCH   5  18
ATOM     15  S   UNL     1      36.607 -24.729 -12.031  0.00  0.00    +0.057 S 
ATOM     16  O   UNL     1      35.972 -23.496 -11.609  0.00  0.00    -0.154 OA
ATOM     17  O   UNL     1      36.345 -25.993 -11.375  0.00  0.00    -0.154 OA
ATOM     18  N   UNL     1      36.461 -24.934 -13.753  0.00  0.00    -0.194 N 
ATOM     19  C   UNL     1      38.371 -24.452 -12.081  0.00  0.00    +0.174 C 
ATOM     20  C   UNL     1      38.827 -25.025 -13.412  0.00  0.00    +0.051 C 
ATOM     21  C   UNL     1      37.756 -24.636 -14.428  0.00  0.00    +0.117 C 
ENDBRANCH   5  18
BRANCH  12  22
ATOM     22  C   UNL     1      35.287 -21.176 -20.213  0.00  0.00    +0.112 C 
BRANCH  22  26
ATOM     23  C   UNL     1      34.692 -17.574 -22.499  0.00  0.00    +0.048 C 
ATOM     24  C   UNL     1      34.323 -18.830 -23.018  0.00  0.00    +0.014 C 
ATOM     25  C   UNL     1      35.260 -17.529 -21.212  0.00  0.00    +0.014 C 
ATOM     26  C   UNL     1      35.081 -19.929 -21.004  0.00  0.00    -0.013 C 
ATOM     27  C   UNL     1      34.516 -19.997 -22.278  0.00  0.00    -0.003 C 
ATOM     28  C   UNL     1      35.453 -18.695 -20.472  0.00  0.00    -0.003 C 
BRANCH  23  29
ATOM     29  N   UNL     1      34.498 -16.403 -23.242  0.00  0.00    -0.307 N 
ATOM     30  C   UNL     1      34.225 -14.017 -24.843  0.00  0.00    +0.004 C 
ATOM     31  C   UNL     1      34.105 -13.973 -23.325  0.00  0.00    +0.021 C 
ATOM     32  C   UNL     1      33.783 -15.379 -25.366  0.00  0.00    +0.021 C 
ATOM     33  C   UNL     1      34.883 -15.110 -22.665  0.00  0.00    +0.091 C 
ATOM     34  C   UNL     1      34.567 -16.511 -24.707  0.00  0.00    +0.091 C 
ENDBRANCH  23  29
ENDBRANCH  22  26
ENDBRANCH  12  22
TORSDOF 4
ENDMDL
MODEL 3
REMARK VINA RESULT:     -11.0      7.351     14.588
REMARK  Name = 10138993
REMARK  4 active torsions:
REMARK  status: ('A' for Active; 'I' for Inactive)
REMARK    1  A    between atoms: C_5  and  N_18
REMARK    2  A    between atoms: C_12  and  C_22
REMARK    3  A    between atoms: C_22  and  C_26
REMARK    4  A    between atoms: C_23  and  N_29
REMARK                            x       y       z     vdW  Elec       q    Type
REMARK                         _______ _______ _______ _____ _____    ______ ____
ROOT
ATOM      1  O   UNL     1      32.516 -13.344 -21.529  0.00  0.00    -0.274 OA
ATOM      2  N   UNL     1      31.024  -9.433 -21.139  0.00  0.00    -0.275 N 
ATOM      3  N   UNL     1      33.039 -11.549 -22.952  0.00  0.00    -0.268 N 
ATOM      4  N   UNL     1      31.540 -10.659 -21.326  0.00  0.00    -0.157 NA
ATOM      5  C   UNL     1      32.594  -7.149 -24.157  0.00  0.00    +0.069 C 
ATOM      6  C   UNL     1      32.883  -8.508 -23.988  0.00  0.00    +0.020 C 
ATOM      7  C   UNL     1      31.731  -6.484 -23.284  0.00  0.00    +0.018 C 
ATOM      8  C   UNL     1      32.287  -9.193 -22.916  0.00  0.00    +0.052 A 
ATOM      9  C   UNL     1      31.433  -8.507 -22.060  0.00  0.00    +0.077 A 
ATOM     10  C   UNL     1      31.130  -7.151 -22.211  0.00  0.00    +0.020 C 
ATOM     11  C   UNL     1      32.299 -10.496 -22.400  0.00  0.00    +0.155 A 
ATOM     12  C   UNL     1      33.098 -12.863 -22.496  0.00  0.00    +0.232 C 
ATOM     13  H   UNL     1      30.406  -9.219 -20.403  0.00  0.00    +0.189 HD
ATOM     14  H   UNL     1      33.575 -11.338 -23.750  0.00  0.00    +0.156 HD
ENDROOT
BRANCH   5  18
ATOM     15  S   UNL     1      34.935  -6.403 -25.381  0.00  0.00    +0.057 S 
ATOM     16  O   UNL     1      35.535  -6.247 -24.071  0.00  0.00    -0.154 OA
ATOM     17  O   UNL     1      35.361  -7.433 -26.306  0.00  0.00    -0.154 OA
ATOM     18  N   UNL     1      33.199  -6.421 -25.259  0.00  0.00    -0.194 N 
ATOM     19  C   UNL     1      34.992  -4.819 -26.205  0.00  0.00    +0.174 C 
ATOM     20  C   UNL     1      33.600  -4.618 -26.780  0.00  0.00    +0.051 C 
ATOM     21  C   UNL     1      32.628  -5.123 -25.716  0.00  0.00    +0.117 C 
ENDBRANCH   5  18
BRANCH  12  22
ATOM     22  C   UNL     1      34.019 -13.703 -23.379  0.00  0.00    +0.112 C 
BRANCH  22  26
ATOM     23  C   UNL     1      35.144 -17.478 -21.636  0.00  0.00    +0.048 C 
ATOM     24  C   UNL     1      34.933 -16.343 -20.829  0.00  0.00    +0.014 C 
ATOM     25  C   UNL     1      34.976 -17.345 -23.027  0.00  0.00    +0.014 C 
ATOM     26  C   UNL     1      34.408 -15.010 -22.776  0.00  0.00    -0.013 C 
ATOM     27  C   UNL     1      34.569 -15.120 -21.394  0.00  0.00    -0.003 C 
ATOM     28  C   UNL     1      34.613 -16.122 -23.592  0.00  0.00    -0.003 C 
BRANCH  23  29
ATOM     29  N   UNL     1      35.509 -18.706 -21.069  0.00  0.00    -0.307 N 
ATOM     30  C   UNL     1      36.345 -21.262 -20.020  0.00  0.00    +0.004 C 
ATOM     31  C   UNL     1      34.872 -20.884 -20.111  0.00  0.00    +0.021 C 
ATOM     32  C   UNL     1      37.199 -20.012 -19.840  0.00  0.00    +0.021 C 
ATOM     33  C   UNL     1      34.618 -19.863 -21.219  0.00  0.00    +0.091 C 
ATOM     34  C   UNL     1      36.945 -18.998 -20.953  0.00  0.00    +0.091 C 
ENDBRANCH  23  29
ENDBRANCH  22  26
ENDBRANCH  12  22
TORSDOF 4
ENDMDL
MODEL 4
REMARK VINA RESULT:     -10.7      3.382      5.051
REMARK  Name = 10138993
REMARK  4 active torsions:
REMARK  status: ('A' for Active; 'I' for Inactive)
REMARK    1  A    between atoms: C_5  and  N_18
REMARK    2  A    between atoms: C_12  and  C_22
REMARK    3  A    between atoms: C_22  and  C_26
REMARK    4  A    between atoms: C_23  and  N_29
REMARK                            x       y       z     vdW  Elec       q    Type
REMARK                         _______ _______ _______ _____ _____    ______ ____
ROOT
ATOM      1  O   UNL     1      37.155 -22.348 -17.904  0.00  0.00    -0.274 OA
ATOM      2  N   UNL     1      35.306 -23.103 -14.205  0.00  0.00    -0.275 N 
ATOM      3  N   UNL     1      34.853 -22.695 -17.589  0.00  0.00    -0.268 N 
ATOM      4  N   UNL     1      35.828 -22.866 -15.420  0.00  0.00    -0.157 NA
ATOM      5  C   UNL     1      31.283 -23.548 -14.843  0.00  0.00    +0.069 C 
ATOM      6  C   UNL     1      32.202 -23.285 -15.866  0.00  0.00    +0.020 C 
ATOM      7  C   UNL     1      31.701 -23.677 -13.517  0.00  0.00    +0.018 C 
ATOM      8  C   UNL     1      33.560 -23.152 -15.531  0.00  0.00    +0.052 A 
ATOM      9  C   UNL     1      33.949 -23.283 -14.203  0.00  0.00    +0.077 A 
ATOM     10  C   UNL     1      33.049 -23.546 -13.167  0.00  0.00    +0.020 C 
ATOM     11  C   UNL     1      34.761 -22.899 -16.206  0.00  0.00    +0.155 A 
ATOM     12  C   UNL     1      36.007 -22.440 -18.326  0.00  0.00    +0.232 C 
ATOM     13  H   UNL     1      35.852 -23.142 -13.387  0.00  0.00    +0.189 HD
ATOM     14  H   UNL     1      34.010 -22.735 -18.095  0.00  0.00    +0.156 HD
ENDROOT
BRANCH   5  18
ATOM     15  S   UNL     1      29.211 -25.296 -15.273  0.00  0.00    +0.057 S 
ATOM     16  O   UNL     1      30.141 -26.188 -15.937  0.00  0.00    -0.154 OA
ATOM     17  O   UNL     1      28.581 -25.638 -14.015  0.00  0.00    -0.154 OA
ATOM     18  N   UNL     1      29.874 -23.691 -15.168  0.00  0.00    -0.194 N 
ATOM     19  C   UNL     1      27.949 -24.840 -16.452  0.00  0.00    +0.174 C 
ATOM     20  C   UNL     1      27.812 -23.332 -16.325  0.00  0.00    +0.051 C 
ATOM     21  C   UNL     1      29.231 -22.791 -16.166  0.00  0.00    +0.117 C 
ENDBRANCH   5  18
BRANCH  12  22
ATOM     22  C   UNL     1      35.680 -22.279 -19.808  0.00  0.00    +0.112 C 
BRANCH  22  26
ATOM     23  C   UNL     1      35.033 -18.198 -21.024  0.00  0.00    +0.048 C 
ATOM     24  C   UNL     1      33.960 -19.106 -20.937  0.00  0.00    +0.014 C 
ATOM     25  C   UNL     1      36.323 -18.661 -20.703  0.00  0.00    +0.014 C 
ATOM     26  C   UNL     1      35.456 -20.866 -20.229  0.00  0.00    -0.013 C 
ATOM     27  C   UNL     1      34.169 -20.427 -20.543  0.00  0.00    -0.003 C 
ATOM     28  C   UNL     1      36.532 -19.983 -20.310  0.00  0.00    -0.003 C 
BRANCH  23  29
ATOM     29  N   UNL     1      34.822 -16.870 -21.419  0.00  0.00    -0.307 N 
ATOM     30  C   UNL     1      34.533 -14.127 -22.267  0.00  0.00    +0.004 C 
ATOM     31  C   UNL     1      34.041 -14.593 -20.903  0.00  0.00    +0.021 C 
ATOM     32  C   UNL     1      34.478 -15.276 -23.266  0.00  0.00    +0.021 C 
ATOM     33  C   UNL     1      34.822 -15.809 -20.406  0.00  0.00    +0.091 C 
ATOM     34  C   UNL     1      35.264 -16.486 -22.768  0.00  0.00    +0.091 C 
ENDBRANCH  23  29
ENDBRANCH  22  26
ENDBRANCH  12  22
TORSDOF 4
ENDMDL
MODEL 5
REMARK VINA RESULT:     -10.4      2.640      3.812
REMARK  Name = 10138993
REMARK  4 active torsions:
REMARK  status: ('A' for Active; 'I' for Inactive)
REMARK    1  A    between atoms: C_5  and  N_18
REMARK    2  A    between atoms: C_12  and  C_22
REMARK    3  A    between atoms: C_22  and  C_26
REMARK    4  A    between atoms: C_23  and  N_29
REMARK                            x       y       z     vdW  Elec       q    Type
REMARK                         _______ _______ _______ _____ _____    ______ ____
ROOT
ATOM      1  O   UNL     1      37.221 -20.767 -19.870  0.00  0.00    -0.274 OA
ATOM      2  N   UNL     1      37.402 -22.064 -15.876  0.00  0.00    -0.275 N 
ATOM      3  N   UNL     1      35.487 -21.861 -18.724  0.00  0.00    -0.268 N 
ATOM      4  N   UNL     1      37.273 -21.677 -17.155  0.00  0.00    -0.157 NA
ATOM      5  C   UNL     1      33.829 -23.836 -14.934  0.00  0.00    +0.069 C 
ATOM      6  C   UNL     1      34.113 -23.290 -16.192  0.00  0.00    +0.020 C 
ATOM      7  C   UNL     1      34.777 -23.806 -13.908  0.00  0.00    +0.018 C 
ATOM      8  C   UNL     1      35.373 -22.706 -16.403  0.00  0.00    +0.052 A 
ATOM      9  C   UNL     1      36.297 -22.688 -15.364  0.00  0.00    +0.077 A 
ATOM     10  C   UNL     1      36.036 -23.227 -14.102  0.00  0.00    +0.020 C 
ATOM     11  C   UNL     1      36.044 -22.072 -17.456  0.00  0.00    +0.155 A 
ATOM     12  C   UNL     1      36.092 -21.242 -19.815  0.00  0.00    +0.232 C 
ATOM     13  H   UNL     1      38.221 -21.911 -15.351  0.00  0.00    +0.189 HD
ATOM     14  H   UNL     1      34.569 -22.187 -18.859  0.00  0.00    +0.156 HD
ENDROOT
BRANCH   5  18
ATOM     15  S   UNL     1      31.112 -23.454 -14.864  0.00  0.00    +0.057 S 
ATOM     16  O   UNL     1      31.343 -22.136 -14.306  0.00  0.00    -0.154 OA
ATOM     17  O   UNL     1      30.550 -23.644 -16.185  0.00  0.00    -0.154 OA
ATOM     18  N   UNL     1      32.532 -24.445 -14.695  0.00  0.00    -0.194 N 
ATOM     19  C   UNL     1      30.156 -24.393 -13.683  0.00  0.00    +0.174 C 
ATOM     20  C   UNL     1      30.854 -25.738 -13.584  0.00  0.00    +0.051 C 
ATOM     21  C   UNL     1      32.351 -25.439 -13.598  0.00  0.00    +0.117 C 
ENDBRANCH   5  18
BRANCH  12  22
ATOM     22  C   UNL     1      35.149 -21.213 -21.015  0.00  0.00    +0.112 C 
BRANCH  22  26
ATOM     23  C   UNL     1      34.555 -17.285 -22.680  0.00  0.00    +0.048 C 
ATOM     24  C   UNL     1      34.408 -18.438 -23.475  0.00  0.00    +0.014 C 
ATOM     25  C   UNL     1      34.900 -17.452 -21.325  0.00  0.00    +0.014 C 
ATOM     26  C   UNL     1      34.943 -19.853 -21.591  0.00  0.00    -0.013 C 
ATOM     27  C   UNL     1      34.601 -19.710 -22.936  0.00  0.00    -0.003 C 
ATOM     28  C   UNL     1      35.093 -18.724 -20.786  0.00  0.00    -0.003 C 
BRANCH  23  29
ATOM     29  N   UNL     1      34.361 -16.008 -23.221  0.00  0.00    -0.307 N 
ATOM     30  C   UNL     1      34.080 -13.398 -24.422  0.00  0.00    +0.004 C 
ATOM     31  C   UNL     1      34.106 -13.578 -22.909  0.00  0.00    +0.021 C 
ATOM     32  C   UNL     1      33.511 -14.645 -25.090  0.00  0.00    +0.021 C 
ATOM     33  C   UNL     1      34.874 -14.835 -22.504  0.00  0.00    +0.091 C 
ATOM     34  C   UNL     1      34.286 -15.897 -24.685  0.00  0.00    +0.091 C 
ENDBRANCH  23  29
ENDBRANCH  22  26
ENDBRANCH  12  22
TORSDOF 4
ENDMDL
MODEL 6
REMARK VINA RESULT:     -10.2      8.787     15.789
REMARK  Name = 10138993
REMARK  4 active torsions:
REMARK  status: ('A' for Active; 'I' for Inactive)
REMARK    1  A    between atoms: C_5  and  N_18
REMARK    2  A    between atoms: C_12  and  C_22
REMARK    3  A    between atoms: C_22  and  C_26
REMARK    4  A    between atoms: C_23  and  N_29
REMARK                            x       y       z     vdW  Elec       q    Type
REMARK                         _______ _______ _______ _____ _____    ______ ____
ROOT
ATOM      1  O   UNL     1      32.400 -11.853 -21.840  0.00  0.00    -0.274 OA
ATOM      2  N   UNL     1      31.670  -7.986 -20.364  0.00  0.00    -0.275 N 
ATOM      3  N   UNL     1      32.659  -9.867 -23.067  0.00  0.00    -0.268 N 
ATOM      4  N   UNL     1      31.923  -9.190 -20.903  0.00  0.00    -0.157 NA
ATOM      5  C   UNL     1      32.442  -5.297 -23.359  0.00  0.00    +0.069 C 
ATOM      6  C   UNL     1      32.583  -6.682 -23.510  0.00  0.00    +0.020 C 
ATOM      7  C   UNL     1      32.018  -4.746 -22.148  0.00  0.00    +0.018 C 
ATOM      8  C   UNL     1      32.290  -7.511 -22.413  0.00  0.00    +0.052 A 
ATOM      9  C   UNL     1      31.871  -6.935 -21.219  0.00  0.00    +0.077 A 
ATOM     10  C   UNL     1      31.723  -5.557 -21.047  0.00  0.00    +0.020 C 
ATOM     11  C   UNL     1      32.295  -8.884 -22.138  0.00  0.00    +0.155 A 
ATOM     12  C   UNL     1      32.687 -11.244 -22.865  0.00  0.00    +0.232 C 
ATOM     13  H   UNL     1      31.367  -7.869 -19.435  0.00  0.00    +0.189 HD
ATOM     14  H   UNL     1      32.923  -9.550 -23.960  0.00  0.00    +0.156 HD
ENDROOT
BRANCH   5  18
ATOM     15  S   UNL     1      31.745  -3.014 -24.713  0.00  0.00    +0.057 S 
ATOM     16  O   UNL     1      30.352  -3.328 -24.464  0.00  0.00    -0.154 OA
ATOM     17  O   UNL     1      32.395  -1.865 -24.116  0.00  0.00    -0.154 OA
ATOM     18  N   UNL     1      32.740  -4.423 -24.480  0.00  0.00    -0.194 N 
ATOM     19  C   UNL     1      31.992  -2.970 -26.481  0.00  0.00    +0.174 C 
ATOM     20  C   UNL     1      33.250  -3.785 -26.729  0.00  0.00    +0.051 C 
ATOM     21  C   UNL     1      33.163  -4.989 -25.792  0.00  0.00    +0.117 C 
ENDBRANCH   5  18
BRANCH  12  22
ATOM     22  C   UNL     1      33.139 -11.969 -24.131  0.00  0.00    +0.112 C 
BRANCH  22  26
ATOM     23  C   UNL     1      34.377 -16.041 -23.465  0.00  0.00    +0.048 C 
ATOM     24  C   UNL     1      34.648 -15.037 -22.516  0.00  0.00    +0.014 C 
ATOM     25  C   UNL     1      33.689 -15.676 -24.639  0.00  0.00    +0.014 C 
ATOM     26  C   UNL     1      33.567 -13.379 -23.901  0.00  0.00    -0.013 C 
ATOM     27  C   UNL     1      34.248 -13.719 -22.731  0.00  0.00    -0.003 C 
ATOM     28  C   UNL     1      33.288 -14.358 -24.854  0.00  0.00    -0.003 C 
BRANCH  23  29
ATOM     29  N   UNL     1      34.779 -17.365 -23.249  0.00  0.00    -0.307 N 
ATOM     30  C   UNL     1      35.468 -20.125 -22.760  0.00  0.00    +0.004 C 
ATOM     31  C   UNL     1      36.272 -18.985 -22.148  0.00  0.00    +0.021 C 
ATOM     32  C   UNL     1      34.851 -19.683 -24.082  0.00  0.00    +0.021 C 
ATOM     33  C   UNL     1      35.426 -17.724 -21.981  0.00  0.00    +0.091 C 
ATOM     34  C   UNL     1      34.003 -18.425 -23.908  0.00  0.00    +0.091 C 
ENDBRANCH  23  29
ENDBRANCH  22  26
ENDBRANCH  12  22
TORSDOF 4
ENDMDL
MODEL 7
REMARK VINA RESULT:     -10.2      8.322     15.504
REMARK  Name = 10138993
REMARK  4 active torsions:
REMARK  status: ('A' for Active; 'I' for Inactive)
REMARK    1  A    between atoms: C_5  and  N_18
REMARK    2  A    between atoms: C_12  and  C_22
REMARK    3  A    between atoms: C_22  and  C_26
REMARK    4  A    between atoms: C_23  and  N_29
REMARK                            x       y       z     vdW  Elec       q    Type
REMARK                         _______ _______ _______ _____ _____    ______ ____
ROOT
ATOM      1  O   UNL     1      32.346 -11.859 -21.882  0.00  0.00    -0.274 OA
ATOM      2  N   UNL     1      31.577  -7.881 -20.761  0.00  0.00    -0.275 N 
ATOM      3  N   UNL     1      32.707  -9.978 -23.241  0.00  0.00    -0.268 N 
ATOM      4  N   UNL     1      31.847  -9.126 -21.187  0.00  0.00    -0.157 NA
ATOM      5  C   UNL     1      32.571  -5.443 -23.902  0.00  0.00    +0.069 C 
ATOM      6  C   UNL     1      32.702  -6.837 -23.935  0.00  0.00    +0.020 C 
ATOM      7  C   UNL     1      32.079  -4.795 -22.767  0.00  0.00    +0.018 C 
ATOM      8  C   UNL     1      32.330  -7.574 -22.798  0.00  0.00    +0.052 A 
ATOM      9  C   UNL     1      31.845  -6.903 -21.681  0.00  0.00    +0.077 A 
ATOM     10  C   UNL     1      31.706  -5.514 -21.627  0.00  0.00    +0.020 C 
ATOM     11  C   UNL     1      32.300  -8.922 -22.416  0.00  0.00    +0.155 A 
ATOM     12  C   UNL     1      32.704 -11.335 -22.931  0.00  0.00    +0.232 C 
ATOM     13  H   UNL     1      31.219  -7.688 -19.865  0.00  0.00    +0.189 HD
ATOM     14  H   UNL     1      33.030  -9.734 -24.138  0.00  0.00    +0.156 HD
ENDROOT
BRANCH   5  18
ATOM     15  S   UNL     1      34.363  -5.145 -25.960  0.00  0.00    +0.057 S 
ATOM     16  O   UNL     1      35.422  -5.548 -25.056  0.00  0.00    -0.154 OA
ATOM     17  O   UNL     1      33.962  -5.958 -27.088  0.00  0.00    -0.154 OA
ATOM     18  N   UNL     1      32.949  -4.662 -25.067  0.00  0.00    -0.194 N 
ATOM     19  C   UNL     1      34.727  -3.492 -26.531  0.00  0.00    +0.174 C 
ATOM     20  C   UNL     1      33.424  -2.723 -26.385  0.00  0.00    +0.051 C 
ATOM     21  C   UNL     1      32.813  -3.178 -25.062  0.00  0.00    +0.117 C 
ENDBRANCH   5  18
BRANCH  12  22
ATOM     22  C   UNL     1      33.223 -12.161 -24.105  0.00  0.00    +0.112 C 
BRANCH  22  26
ATOM     23  C   UNL     1      34.502 -16.129 -23.022  0.00  0.00    +0.048 C 
ATOM     24  C   UNL     1      33.925 -15.873 -24.281  0.00  0.00    +0.014 C 
ATOM     25  C   UNL     1      34.650 -15.052 -22.128  0.00  0.00    +0.014 C 
ATOM     26  C   UNL     1      33.666 -13.535 -23.730  0.00  0.00    -0.013 C 
ATOM     27  C   UNL     1      33.510 -14.588 -24.632  0.00  0.00    -0.003 C 
ATOM     28  C   UNL     1      34.236 -13.767 -22.478  0.00  0.00    -0.003 C 
BRANCH  23  29
ATOM     29  N   UNL     1      34.918 -17.420 -22.670  0.00  0.00    -0.307 N 
ATOM     30  C   UNL     1      35.635 -20.114 -21.922  0.00  0.00    +0.004 C 
ATOM     31  C   UNL     1      36.299 -18.906 -21.274  0.00  0.00    +0.021 C 
ATOM     32  C   UNL     1      35.197 -19.774 -23.342  0.00  0.00    +0.021 C 
ATOM     33  C   UNL     1      35.391 -17.677 -21.305  0.00  0.00    +0.091 C 
ATOM     34  C   UNL     1      34.286 -18.549 -23.367  0.00  0.00    +0.091 C 
ENDBRANCH  23  29
ENDBRANCH  22  26
ENDBRANCH  12  22
TORSDOF 4
ENDMDL
MODEL 8
REMARK VINA RESULT:      -9.9      1.888      3.150
REMARK  Name = 10138993
REMARK  4 active torsions:
REMARK  status: ('A' for Active; 'I' for Inactive)
REMARK    1  A    between atoms: C_5  and  N_18
REMARK    2  A    between atoms: C_12  and  C_22
REMARK    3  A    between atoms: C_22  and  C_26
REMARK    4  A    between atoms: C_23  and  N_29
REMARK                            x       y       z     vdW  Elec       q    Type
REMARK                         _______ _______ _______ _____ _____    ______ ____
ROOT
ATOM      1  O   UNL     1      31.896 -22.558 -17.306  0.00  0.00    -0.274 OA
ATOM      2  N   UNL     1      32.946 -23.361 -13.315  0.00  0.00    -0.275 N 
ATOM      3  N   UNL     1      33.890 -23.590 -16.614  0.00  0.00    -0.268 N 
ATOM      4  N   UNL     1      32.677 -23.136 -14.612  0.00  0.00    -0.157 NA
ATOM      5  C   UNL     1      36.622 -25.171 -13.289  0.00  0.00    +0.069 C 
ATOM      6  C   UNL     1      35.969 -24.765 -14.460  0.00  0.00    +0.020 C 
ATOM      7  C   UNL     1      36.038 -24.972 -12.036  0.00  0.00    +0.018 C 
ATOM      8  C   UNL     1      34.709 -24.154 -14.349  0.00  0.00    +0.052 A 
ATOM      9  C   UNL     1      34.151 -23.970 -13.089  0.00  0.00    +0.077 A 
ATOM     10  C   UNL     1      34.784 -24.365 -11.909  0.00  0.00    +0.020 C 
ATOM     11  C   UNL     1      33.750 -23.620 -15.220  0.00  0.00    +0.155 A 
ATOM     12  C   UNL     1      32.983 -23.078 -17.537  0.00  0.00    +0.232 C 
ATOM     13  H   UNL     1      32.329 -23.111 -12.590  0.00  0.00    +0.189 HD
ATOM     14  H   UNL     1      34.719 -23.973 -16.980  0.00  0.00    +0.156 HD
ENDROOT
BRANCH   5  18
ATOM     15  S   UNL     1      39.283 -24.832 -13.873  0.00  0.00    +0.057 S 
ATOM     16  O   UNL     1      38.902 -23.934 -14.944  0.00  0.00    -0.154 OA
ATOM     17  O   UNL     1      39.993 -24.373 -12.698  0.00  0.00    -0.154 OA
ATOM     18  N   UNL     1      37.926 -25.804 -13.381  0.00  0.00    -0.194 N 
ATOM     19  C   UNL     1      40.172 -26.203 -14.594  0.00  0.00    +0.174 C 
ATOM     20  C   UNL     1      39.563 -27.447 -13.967  0.00  0.00    +0.051 C 
ATOM     21  C   UNL     1      38.059 -27.194 -13.904  0.00  0.00    +0.117 C 
ENDBRANCH   5  18
BRANCH  12  22
ATOM     22  C   UNL     1      33.511 -23.235 -18.961  0.00  0.00    +0.112 C 
BRANCH  22  26
ATOM     23  C   UNL     1      34.339 -19.501 -20.942  0.00  0.00    +0.048 C 
ATOM     24  C   UNL     1      35.385 -20.334 -20.502  0.00  0.00    +0.014 C 
ATOM     25  C   UNL     1      33.014 -19.922 -20.717  0.00  0.00    +0.014 C 
ATOM     26  C   UNL     1      33.797 -21.942 -19.647  0.00  0.00    -0.013 C 
ATOM     27  C   UNL     1      35.118 -21.543 -19.861  0.00  0.00    -0.003 C 
ATOM     28  C   UNL     1      32.747 -21.131 -20.075  0.00  0.00    -0.003 C 
BRANCH  23  29
ATOM     29  N   UNL     1      34.608 -18.286 -21.587  0.00  0.00    -0.307 N 
ATOM     30  C   UNL     1      35.296 -15.839 -22.954  0.00  0.00    +0.004 C 
ATOM     31  C   UNL     1      34.793 -15.832 -21.516  0.00  0.00    +0.021 C 
ATOM     32  C   UNL     1      34.720 -17.034 -23.706  0.00  0.00    +0.021 C 
ATOM     33  C   UNL     1      35.101 -17.148 -20.803  0.00  0.00    +0.091 C 
ATOM     34  C   UNL     1      35.035 -18.346 -22.992  0.00  0.00    +0.091 C 
ENDBRANCH  23  29
ENDBRANCH  22  26
ENDBRANCH  12  22
TORSDOF 4
ENDMDL
