MODEL 1
REMARK VINA RESULT:     -12.3      0.000      0.000
REMARK  Name = 657077
REMARK  7 active torsions:
REMARK  status: ('A' for Active; 'I' for Inactive)
REMARK    1  A    between atoms: C_3  and  C_23
REMARK    2  A    between atoms: C_8  and  C_10
REMARK    3  A    between atoms: C_12  and  C_15
REMARK    4  A    between atoms: C_15  and  C_16
REMARK    5  A    between atoms: C_16  and  C_17
REMARK    6  A    between atoms: C_26  and  C_29
REMARK    7  A    between atoms: C_29  and  N_30
REMARK                            x       y       z     vdW  Elec       q    Type
REMARK                         _______ _______ _______ _____ _____    ______ ____
ROOT
ATOM      1  O   UNL     1      33.118 -16.008 -25.469  0.00  0.00    -0.270 OA
ATOM      2  N   UNL     1      34.586 -16.709 -23.790  0.00  0.00    -0.276 N 
ATOM      3  C   UNL     1      35.182 -18.894 -21.987  0.00  0.00    +0.026 C 
ATOM      4  C   UNL     1      35.022 -17.447 -21.482  0.00  0.00    +0.026 C 
ATOM      5  C   UNL     1      34.379 -19.106 -23.285  0.00  0.00    +0.026 C 
ATOM      6  C   UNL     1      35.375 -16.443 -22.580  0.00  0.00    +0.094 C 
ATOM      7  C   UNL     1      34.744 -18.058 -24.336  0.00  0.00    +0.094 C 
ATOM      8  C   UNL     1      33.758 -15.792 -24.440  0.00  0.00    +0.251 C 
ENDROOT
BRANCH   8  10
ATOM      9  N   UNL     1      34.165 -12.106 -23.927  0.00  0.00    -0.242 NA
ATOM     10  C   UNL     1      33.614 -14.454 -23.856  0.00  0.00    +0.072 C 
ATOM     11  C   UNL     1      32.832 -14.251 -22.728  0.00  0.00    +0.003 C 
ATOM     12  C   UNL     1      32.714 -12.971 -22.197  0.00  0.00    -0.003 C 
ATOM     13  C   UNL     1      34.255 -13.365 -24.415  0.00  0.00    +0.103 C 
ATOM     14  C   UNL     1      33.395 -11.942 -22.829  0.00  0.00    +0.095 C 
BRANCH  12  15
ATOM     15  C   UNL     1      31.884 -12.715 -20.990  0.00  0.00    +0.033 C 
BRANCH  15  16
ATOM     16  C   UNL     1      30.823 -11.610 -21.177  0.00  0.00    +0.031 C 
BRANCH  16  17
ATOM     17  C   UNL     1      31.274 -10.262 -20.667  0.00  0.00    -0.022 C 
ATOM     18  C   UNL     1      31.390 -10.056 -19.302  0.00  0.00    -0.004 C 
ATOM     19  C   UNL     1      31.563  -9.256 -21.574  0.00  0.00    -0.004 C 
ATOM     20  C   UNL     1      31.806  -8.811 -18.831  0.00  0.00    -0.000 C 
ATOM     21  C   UNL     1      31.981  -8.010 -21.103  0.00  0.00    -0.000 C 
ATOM     22  C   UNL     1      32.101  -7.788 -19.731  0.00  0.00    -0.000 C 
ENDBRANCH  16  17
ENDBRANCH  15  16
ENDBRANCH  12  15
ENDBRANCH   8  10
BRANCH   3  23
ATOM     23  C   UNL     1      34.821 -19.911 -20.922  0.00  0.00    -0.023 C 
ATOM     24  C   UNL     1      35.824 -20.497 -20.152  0.00  0.00    -0.011 C 
ATOM     25  C   UNL     1      33.486 -20.256 -20.714  0.00  0.00    -0.004 C 
ATOM     26  C   UNL     1      35.492 -21.431 -19.172  0.00  0.00    -0.045 C 
ATOM     27  C   UNL     1      33.155 -21.191 -19.734  0.00  0.00    -0.001 C 
ATOM     28  C   UNL     1      34.157 -21.778 -18.962  0.00  0.00    -0.006 C 
BRANCH  26  29
ATOM     29  C   UNL     1      36.564 -22.060 -18.345  0.00  0.00    -0.059 C 
BRANCH  29  30
ATOM     30  N   UNL     1      36.096 -22.415 -17.004  0.00  0.00    +0.383 N 
ATOM     31  H   UNL     1      35.087 -22.564 -17.025  0.00  0.00    -0.089 HD
ATOM     32  H   UNL     1      36.316 -21.659 -16.356  0.00  0.00    -0.089 HD
ATOM     33  H   UNL     1      36.559 -23.271 -16.699  0.00  0.00    -0.089 HD
ENDBRANCH  29  30
ENDBRANCH  26  29
ENDBRANCH   3  23
TORSDOF 7
ENDMDL
MODEL 2
REMARK VINA RESULT:     -12.1      1.678      2.703
REMARK  Name = 657077
REMARK  7 active torsions:
REMARK  status: ('A' for Active; 'I' for Inactive)
REMARK    1  A    between atoms: C_3  and  C_23
REMARK    2  A    between atoms: C_8  and  C_10
REMARK    3  A    between atoms: C_12  and  C_15
REMARK    4  A    between atoms: C_15  and  C_16
REMARK    5  A    between atoms: C_16  and  C_17
REMARK    6  A    between atoms: C_26  and  C_29
REMARK    7  A    between atoms: C_29  and  N_30
REMARK                            x       y       z     vdW  Elec       q    Type
REMARK                         _______ _______ _______ _____ _____    ______ ____
ROOT
ATOM      1  O   UNL     1      32.872 -14.984 -25.164  0.00  0.00    -0.270 OA
ATOM      2  N   UNL     1      34.459 -15.582 -23.554  0.00  0.00    -0.276 N 
ATOM      3  C   UNL     1      35.545 -17.825 -22.083  0.00  0.00    +0.026 C 
ATOM      4  C   UNL     1      35.049 -16.552 -21.370  0.00  0.00    +0.026 C 
ATOM      5  C   UNL     1      34.817 -18.011 -23.428  0.00  0.00    +0.026 C 
ATOM      6  C   UNL     1      35.160 -15.334 -22.288  0.00  0.00    +0.094 C 
ATOM      7  C   UNL     1      34.929 -16.755 -24.292  0.00  0.00    +0.094 C 
ATOM      8  C   UNL     1      33.441 -14.790 -24.090  0.00  0.00    +0.251 C 
ENDROOT
BRANCH   8  10
ATOM      9  N   UNL     1      31.760 -12.770 -21.424  0.00  0.00    -0.242 NA
ATOM     10  C   UNL     1      32.986 -13.630 -23.315  0.00  0.00    +0.072 C 
ATOM     11  C   UNL     1      33.324 -12.341 -23.702  0.00  0.00    +0.003 C 
ATOM     12  C   UNL     1      32.878 -11.261 -22.947  0.00  0.00    -0.003 C 
ATOM     13  C   UNL     1      32.212 -13.794 -22.183  0.00  0.00    +0.103 C 
ATOM     14  C   UNL     1      32.107 -11.527 -21.827  0.00  0.00    +0.095 C 
BRANCH  12  15
ATOM     15  C   UNL     1      33.220  -9.865 -23.329  0.00  0.00    +0.033 C 
BRANCH  15  16
ATOM     16  C   UNL     1      31.994  -8.963 -23.588  0.00  0.00    +0.031 C 
BRANCH  16  17
ATOM     17  C   UNL     1      32.023  -7.681 -22.791  0.00  0.00    -0.022 C 
ATOM     18  C   UNL     1      31.513  -6.520 -23.352  0.00  0.00    -0.004 C 
ATOM     19  C   UNL     1      32.559  -7.688 -21.514  0.00  0.00    -0.004 C 
ATOM     20  C   UNL     1      31.540  -5.336 -22.616  0.00  0.00    -0.000 C 
ATOM     21  C   UNL     1      32.585  -6.503 -20.777  0.00  0.00    -0.000 C 
ATOM     22  C   UNL     1      32.076  -5.327 -21.329  0.00  0.00    -0.000 C 
ENDBRANCH  16  17
ENDBRANCH  15  16
ENDBRANCH  12  15
ENDBRANCH   8  10
BRANCH   3  23
ATOM     23  C   UNL     1      35.428 -19.053 -21.199  0.00  0.00    -0.023 C 
ATOM     24  C   UNL     1      34.173 -19.581 -20.905  0.00  0.00    -0.011 C 
ATOM     25  C   UNL     1      36.578 -19.651 -20.685  0.00  0.00    -0.004 C 
ATOM     26  C   UNL     1      34.066 -20.709 -20.093  0.00  0.00    -0.045 C 
ATOM     27  C   UNL     1      36.471 -20.780 -19.873  0.00  0.00    -0.001 C 
ATOM     28  C   UNL     1      35.215 -21.309 -19.578  0.00  0.00    -0.006 C 
BRANCH  26  29
ATOM     29  C   UNL     1      32.723 -21.278 -19.777  0.00  0.00    -0.059 C 
BRANCH  29  30
ATOM     30  N   UNL     1      32.777 -22.268 -18.700  0.00  0.00    +0.383 N 
ATOM     31  H   UNL     1      33.237 -23.113 -19.039  0.00  0.00    -0.089 HD
ATOM     32  H   UNL     1      31.830 -22.494 -18.397  0.00  0.00    -0.089 HD
ATOM     33  H   UNL     1      33.304 -21.887 -17.914  0.00  0.00    -0.089 HD
ENDBRANCH  29  30
ENDBRANCH  26  29
ENDBRANCH   3  23
TORSDOF 7
ENDMDL
MODEL 3
REMARK VINA RESULT:     -11.9      2.319      3.310
REMARK  Name = 657077
REMARK  7 active torsions:
REMARK  status: ('A' for Active; 'I' for Inactive)
REMARK    1  A    between atoms: C_3  and  C_23
REMARK    2  A    between atoms: C_8  and  C_10
REMARK    3  A    between atoms: C_12  and  C_15
REMARK    4  A    between atoms: C_15  and  C_16
REMARK    5  A    between atoms: C_16  and  C_17
REMARK    6  A    between atoms: C_26  and  C_29
REMARK    7  A    between atoms: C_29  and  N_30
REMARK                            x       y       z     vdW  Elec       q    Type
REMARK                         _______ _______ _______ _____ _____    ______ ____
ROOT
ATOM      1  O   UNL     1      32.850 -14.646 -24.910  0.00  0.00    -0.270 OA
ATOM      2  N   UNL     1      34.394 -15.293 -23.277  0.00  0.00    -0.276 N 
ATOM      3  C   UNL     1      35.524 -17.590 -21.927  0.00  0.00    +0.026 C 
ATOM      4  C   UNL     1      34.935 -16.398 -21.146  0.00  0.00    +0.026 C 
ATOM      5  C   UNL     1      34.865 -17.705 -23.315  0.00  0.00    +0.026 C 
ATOM      6  C   UNL     1      35.026 -15.110 -21.964  0.00  0.00    +0.094 C 
ATOM      7  C   UNL     1      34.952 -16.383 -24.077  0.00  0.00    +0.094 C 
ATOM      8  C   UNL     1      33.362 -14.509 -23.800  0.00  0.00    +0.251 C 
ENDROOT
BRANCH   8  10
ATOM      9  N   UNL     1      31.818 -12.756 -20.875  0.00  0.00    -0.242 NA
ATOM     10  C   UNL     1      32.818 -13.434 -22.963  0.00  0.00    +0.072 C 
ATOM     11  C   UNL     1      32.779 -12.126 -23.423  0.00  0.00    +0.003 C 
ATOM     12  C   UNL     1      32.258 -11.127 -22.607  0.00  0.00    -0.003 C 
ATOM     13  C   UNL     1      32.332 -13.699 -21.697  0.00  0.00    +0.103 C 
ATOM     14  C   UNL     1      31.795 -11.491 -21.353  0.00  0.00    +0.095 C 
BRANCH  12  15
ATOM     15  C   UNL     1      32.201  -9.713 -23.065  0.00  0.00    +0.033 C 
BRANCH  15  16
ATOM     16  C   UNL     1      33.265  -8.798 -22.424  0.00  0.00    +0.031 C 
BRANCH  16  17
ATOM     17  C   UNL     1      33.658  -7.637 -23.306  0.00  0.00    -0.022 C 
ATOM     18  C   UNL     1      35.002  -7.366 -23.513  0.00  0.00    -0.004 C 
ATOM     19  C   UNL     1      32.669  -6.864 -23.891  0.00  0.00    -0.004 C 
ATOM     20  C   UNL     1      35.365  -6.294 -24.328  0.00  0.00    -0.000 C 
ATOM     21  C   UNL     1      33.032  -5.792 -24.707  0.00  0.00    -0.000 C 
ATOM     22  C   UNL     1      34.381  -5.507 -24.924  0.00  0.00    -0.000 C 
ENDBRANCH  16  17
ENDBRANCH  15  16
ENDBRANCH  12  15
ENDBRANCH   8  10
BRANCH   3  23
ATOM     23  C   UNL     1      35.430 -18.885 -21.143  0.00  0.00    -0.023 C 
ATOM     24  C   UNL     1      34.183 -19.442 -20.869  0.00  0.00    -0.011 C 
ATOM     25  C   UNL     1      36.592 -19.515 -20.701  0.00  0.00    -0.004 C 
ATOM     26  C   UNL     1      34.096 -20.633 -20.150  0.00  0.00    -0.045 C 
ATOM     27  C   UNL     1      36.505 -20.707 -19.981  0.00  0.00    -0.001 C 
ATOM     28  C   UNL     1      35.258 -21.266 -19.706  0.00  0.00    -0.006 C 
BRANCH  26  29
ATOM     29  C   UNL     1      32.762 -21.234 -19.856  0.00  0.00    -0.059 C 
BRANCH  29  30
ATOM     30  N   UNL     1      32.834 -22.272 -18.826  0.00  0.00    +0.383 N 
ATOM     31  H   UNL     1      33.769 -22.283 -18.418  0.00  0.00    -0.089 HD
ATOM     32  H   UNL     1      32.634 -23.180 -19.244  0.00  0.00    -0.089 HD
ATOM     33  H   UNL     1      32.148 -22.075 -18.096  0.00  0.00    -0.089 HD
ENDBRANCH  29  30
ENDBRANCH  26  29
ENDBRANCH   3  23
TORSDOF 7
ENDMDL
MODEL 4
REMARK VINA RESULT:     -11.1      4.470      7.775
REMARK  Name = 657077
REMARK  7 active torsions:
REMARK  status: ('A' for Active; 'I' for Inactive)
REMARK    1  A    between atoms: C_3  and  C_23
REMARK    2  A    between atoms: C_8  and  C_10
REMARK    3  A    between atoms: C_12  and  C_15
REMARK    4  A    between atoms: C_15  and  C_16
REMARK    5  A    between atoms: C_16  and  C_17
REMARK    6  A    between atoms: C_26  and  C_29
REMARK    7  A    between atoms: C_29  and  N_30
REMARK                            x       y       z     vdW  Elec       q    Type
REMARK                         _______ _______ _______ _____ _____    ______ ____
ROOT
ATOM      1  O   UNL     1      32.014  -8.209 -19.158  0.00  0.00    -0.270 OA
ATOM      2  N   UNL     1      31.638  -9.884 -20.746  0.00  0.00    -0.276 N 
ATOM      3  C   UNL     1      32.200 -12.650 -21.383  0.00  0.00    +0.026 C 
ATOM      4  C   UNL     1      32.468 -11.515 -22.391  0.00  0.00    +0.026 C 
ATOM      5  C   UNL     1      32.267 -12.119 -19.938  0.00  0.00    +0.026 C 
ATOM      6  C   UNL     1      31.535 -10.331 -22.140  0.00  0.00    +0.094 C 
ATOM      7  C   UNL     1      31.343 -10.916 -19.751  0.00  0.00    +0.094 C 
ATOM      8  C   UNL     1      31.954  -8.589 -20.326  0.00  0.00    +0.251 C 
ENDROOT
BRANCH   8  10
ATOM      9  N   UNL     1      31.539  -5.672 -22.635  0.00  0.00    -0.242 NA
ATOM     10  C   UNL     1      32.256  -7.585 -21.352  0.00  0.00    +0.072 C 
ATOM     11  C   UNL     1      33.485  -7.574 -21.996  0.00  0.00    +0.003 C 
ATOM     12  C   UNL     1      33.744  -6.609 -22.964  0.00  0.00    -0.003 C 
ATOM     13  C   UNL     1      31.325  -6.625 -21.700  0.00  0.00    +0.103 C 
ATOM     14  C   UNL     1      32.746  -5.689 -23.244  0.00  0.00    +0.095 C 
BRANCH  12  15
ATOM     15  C   UNL     1      35.049  -6.566 -23.675  0.00  0.00    +0.033 C 
BRANCH  15  16
ATOM     16  C   UNL     1      35.057  -7.312 -25.026  0.00  0.00    +0.031 C 
BRANCH  16  17
ATOM     17  C   UNL     1      35.043  -6.383 -26.216  0.00  0.00    -0.022 C 
ATOM     18  C   UNL     1      35.760  -5.198 -26.162  0.00  0.00    -0.004 C 
ATOM     19  C   UNL     1      34.313  -6.732 -27.340  0.00  0.00    -0.004 C 
ATOM     20  C   UNL     1      35.747  -4.340 -27.261  0.00  0.00    -0.000 C 
ATOM     21  C   UNL     1      34.301  -5.874 -28.441  0.00  0.00    -0.000 C 
ATOM     22  C   UNL     1      35.017  -4.678 -28.400  0.00  0.00    -0.000 C 
ENDBRANCH  16  17
ENDBRANCH  15  16
ENDBRANCH  12  15
ENDBRANCH   8  10
BRANCH   3  23
ATOM     23  C   UNL     1      33.126 -13.832 -21.598  0.00  0.00    -0.023 C 
ATOM     24  C   UNL     1      33.362 -14.303 -22.888  0.00  0.00    -0.011 C 
ATOM     25  C   UNL     1      33.739 -14.442 -20.505  0.00  0.00    -0.004 C 
ATOM     26  C   UNL     1      34.214 -15.389 -23.087  0.00  0.00    -0.045 C 
ATOM     27  C   UNL     1      34.591 -15.529 -20.704  0.00  0.00    -0.001 C 
ATOM     28  C   UNL     1      34.829 -16.002 -21.994  0.00  0.00    -0.006 C 
BRANCH  26  29
ATOM     29  C   UNL     1      34.470 -15.896 -24.467  0.00  0.00    -0.059 C 
BRANCH  29  30
ATOM     30  N   UNL     1      34.364 -17.354 -24.553  0.00  0.00    +0.383 N 
ATOM     31  H   UNL     1      34.836 -17.777 -23.755  0.00  0.00    -0.089 HD
ATOM     32  H   UNL     1      34.800 -17.675 -25.417  0.00  0.00    -0.089 HD
ATOM     33  H   UNL     1      33.380 -17.623 -24.547  0.00  0.00    -0.089 HD
ENDBRANCH  29  30
ENDBRANCH  26  29
ENDBRANCH   3  23
TORSDOF 7
ENDMDL
MODEL 5
REMARK VINA RESULT:     -10.8      4.153     10.924
REMARK  Name = 657077
REMARK  7 active torsions:
REMARK  status: ('A' for Active; 'I' for Inactive)
REMARK    1  A    between atoms: C_3  and  C_23
REMARK    2  A    between atoms: C_8  and  C_10
REMARK    3  A    between atoms: C_12  and  C_15
REMARK    4  A    between atoms: C_15  and  C_16
REMARK    5  A    between atoms: C_16  and  C_17
REMARK    6  A    between atoms: C_26  and  C_29
REMARK    7  A    between atoms: C_29  and  N_30
REMARK                            x       y       z     vdW  Elec       q    Type
REMARK                         _______ _______ _______ _____ _____    ______ ____
ROOT
ATOM      1  O   UNL     1      37.125 -21.622 -17.641  0.00  0.00    -0.270 OA
ATOM      2  N   UNL     1      36.041 -21.087 -19.642  0.00  0.00    -0.276 N 
ATOM      3  C   UNL     1      35.562 -18.941 -21.524  0.00  0.00    +0.026 C 
ATOM      4  C   UNL     1      34.406 -19.760 -20.916  0.00  0.00    +0.026 C 
ATOM      5  C   UNL     1      36.779 -18.938 -20.579  0.00  0.00    +0.026 C 
ATOM      6  C   UNL     1      34.874 -21.163 -20.531  0.00  0.00    +0.094 C 
ATOM      7  C   UNL     1      37.184 -20.361 -20.197  0.00  0.00    +0.094 C 
ATOM      8  C   UNL     1      36.137 -21.664 -18.374  0.00  0.00    +0.251 C 
ENDROOT
BRANCH   8  10
ATOM      9  N   UNL     1      32.717 -23.175 -18.189  0.00  0.00    -0.242 NA
ATOM     10  C   UNL     1      34.966 -22.373 -17.845  0.00  0.00    +0.072 C 
ATOM     11  C   UNL     1      34.974 -22.899 -16.562  0.00  0.00    +0.003 C 
ATOM     12  C   UNL     1      33.849 -23.566 -16.088  0.00  0.00    -0.003 C 
ATOM     13  C   UNL     1      33.830 -22.533 -18.614  0.00  0.00    +0.103 C 
ATOM     14  C   UNL     1      32.757 -23.677 -16.934  0.00  0.00    +0.095 C 
BRANCH  12  15
ATOM     15  C   UNL     1      33.820 -24.144 -14.718  0.00  0.00    +0.033 C 
BRANCH  15  16
ATOM     16  C   UNL     1      32.705 -23.574 -13.816  0.00  0.00    +0.031 C 
BRANCH  16  17
ATOM     17  C   UNL     1      31.327 -24.059 -14.197  0.00  0.00    -0.022 C 
ATOM     18  C   UNL     1      31.007 -25.397 -14.029  0.00  0.00    -0.004 C 
ATOM     19  C   UNL     1      30.408 -23.158 -14.709  0.00  0.00    -0.004 C 
ATOM     20  C   UNL     1      29.735 -25.845 -14.381  0.00  0.00    -0.000 C 
ATOM     21  C   UNL     1      29.134 -23.607 -15.061  0.00  0.00    -0.000 C 
ATOM     22  C   UNL     1      28.798 -24.951 -14.898  0.00  0.00    -0.000 C 
ENDBRANCH  16  17
ENDBRANCH  15  16
ENDBRANCH  12  15
ENDBRANCH   8  10
BRANCH   3  23
ATOM     23  C   UNL     1      35.129 -17.537 -21.900  0.00  0.00    -0.023 C 
ATOM     24  C   UNL     1      34.805 -17.241 -23.222  0.00  0.00    -0.011 C 
ATOM     25  C   UNL     1      35.053 -16.548 -20.920  0.00  0.00    -0.004 C 
ATOM     26  C   UNL     1      34.406 -15.950 -23.568  0.00  0.00    -0.045 C 
ATOM     27  C   UNL     1      34.653 -15.257 -21.266  0.00  0.00    -0.001 C 
ATOM     28  C   UNL     1      34.329 -14.958 -22.589  0.00  0.00    -0.006 C 
BRANCH  26  29
ATOM     29  C   UNL     1      34.058 -15.629 -24.983  0.00  0.00    -0.059 C 
BRANCH  29  30
ATOM     30  N   UNL     1      32.979 -14.644 -25.081  0.00  0.00    +0.383 N 
ATOM     31  H   UNL     1      33.177 -13.999 -25.846  0.00  0.00    -0.089 HD
ATOM     32  H   UNL     1      32.911 -14.125 -24.206  0.00  0.00    -0.089 HD
ATOM     33  H   UNL     1      32.097 -15.124 -25.262  0.00  0.00    -0.089 HD
ENDBRANCH  29  30
ENDBRANCH  26  29
ENDBRANCH   3  23
TORSDOF 7
ENDMDL
MODEL 6
REMARK VINA RESULT:     -10.8      4.167     11.463
REMARK  Name = 657077
REMARK  7 active torsions:
REMARK  status: ('A' for Active; 'I' for Inactive)
REMARK    1  A    between atoms: C_3  and  C_23
REMARK    2  A    between atoms: C_8  and  C_10
REMARK    3  A    between atoms: C_12  and  C_15
REMARK    4  A    between atoms: C_15  and  C_16
REMARK    5  A    between atoms: C_16  and  C_17
REMARK    6  A    between atoms: C_26  and  C_29
REMARK    7  A    between atoms: C_29  and  N_30
REMARK                            x       y       z     vdW  Elec       q    Type
REMARK                         _______ _______ _______ _____ _____    ______ ____
ROOT
ATOM      1  O   UNL     1      37.132 -21.742 -17.604  0.00  0.00    -0.270 OA
ATOM      2  N   UNL     1      35.972 -21.189 -19.558  0.00  0.00    -0.276 N 
ATOM      3  C   UNL     1      35.490 -19.051 -21.448  0.00  0.00    +0.026 C 
ATOM      4  C   UNL     1      34.333 -19.809 -20.769  0.00  0.00    +0.026 C 
ATOM      5  C   UNL     1      36.752 -19.087 -20.565  0.00  0.00    +0.026 C 
ATOM      6  C   UNL     1      34.759 -21.226 -20.385  0.00  0.00    +0.094 C 
ATOM      7  C   UNL     1      37.115 -20.521 -20.180  0.00  0.00    +0.094 C 
ATOM      8  C   UNL     1      36.108 -21.751 -18.286  0.00  0.00    +0.251 C 
ENDROOT
BRANCH   8  10
ATOM      9  N   UNL     1      32.613 -23.026 -17.868  0.00  0.00    -0.242 NA
ATOM     10  C   UNL     1      34.936 -22.401 -17.688  0.00  0.00    +0.072 C 
ATOM     11  C   UNL     1      35.011 -22.987 -16.433  0.00  0.00    +0.003 C 
ATOM     12  C   UNL     1      33.884 -23.596 -15.891  0.00  0.00    -0.003 C 
ATOM     13  C   UNL     1      33.730 -22.444 -18.361  0.00  0.00    +0.103 C 
ATOM     14  C   UNL     1      32.720 -23.588 -16.643  0.00  0.00    +0.095 C 
BRANCH  12  15
ATOM     15  C   UNL     1      33.927 -24.236 -14.550  0.00  0.00    +0.033 C 
BRANCH  15  16
ATOM     16  C   UNL     1      35.071 -25.256 -14.374  0.00  0.00    +0.031 C 
BRANCH  16  17
ATOM     17  C   UNL     1      36.118 -24.808 -13.382  0.00  0.00    -0.022 C 
ATOM     18  C   UNL     1      37.366 -25.410 -13.392  0.00  0.00    -0.004 C 
ATOM     19  C   UNL     1      35.811 -23.803 -12.479  0.00  0.00    -0.004 C 
ATOM     20  C   UNL     1      38.332 -24.996 -12.476  0.00  0.00    -0.000 C 
ATOM     21  C   UNL     1      36.778 -23.388 -11.563  0.00  0.00    -0.000 C 
ATOM     22  C   UNL     1      38.039 -23.985 -11.561  0.00  0.00    -0.000 C 
ENDBRANCH  16  17
ENDBRANCH  15  16
ENDBRANCH  12  15
ENDBRANCH   8  10
BRANCH   3  23
ATOM     23  C   UNL     1      35.099 -17.635 -21.824  0.00  0.00    -0.023 C 
ATOM     24  C   UNL     1      34.807 -17.324 -23.151  0.00  0.00    -0.011 C 
ATOM     25  C   UNL     1      35.031 -16.649 -20.841  0.00  0.00    -0.004 C 
ATOM     26  C   UNL     1      34.446 -16.023 -23.497  0.00  0.00    -0.045 C 
ATOM     27  C   UNL     1      34.670 -15.346 -21.188  0.00  0.00    -0.001 C 
ATOM     28  C   UNL     1      34.377 -15.034 -22.515  0.00  0.00    -0.006 C 
BRANCH  26  29
ATOM     29  C   UNL     1      34.131 -15.687 -24.916  0.00  0.00    -0.059 C 
BRANCH  29  30
ATOM     30  N   UNL     1      33.016 -14.745 -25.032  0.00  0.00    +0.383 N 
ATOM     31  H   UNL     1      32.257 -15.041 -24.418  0.00  0.00    -0.089 HD
ATOM     32  H   UNL     1      32.686 -14.726 -25.996  0.00  0.00    -0.089 HD
ATOM     33  H   UNL     1      33.329 -13.813 -24.759  0.00  0.00    -0.089 HD
ENDBRANCH  29  30
ENDBRANCH  26  29
ENDBRANCH   3  23
TORSDOF 7
ENDMDL
MODEL 7
REMARK VINA RESULT:     -10.5      2.288      4.365
REMARK  Name = 657077
REMARK  7 active torsions:
REMARK  status: ('A' for Active; 'I' for Inactive)
REMARK    1  A    between atoms: C_3  and  C_23
REMARK    2  A    between atoms: C_8  and  C_10
REMARK    3  A    between atoms: C_12  and  C_15
REMARK    4  A    between atoms: C_15  and  C_16
REMARK    5  A    between atoms: C_16  and  C_17
REMARK    6  A    between atoms: C_26  and  C_29
REMARK    7  A    between atoms: C_29  and  N_30
REMARK                            x       y       z     vdW  Elec       q    Type
REMARK                         _______ _______ _______ _____ _____    ______ ____
ROOT
ATOM      1  O   UNL     1      32.063 -11.374 -23.931  0.00  0.00    -0.270 OA
ATOM      2  N   UNL     1      33.724 -12.768 -23.057  0.00  0.00    -0.276 N 
ATOM      3  C   UNL     1      34.838 -15.435 -23.210  0.00  0.00    +0.026 C 
ATOM      4  C   UNL     1      34.413 -14.810 -21.867  0.00  0.00    +0.026 C 
ATOM      5  C   UNL     1      34.031 -14.822 -24.371  0.00  0.00    +0.026 C 
ATOM      6  C   UNL     1      34.501 -13.284 -21.923  0.00  0.00    +0.094 C 
ATOM      7  C   UNL     1      34.123 -13.296 -24.361  0.00  0.00    +0.094 C 
ATOM      8  C   UNL     1      32.696 -11.826 -22.978  0.00  0.00    +0.251 C 
ENDROOT
BRANCH   8  10
ATOM      9  N   UNL     1      31.625 -11.814 -19.390  0.00  0.00    -0.242 NA
ATOM     10  C   UNL     1      32.314 -11.329 -21.651  0.00  0.00    +0.072 C 
ATOM     11  C   UNL     1      32.273  -9.967 -21.387  0.00  0.00    +0.003 C 
ATOM     12  C   UNL     1      31.907  -9.526 -20.119  0.00  0.00    -0.003 C 
ATOM     13  C   UNL     1      31.985 -12.204 -20.634  0.00  0.00    +0.103 C 
ATOM     14  C   UNL     1      31.596 -10.481 -19.165  0.00  0.00    +0.095 C 
BRANCH  12  15
ATOM     15  C   UNL     1      31.853  -8.075 -19.798  0.00  0.00    +0.033 C 
BRANCH  15  16
ATOM     16  C   UNL     1      33.117  -7.290 -20.210  0.00  0.00    +0.031 C 
BRANCH  16  17
ATOM     17  C   UNL     1      32.915  -6.447 -21.447  0.00  0.00    -0.022 C 
ATOM     18  C   UNL     1      31.935  -5.467 -21.448  0.00  0.00    -0.004 C 
ATOM     19  C   UNL     1      33.713  -6.670 -22.557  0.00  0.00    -0.004 C 
ATOM     20  C   UNL     1      31.748  -4.689 -22.591  0.00  0.00    -0.000 C 
ATOM     21  C   UNL     1      33.527  -5.891 -23.699  0.00  0.00    -0.000 C 
ATOM     22  C   UNL     1      32.544  -4.901 -23.716  0.00  0.00    -0.000 C 
ENDBRANCH  16  17
ENDBRANCH  15  16
ENDBRANCH  12  15
ENDBRANCH   8  10
BRANCH   3  23
ATOM     23  C   UNL     1      34.743 -16.949 -23.188  0.00  0.00    -0.023 C 
ATOM     24  C   UNL     1      35.223 -17.658 -22.089  0.00  0.00    -0.011 C 
ATOM     25  C   UNL     1      34.175 -17.625 -24.266  0.00  0.00    -0.004 C 
ATOM     26  C   UNL     1      35.135 -19.049 -22.067  0.00  0.00    -0.045 C 
ATOM     27  C   UNL     1      34.087 -19.017 -24.244  0.00  0.00    -0.001 C 
ATOM     28  C   UNL     1      34.567 -19.729 -23.145  0.00  0.00    -0.006 C 
BRANCH  26  29
ATOM     29  C   UNL     1      35.647 -19.813 -20.892  0.00  0.00    -0.059 C 
BRANCH  29  30
ATOM     30  N   UNL     1      36.896 -19.256 -20.367  0.00  0.00    +0.383 N 
ATOM     31  H   UNL     1      36.690 -18.647 -19.575  0.00  0.00    -0.089 HD
ATOM     32  H   UNL     1      37.361 -18.718 -21.098  0.00  0.00    -0.089 HD
ATOM     33  H   UNL     1      37.504 -20.015 -20.063  0.00  0.00    -0.089 HD
ENDBRANCH  29  30
ENDBRANCH  26  29
ENDBRANCH   3  23
TORSDOF 7
ENDMDL
MODEL 8
REMARK VINA RESULT:     -10.5      6.708     11.325
REMARK  Name = 657077
REMARK  7 active torsions:
REMARK  status: ('A' for Active; 'I' for Inactive)
REMARK    1  A    between atoms: C_3  and  C_23
REMARK    2  A    between atoms: C_8  and  C_10
REMARK    3  A    between atoms: C_12  and  C_15
REMARK    4  A    between atoms: C_15  and  C_16
REMARK    5  A    between atoms: C_16  and  C_17
REMARK    6  A    between atoms: C_26  and  C_29
REMARK    7  A    between atoms: C_29  and  N_30
REMARK                            x       y       z     vdW  Elec       q    Type
REMARK                         _______ _______ _______ _____ _____    ______ ____
ROOT
ATOM      1  O   UNL     1      35.512 -23.051 -13.743  0.00  0.00    -0.270 OA
ATOM      2  N   UNL     1      34.936 -23.464 -15.971  0.00  0.00    -0.276 N 
ATOM      3  C   UNL     1      35.018 -22.344 -18.639  0.00  0.00    +0.026 C 
ATOM      4  C   UNL     1      33.709 -22.874 -18.021  0.00  0.00    +0.026 C 
ATOM      5  C   UNL     1      35.992 -21.888 -17.535  0.00  0.00    +0.026 C 
ATOM      6  C   UNL     1      33.994 -23.959 -16.983  0.00  0.00    +0.094 C 
ATOM      7  C   UNL     1      36.216 -22.995 -16.505  0.00  0.00    +0.094 C 
ATOM      8  C   UNL     1      34.713 -23.441 -14.593  0.00  0.00    +0.251 C 
ENDROOT
BRANCH   8  10
ATOM      9  N   UNL     1      32.165 -25.468 -12.745  0.00  0.00    -0.242 NA
ATOM     10  C   UNL     1      33.413 -23.906 -14.095  0.00  0.00    +0.072 C 
ATOM     11  C   UNL     1      32.239 -23.270 -14.470  0.00  0.00    +0.003 C 
ATOM     12  C   UNL     1      31.022 -23.733 -13.982  0.00  0.00    -0.003 C 
ATOM     13  C   UNL     1      33.328 -24.989 -13.241  0.00  0.00    +0.103 C 
ATOM     14  C   UNL     1      31.039 -24.826 -13.130  0.00  0.00    +0.095 C 
BRANCH  12  15
ATOM     15  C   UNL     1      29.743 -23.076 -14.361  0.00  0.00    +0.033 C 
BRANCH  15  16
ATOM     16  C   UNL     1      28.808 -23.960 -15.214  0.00  0.00    +0.031 C 
BRANCH  16  17
ATOM     17  C   UNL     1      27.730 -23.173 -15.921  0.00  0.00    -0.022 C 
ATOM     18  C   UNL     1      26.788 -22.487 -15.171  0.00  0.00    -0.004 C 
ATOM     19  C   UNL     1      27.702 -23.152 -17.306  0.00  0.00    -0.004 C 
ATOM     20  C   UNL     1      25.792 -21.760 -15.823  0.00  0.00    -0.000 C 
ATOM     21  C   UNL     1      26.707 -22.424 -17.958  0.00  0.00    -0.000 C 
ATOM     22  C   UNL     1      25.751 -21.729 -17.217  0.00  0.00    -0.000 C 
ENDBRANCH  16  17
ENDBRANCH  15  16
ENDBRANCH  12  15
ENDBRANCH   8  10
BRANCH   3  23
ATOM     23  C   UNL     1      34.764 -21.253 -19.661  0.00  0.00    -0.023 C 
ATOM     24  C   UNL     1      35.839 -20.580 -20.240  0.00  0.00    -0.011 C 
ATOM     25  C   UNL     1      33.457 -20.927 -20.019  0.00  0.00    -0.004 C 
ATOM     26  C   UNL     1      35.606 -19.578 -21.181  0.00  0.00    -0.045 C 
ATOM     27  C   UNL     1      33.225 -19.923 -20.960  0.00  0.00    -0.001 C 
ATOM     28  C   UNL     1      34.298 -19.249 -21.541  0.00  0.00    -0.006 C 
BRANCH  26  29
ATOM     29  C   UNL     1      36.754 -18.856 -21.804  0.00  0.00    -0.059 C 
BRANCH  29  30
ATOM     30  N   UNL     1      37.995 -19.025 -21.045  0.00  0.00    +0.383 N 
ATOM     31  H   UNL     1      38.544 -18.167 -21.098  0.00  0.00    -0.089 HD
ATOM     32  H   UNL     1      38.531 -19.797 -21.439  0.00  0.00    -0.089 HD
ATOM     33  H   UNL     1      37.773 -19.226 -20.071  0.00  0.00    -0.089 HD
ENDBRANCH  29  30
ENDBRANCH  26  29
ENDBRANCH   3  23
TORSDOF 7
ENDMDL
MODEL 9
REMARK VINA RESULT:     -10.4      3.842      7.210
REMARK  Name = 657077
REMARK  7 active torsions:
REMARK  status: ('A' for Active; 'I' for Inactive)
REMARK    1  A    between atoms: C_3  and  C_23
REMARK    2  A    between atoms: C_8  and  C_10
REMARK    3  A    between atoms: C_12  and  C_15
REMARK    4  A    between atoms: C_15  and  C_16
REMARK    5  A    between atoms: C_16  and  C_17
REMARK    6  A    between atoms: C_26  and  C_29
REMARK    7  A    between atoms: C_29  and  N_30
REMARK                            x       y       z     vdW  Elec       q    Type
REMARK                         _______ _______ _______ _____ _____    ______ ____
ROOT
ATOM      1  O   UNL     1      32.548 -20.876 -19.954  0.00  0.00    -0.270 OA
ATOM      2  N   UNL     1      34.073 -22.285 -18.878  0.00  0.00    -0.276 N 
ATOM      3  C   UNL     1      34.598 -23.680 -16.398  0.00  0.00    +0.026 C 
ATOM      4  C   UNL     1      35.646 -22.753 -17.044  0.00  0.00    +0.026 C 
ATOM      5  C   UNL     1      33.174 -23.255 -16.806  0.00  0.00    +0.026 C 
ATOM      6  C   UNL     1      35.450 -22.681 -18.559  0.00  0.00    +0.094 C 
ATOM      7  C   UNL     1      33.041 -23.164 -18.326  0.00  0.00    +0.094 C 
ATOM      8  C   UNL     1      33.701 -21.192 -19.665  0.00  0.00    +0.251 C 
ENDROOT
BRANCH   8  10
ATOM      9  N   UNL     1      37.078 -19.648 -20.147  0.00  0.00    -0.242 NA
ATOM     10  C   UNL     1      34.762 -20.325 -20.190  0.00  0.00    +0.072 C 
ATOM     11  C   UNL     1      34.494 -19.394 -21.183  0.00  0.00    +0.003 C 
ATOM     12  C   UNL     1      35.520 -18.586 -21.661  0.00  0.00    -0.003 C 
ATOM     13  C   UNL     1      36.054 -20.415 -19.707  0.00  0.00    +0.103 C 
ATOM     14  C   UNL     1      36.783 -18.751 -21.115  0.00  0.00    +0.095 C 
BRANCH  12  15
ATOM     15  C   UNL     1      35.270 -17.578 -22.725  0.00  0.00    +0.033 C 
BRANCH  15  16
ATOM     16  C   UNL     1      34.990 -16.156 -22.195  0.00  0.00    +0.031 C 
BRANCH  16  17
ATOM     17  C   UNL     1      34.403 -15.238 -23.241  0.00  0.00    -0.022 C 
ATOM     18  C   UNL     1      34.282 -13.885 -22.966  0.00  0.00    -0.004 C 
ATOM     19  C   UNL     1      33.996 -15.766 -24.455  0.00  0.00    -0.004 C 
ATOM     20  C   UNL     1      33.739 -13.038 -23.932  0.00  0.00    -0.000 C 
ATOM     21  C   UNL     1      33.454 -14.918 -25.422  0.00  0.00    -0.000 C 
ATOM     22  C   UNL     1      33.325 -13.553 -25.159  0.00  0.00    -0.000 C 
ENDBRANCH  16  17
ENDBRANCH  15  16
ENDBRANCH  12  15
ENDBRANCH   8  10
BRANCH   3  23
ATOM     23  C   UNL     1      34.759 -23.756 -14.891  0.00  0.00    -0.023 C 
ATOM     24  C   UNL     1      35.995 -23.483 -14.310  0.00  0.00    -0.011 C 
ATOM     25  C   UNL     1      33.668 -24.097 -14.093  0.00  0.00    -0.004 C 
ATOM     26  C   UNL     1      36.143 -23.552 -12.926  0.00  0.00    -0.045 C 
ATOM     27  C   UNL     1      33.817 -24.167 -12.707  0.00  0.00    -0.001 C 
ATOM     28  C   UNL     1      35.053 -23.894 -12.124  0.00  0.00    -0.006 C 
BRANCH  26  29
ATOM     29  C   UNL     1      37.466 -23.260 -12.300  0.00  0.00    -0.059 C 
BRANCH  29  30
ATOM     30  N   UNL     1      37.708 -24.071 -11.105  0.00  0.00    +0.383 N 
ATOM     31  H   UNL     1      37.896 -23.459 -10.311  0.00  0.00    -0.089 HD
ATOM     32  H   UNL     1      38.511 -24.679 -11.264  0.00  0.00    -0.089 HD
ATOM     33  H   UNL     1      36.884 -24.639 -10.908  0.00  0.00    -0.089 HD
ENDBRANCH  29  30
ENDBRANCH  26  29
ENDBRANCH   3  23
TORSDOF 7
ENDMDL
