MODEL 1
REMARK VINA RESULT:     -11.7      0.000      0.000
REMARK  Name = 115368
REMARK  5 active torsions:
REMARK  status: ('A' for Active; 'I' for Inactive)
REMARK    1  A    between atoms: N_2  and  C_17
REMARK    2  A    between atoms: C_17  and  C_18
REMARK    3  A    between atoms: C_18  and  C_19
REMARK    4  A    between atoms: C_19  and  C_20
REMARK    5  A    between atoms: C_20  and  N_23
REMARK                            x       y       z     vdW  Elec       q    Type
REMARK                         _______ _______ _______ _____ _____    ______ ____
ROOT
ATOM      1  S   UNL     1      33.816 -15.948 -25.127  0.00  0.00    +0.014 S 
ATOM      2  N   UNL     1      36.011 -20.408 -20.756  0.00  0.00    +0.389 N 
ATOM      3  N   UNL     1      35.190 -18.335 -22.544  0.00  0.00    -0.297 N 
ATOM      4  N   UNL     1      34.363 -17.413 -24.584  0.00  0.00    -0.194 NA
ATOM      5  C   UNL     1      36.497 -19.034 -20.582  0.00  0.00    -0.055 C 
ATOM      6  C   UNL     1      34.653 -20.398 -21.319  0.00  0.00    -0.055 C 
ATOM      7  C   UNL     1      36.512 -18.277 -21.913  0.00  0.00    +0.069 C 
ATOM      8  C   UNL     1      34.637 -19.689 -22.674  0.00  0.00    +0.069 C 
ATOM      9  C   UNL     1      34.697 -17.293 -23.297  0.00  0.00    +0.140 A 
ATOM     10  C   UNL     1      34.523 -15.998 -22.696  0.00  0.00    +0.040 A 
ATOM     11  C   UNL     1      34.014 -15.104 -23.641  0.00  0.00    +0.050 A 
ATOM     12  C   UNL     1      34.770 -15.525 -21.388  0.00  0.00    +0.003 C 
ATOM     13  C   UNL     1      33.744 -13.762 -23.332  0.00  0.00    +0.008 C 
ATOM     14  C   UNL     1      34.503 -14.191 -21.070  0.00  0.00    +0.000 C 
ATOM     15  C   UNL     1      33.998 -13.322 -22.031  0.00  0.00    +0.001 C 
ATOM     16  H   UNL     1      36.629 -20.893 -21.406  0.00  0.00    -0.080 HD
ENDROOT
BRANCH   2  17
ATOM     17  C   UNL     1      36.033 -21.127 -19.482  0.00  0.00    -0.077 C 
BRANCH  17  18
ATOM     18  C   UNL     1      34.681 -21.787 -19.221  0.00  0.00    -0.021 C 
BRANCH  18  19
ATOM     19  C   UNL     1      34.719 -22.640 -17.948  0.00  0.00    +0.020 C 
BRANCH  19  20
ATOM     20  C   UNL     1      33.520 -23.577 -17.835  0.00  0.00    +0.101 C 
BRANCH  20  23
ATOM     21  O   UNL     1      34.482 -24.498 -15.192  0.00  0.00    -0.274 OA
ATOM     22  O   UNL     1      30.879 -22.448 -17.243  0.00  0.00    -0.274 OA
ATOM     23  N   UNL     1      32.863 -23.479 -16.547  0.00  0.00    -0.230 N 
ATOM     24  C   UNL     1      32.512 -23.418 -14.254  0.00  0.00    +0.086 C 
ATOM     25  C   UNL     1      31.167 -23.235 -14.966  0.00  0.00    +0.086 C 
ATOM     26  C   UNL     1      32.500 -24.290 -13.005  0.00  0.00    +0.010 C 
ATOM     27  C   UNL     1      30.264 -24.473 -14.954  0.00  0.00    +0.010 C 
ATOM     28  C   UNL     1      31.630 -25.532 -13.143  0.00  0.00    +0.001 C 
ATOM     29  C   UNL     1      30.225 -25.163 -13.599  0.00  0.00    +0.001 C 
ATOM     30  C   UNL     1      33.427 -23.905 -15.358  0.00  0.00    +0.231 C 
ATOM     31  C   UNL     1      31.590 -22.964 -16.392  0.00  0.00    +0.231 C 
ENDBRANCH  20  23
ENDBRANCH  19  20
ENDBRANCH  18  19
ENDBRANCH  17  18
ENDBRANCH   2  17
TORSDOF 5
ENDMDL
MODEL 2
REMARK VINA RESULT:     -11.5      2.032      2.740
REMARK  Name = 115368
REMARK  5 active torsions:
REMARK  status: ('A' for Active; 'I' for Inactive)
REMARK    1  A    between atoms: N_2  and  C_17
REMARK    2  A    between atoms: C_17  and  C_18
REMARK    3  A    between atoms: C_18  and  C_19
REMARK    4  A    between atoms: C_19  and  C_20
REMARK    5  A    between atoms: C_20  and  N_23
REMARK                            x       y       z     vdW  Elec       q    Type
REMARK                         _______ _______ _______ _____ _____    ______ ____
ROOT
ATOM      1  S   UNL     1      33.801 -14.639 -25.617  0.00  0.00    +0.014 S 
ATOM      2  N   UNL     1      35.196 -19.647 -21.520  0.00  0.00    +0.389 N 
ATOM      3  N   UNL     1      34.673 -17.350 -23.137  0.00  0.00    -0.297 N 
ATOM      4  N   UNL     1      34.330 -16.142 -25.166  0.00  0.00    -0.194 NA
ATOM      5  C   UNL     1      35.476 -18.298 -21.015  0.00  0.00    -0.055 C 
ATOM      6  C   UNL     1      34.043 -19.618 -22.431  0.00  0.00    -0.055 C 
ATOM      7  C   UNL     1      35.768 -17.325 -22.161  0.00  0.00    +0.069 C 
ATOM      8  C   UNL     1      34.316 -18.691 -23.616  0.00  0.00    +0.069 C 
ATOM      9  C   UNL     1      34.295 -16.224 -23.835  0.00  0.00    +0.140 A 
ATOM     10  C   UNL     1      33.837 -15.063 -23.121  0.00  0.00    +0.040 A 
ATOM     11  C   UNL     1      33.509 -14.052 -24.027  0.00  0.00    +0.050 A 
ATOM     12  C   UNL     1      33.677 -14.807 -21.741  0.00  0.00    +0.003 C 
ATOM     13  C   UNL     1      33.032 -12.800 -23.610  0.00  0.00    +0.008 C 
ATOM     14  C   UNL     1      33.201 -13.564 -21.315  0.00  0.00    +0.000 C 
ATOM     15  C   UNL     1      32.884 -12.574 -22.239  0.00  0.00    +0.001 C 
ATOM     16  H   UNL     1      36.011 -19.979 -22.036  0.00  0.00    -0.080 HD
ENDROOT
BRANCH   2  17
ATOM     17  C   UNL     1      34.952 -20.571 -20.412  0.00  0.00    -0.077 C 
BRANCH  17  18
ATOM     18  C   UNL     1      33.453 -20.814 -20.243  0.00  0.00    -0.021 C 
BRANCH  18  19
ATOM     19  C   UNL     1      33.158 -21.563 -18.939  0.00  0.00    +0.020 C 
BRANCH  19  20
ATOM     20  C   UNL     1      34.078 -22.762 -18.731  0.00  0.00    +0.101 C 
BRANCH  20  23
ATOM     21  O   UNL     1      36.738 -22.166 -17.580  0.00  0.00    -0.274 OA
ATOM     22  O   UNL     1      32.538 -23.719 -16.426  0.00  0.00    -0.274 OA
ATOM     23  N   UNL     1      34.520 -22.887 -17.356  0.00  0.00    -0.230 N 
ATOM     24  C   UNL     1      35.743 -22.613 -15.404  0.00  0.00    +0.086 C 
ATOM     25  C   UNL     1      34.585 -23.579 -15.131  0.00  0.00    +0.086 C 
ATOM     26  C   UNL     1      37.074 -22.956 -14.748  0.00  0.00    +0.010 C 
ATOM     27  C   UNL     1      34.990 -25.054 -15.040  0.00  0.00    +0.010 C 
ATOM     28  C   UNL     1      37.405 -24.442 -14.792  0.00  0.00    +0.001 C 
ATOM     29  C   UNL     1      36.258 -25.270 -14.228  0.00  0.00    +0.001 C 
ATOM     30  C   UNL     1      35.782 -22.535 -16.916  0.00  0.00    +0.231 C 
ATOM     31  C   UNL     1      33.715 -23.395 -16.354  0.00  0.00    +0.231 C 
ENDBRANCH  20  23
ENDBRANCH  19  20
ENDBRANCH  18  19
ENDBRANCH  17  18
ENDBRANCH   2  17
TORSDOF 5
ENDMDL
MODEL 3
REMARK VINA RESULT:     -11.2      4.276     10.437
REMARK  Name = 115368
REMARK  5 active torsions:
REMARK  status: ('A' for Active; 'I' for Inactive)
REMARK    1  A    between atoms: N_2  and  C_17
REMARK    2  A    between atoms: C_17  and  C_18
REMARK    3  A    between atoms: C_18  and  C_19
REMARK    4  A    between atoms: C_19  and  C_20
REMARK    5  A    between atoms: C_20  and  N_23
REMARK                            x       y       z     vdW  Elec       q    Type
REMARK                         _______ _______ _______ _____ _____    ______ ____
ROOT
ATOM      1  S   UNL     1      36.832 -21.429 -18.770  0.00  0.00    +0.014 S 
ATOM      2  N   UNL     1      34.748 -17.660 -23.796  0.00  0.00    +0.389 N 
ATOM      3  N   UNL     1      35.495 -19.432 -21.682  0.00  0.00    -0.297 N 
ATOM      4  N   UNL     1      36.957 -20.417 -20.075  0.00  0.00    -0.194 NA
ATOM      5  C   UNL     1      34.006 -18.904 -23.566  0.00  0.00    -0.055 C 
ATOM      6  C   UNL     1      35.263 -17.134 -22.524  0.00  0.00    -0.055 C 
ATOM      7  C   UNL     1      34.890 -19.966 -22.907  0.00  0.00    +0.069 C 
ATOM      8  C   UNL     1      36.190 -18.151 -21.856  0.00  0.00    +0.069 C 
ATOM      9  C   UNL     1      35.739 -20.227 -20.584  0.00  0.00    +0.140 A 
ATOM     10  C   UNL     1      34.647 -20.901 -19.935  0.00  0.00    +0.040 A 
ATOM     11  C   UNL     1      35.127 -21.643 -18.854  0.00  0.00    +0.050 A 
ATOM     12  C   UNL     1      33.260 -20.924 -20.203  0.00  0.00    +0.003 C 
ATOM     13  C   UNL     1      34.280 -22.405 -18.034  0.00  0.00    +0.008 C 
ATOM     14  C   UNL     1      32.408 -21.679 -19.392  0.00  0.00    +0.000 C 
ATOM     15  C   UNL     1      32.914 -22.410 -18.323  0.00  0.00    +0.001 C 
ATOM     16  H   UNL     1      35.539 -17.860 -24.409  0.00  0.00    -0.080 HD
ENDROOT
BRANCH   2  17
ATOM     17  C   UNL     1      33.899 -16.668 -24.456  0.00  0.00    -0.077 C 
BRANCH  17  18
ATOM     18  C   UNL     1      34.454 -15.262 -24.234  0.00  0.00    -0.021 C 
BRANCH  18  19
ATOM     19  C   UNL     1      33.368 -14.316 -23.710  0.00  0.00    +0.020 C 
BRANCH  19  20
ATOM     20  C   UNL     1      33.839 -13.486 -22.520  0.00  0.00    +0.101 C 
BRANCH  20  23
ATOM     21  O   UNL     1      33.224 -10.736 -23.422  0.00  0.00    -0.274 OA
ATOM     22  O   UNL     1      31.899 -13.946 -20.368  0.00  0.00    -0.274 OA
ATOM     23  N   UNL     1      32.814 -12.582 -22.038  0.00  0.00    -0.230 N 
ATOM     24  C   UNL     1      31.303 -10.825 -21.930  0.00  0.00    +0.086 C 
ATOM     25  C   UNL     1      31.215 -11.634 -20.631  0.00  0.00    +0.086 C 
ATOM     26  C   UNL     1      31.211  -9.311 -21.788  0.00  0.00    +0.010 C 
ATOM     27  C   UNL     1      31.888 -10.976 -19.421  0.00  0.00    +0.010 C 
ATOM     28  C   UNL     1      31.986  -8.767 -20.595  0.00  0.00    +0.001 C 
ATOM     29  C   UNL     1      31.588  -9.488 -19.315  0.00  0.00    +0.001 C 
ATOM     30  C   UNL     1      32.583 -11.325 -22.566  0.00  0.00    +0.231 C 
ATOM     31  C   UNL     1      31.979 -12.891 -20.981  0.00  0.00    +0.231 C 
ENDBRANCH  20  23
ENDBRANCH  19  20
ENDBRANCH  18  19
ENDBRANCH  17  18
ENDBRANCH   2  17
TORSDOF 5
ENDMDL
MODEL 4
REMARK VINA RESULT:     -10.8      8.369     14.599
REMARK  Name = 115368
REMARK  5 active torsions:
REMARK  status: ('A' for Active; 'I' for Inactive)
REMARK    1  A    between atoms: N_2  and  C_17
REMARK    2  A    between atoms: C_17  and  C_18
REMARK    3  A    between atoms: C_18  and  C_19
REMARK    4  A    between atoms: C_19  and  C_20
REMARK    5  A    between atoms: C_20  and  N_23
REMARK                            x       y       z     vdW  Elec       q    Type
REMARK                         _______ _______ _______ _____ _____    ______ ____
ROOT
ATOM      1  S   UNL     1      33.759 -14.784 -24.740  0.00  0.00    +0.014 S 
ATOM      2  N   UNL     1      31.607  -9.950 -20.762  0.00  0.00    +0.389 N 
ATOM      3  N   UNL     1      32.485 -12.179 -22.321  0.00  0.00    -0.297 N 
ATOM      4  N   UNL     1      32.986 -13.380 -24.321  0.00  0.00    -0.194 NA
ATOM      5  C   UNL     1      31.579 -11.309 -20.207  0.00  0.00    -0.055 C 
ATOM      6  C   UNL     1      32.725  -9.811 -21.705  0.00  0.00    -0.055 C 
ATOM      7  C   UNL     1      31.435 -12.358 -21.313  0.00  0.00    +0.069 C 
ATOM      8  C   UNL     1      32.591 -10.814 -22.852  0.00  0.00    +0.069 C 
ATOM      9  C   UNL     1      33.037 -13.246 -22.994  0.00  0.00    +0.140 A 
ATOM     10  C   UNL     1      33.708 -14.284 -22.258  0.00  0.00    +0.040 A 
ATOM     11  C   UNL     1      34.185 -15.254 -23.141  0.00  0.00    +0.050 A 
ATOM     12  C   UNL     1      33.942 -14.458 -20.876  0.00  0.00    +0.003 C 
ATOM     13  C   UNL     1      34.884 -16.388 -22.699  0.00  0.00    +0.008 C 
ATOM     14  C   UNL     1      34.637 -15.584 -20.426  0.00  0.00    +0.000 C 
ATOM     15  C   UNL     1      35.101 -16.536 -21.327  0.00  0.00    +0.001 C 
ATOM     16  H   UNL     1      30.735  -9.785 -21.264  0.00  0.00    -0.080 HD
ENDROOT
BRANCH   2  17
ATOM     17  C   UNL     1      31.712  -8.959 -19.691  0.00  0.00    -0.077 C 
BRANCH  17  18
ATOM     18  C   UNL     1      32.546  -7.766 -20.151  0.00  0.00    -0.021 C 
BRANCH  18  19
ATOM     19  C   UNL     1      31.675  -6.723 -20.860  0.00  0.00    +0.020 C 
BRANCH  19  20
ATOM     20  C   UNL     1      32.495  -5.589 -21.467  0.00  0.00    +0.101 C 
BRANCH  20  23
ATOM     21  O   UNL     1      34.755  -7.023 -22.730  0.00  0.00    -0.274 OA
ATOM     22  O   UNL     1      30.931  -4.634 -23.757  0.00  0.00    -0.274 OA
ATOM     23  N   UNL     1      32.764  -5.796 -22.877  0.00  0.00    -0.230 N 
ATOM     24  C   UNL     1      33.611  -6.674 -24.849  0.00  0.00    +0.086 C 
ATOM     25  C   UNL     1      32.691  -5.495 -25.187  0.00  0.00    +0.086 C 
ATOM     26  C   UNL     1      34.885  -6.792 -25.677  0.00  0.00    +0.010 C 
ATOM     27  C   UNL     1      33.421  -4.207 -25.583  0.00  0.00    +0.010 C 
ATOM     28  C   UNL     1      35.564  -5.454 -25.937  0.00  0.00    +0.001 C 
ATOM     29  C   UNL     1      34.582  -4.454 -26.534  0.00  0.00    +0.001 C 
ATOM     30  C   UNL     1      33.834  -6.526 -23.359  0.00  0.00    +0.231 C 
ATOM     31  C   UNL     1      31.976  -5.257 -23.876  0.00  0.00    +0.231 C 
ENDBRANCH  20  23
ENDBRANCH  19  20
ENDBRANCH  18  19
ENDBRANCH  17  18
ENDBRANCH   2  17
TORSDOF 5
ENDMDL
MODEL 5
REMARK VINA RESULT:     -10.6      3.700     10.236
REMARK  Name = 115368
REMARK  5 active torsions:
REMARK  status: ('A' for Active; 'I' for Inactive)
REMARK    1  A    between atoms: N_2  and  C_17
REMARK    2  A    between atoms: C_17  and  C_18
REMARK    3  A    between atoms: C_18  and  C_19
REMARK    4  A    between atoms: C_19  and  C_20
REMARK    5  A    between atoms: C_20  and  N_23
REMARK                            x       y       z     vdW  Elec       q    Type
REMARK                         _______ _______ _______ _____ _____    ______ ____
ROOT
ATOM      1  S   UNL     1      34.640 -24.967 -14.216  0.00  0.00    +0.014 S 
ATOM      2  N   UNL     1      35.014 -21.503 -19.845  0.00  0.00    +0.389 N 
ATOM      3  N   UNL     1      34.646 -23.046 -17.468  0.00  0.00    -0.297 N 
ATOM      4  N   UNL     1      35.315 -24.395 -15.616  0.00  0.00    -0.194 NA
ATOM      5  C   UNL     1      33.711 -22.107 -19.539  0.00  0.00    -0.055 C 
ATOM      6  C   UNL     1      35.709 -21.142 -18.602  0.00  0.00    -0.055 C 
ATOM      7  C   UNL     1      33.869 -23.359 -18.671  0.00  0.00    +0.069 C 
ATOM      8  C   UNL     1      35.927 -22.378 -17.728  0.00  0.00    +0.069 C 
ATOM      9  C   UNL     1      34.402 -23.667 -16.263  0.00  0.00    +0.140 A 
ATOM     10  C   UNL     1      33.109 -23.544 -15.646  0.00  0.00    +0.040 A 
ATOM     11  C   UNL     1      33.092 -24.250 -14.441  0.00  0.00    +0.050 A 
ATOM     12  C   UNL     1      31.935 -22.866 -16.044  0.00  0.00    +0.003 C 
ATOM     13  C   UNL     1      31.955 -24.304 -13.622  0.00  0.00    +0.008 C 
ATOM     14  C   UNL     1      30.797 -22.914 -15.235  0.00  0.00    +0.000 C 
ATOM     15  C   UNL     1      30.808 -23.625 -14.040  0.00  0.00    +0.001 C 
ATOM     16  H   UNL     1      35.580 -22.186 -20.348  0.00  0.00    -0.080 HD
ENDROOT
BRANCH   2  17
ATOM     17  C   UNL     1      34.848 -20.329 -20.701  0.00  0.00    -0.077 C 
BRANCH  17  18
ATOM     18  C   UNL     1      36.153 -19.539 -20.777  0.00  0.00    -0.021 C 
BRANCH  18  19
ATOM     19  C   UNL     1      36.310 -18.861 -22.143  0.00  0.00    +0.020 C 
BRANCH  19  20
ATOM     20  C   UNL     1      34.984 -18.361 -22.705  0.00  0.00    +0.101 C 
BRANCH  20  23
ATOM     21  O   UNL     1      34.753 -16.577 -20.355  0.00  0.00    -0.274 OA
ATOM     22  O   UNL     1      34.905 -16.508 -24.976  0.00  0.00    -0.274 OA
ATOM     23  N   UNL     1      34.879 -16.916 -22.671  0.00  0.00    -0.230 N 
ATOM     24  C   UNL     1      34.944 -14.722 -21.919  0.00  0.00    +0.086 C 
ATOM     25  C   UNL     1      34.479 -14.731 -23.380  0.00  0.00    +0.086 C 
ATOM     26  C   UNL     1      34.241 -13.734 -20.997  0.00  0.00    +0.010 C 
ATOM     27  C   UNL     1      32.978 -14.497 -23.576  0.00  0.00    +0.010 C 
ATOM     28  C   UNL     1      32.739 -13.649 -21.232  0.00  0.00    +0.001 C 
ATOM     29  C   UNL     1      32.435 -13.378 -22.700  0.00  0.00    +0.001 C 
ATOM     30  C   UNL     1      34.821 -16.173 -21.506  0.00  0.00    +0.231 C 
ATOM     31  C   UNL     1      34.806 -16.143 -23.814  0.00  0.00    +0.231 C 
ENDBRANCH  20  23
ENDBRANCH  19  20
ENDBRANCH  18  19
ENDBRANCH  17  18
ENDBRANCH   2  17
TORSDOF 5
ENDMDL
MODEL 6
REMARK VINA RESULT:     -10.6      4.556     10.853
REMARK  Name = 115368
REMARK  5 active torsions:
REMARK  status: ('A' for Active; 'I' for Inactive)
REMARK    1  A    between atoms: N_2  and  C_17
REMARK    2  A    between atoms: C_17  and  C_18
REMARK    3  A    between atoms: C_18  and  C_19
REMARK    4  A    between atoms: C_19  and  C_20
REMARK    5  A    between atoms: C_20  and  N_23
REMARK                            x       y       z     vdW  Elec       q    Type
REMARK                         _______ _______ _______ _____ _____    ______ ____
ROOT
ATOM      1  S   UNL     1      35.697 -25.002 -11.732  0.00  0.00    +0.014 S 
ATOM      2  N   UNL     1      34.562 -22.344 -17.688  0.00  0.00    +0.389 N 
ATOM      3  N   UNL     1      35.260 -23.428 -15.137  0.00  0.00    -0.297 N 
ATOM      4  N   UNL     1      34.878 -24.156 -12.897  0.00  0.00    -0.194 NA
ATOM      5  C   UNL     1      35.949 -22.294 -17.208  0.00  0.00    -0.055 C 
ATOM      6  C   UNL     1      33.892 -23.547 -17.175  0.00  0.00    -0.055 C 
ATOM      7  C   UNL     1      36.007 -22.288 -15.678  0.00  0.00    +0.069 C 
ATOM      8  C   UNL     1      33.889 -23.553 -15.646  0.00  0.00    +0.069 C 
ATOM      9  C   UNL     1      35.649 -24.071 -13.983  0.00  0.00    +0.140 A 
ATOM     10  C   UNL     1      36.945 -24.691 -13.914  0.00  0.00    +0.040 A 
ATOM     11  C   UNL     1      37.120 -25.278 -12.659  0.00  0.00    +0.050 A 
ATOM     12  C   UNL     1      37.994 -24.790 -14.855  0.00  0.00    +0.003 C 
ATOM     13  C   UNL     1      38.297 -25.957 -12.309  0.00  0.00    +0.008 C 
ATOM     14  C   UNL     1      39.170 -25.465 -14.516  0.00  0.00    +0.000 C 
ATOM     15  C   UNL     1      39.318 -26.040 -13.258  0.00  0.00    +0.001 C 
ATOM     16  H   UNL     1      34.067 -21.523 -17.341  0.00  0.00    -0.080 HD
ENDROOT
BRANCH   2  17
ATOM     17  C   UNL     1      34.523 -22.317 -19.150  0.00  0.00    -0.077 C 
BRANCH  17  18
ATOM     18  C   UNL     1      35.875 -21.879 -19.710  0.00  0.00    -0.021 C 
BRANCH  18  19
ATOM     19  C   UNL     1      35.863 -20.393 -20.084  0.00  0.00    +0.020 C 
BRANCH  19  20
ATOM     20  C   UNL     1      34.622 -19.998 -20.877  0.00  0.00    +0.101 C 
BRANCH  20  23
ATOM     21  O   UNL     1      35.000 -17.089 -20.489  0.00  0.00    -0.274 OA
ATOM     22  O   UNL     1      34.903 -20.340 -23.776  0.00  0.00    -0.274 OA
ATOM     23  N   UNL     1      34.902 -18.980 -21.870  0.00  0.00    -0.230 N 
ATOM     24  C   UNL     1      35.582 -16.991 -22.850  0.00  0.00    +0.086 C 
ATOM     25  C   UNL     1      35.049 -17.924 -23.943  0.00  0.00    +0.086 C 
ATOM     26  C   UNL     1      35.216 -15.518 -22.987  0.00  0.00    +0.010 C 
ATOM     27  C   UNL     1      33.653 -17.569 -24.465  0.00  0.00    +0.010 C 
ATOM     28  C   UNL     1      33.778 -15.290 -23.434  0.00  0.00    +0.001 C 
ATOM     29  C   UNL     1      33.473 -16.077 -24.701  0.00  0.00    +0.001 C 
ATOM     30  C   UNL     1      35.106 -17.646 -21.571  0.00  0.00    +0.231 C 
ATOM     31  C   UNL     1      34.969 -19.252 -23.223  0.00  0.00    +0.231 C 
ENDBRANCH  20  23
ENDBRANCH  19  20
ENDBRANCH  18  19
ENDBRANCH  17  18
ENDBRANCH   2  17
TORSDOF 5
ENDMDL
MODEL 7
REMARK VINA RESULT:     -10.5      2.231      3.216
REMARK  Name = 115368
REMARK  5 active torsions:
REMARK  status: ('A' for Active; 'I' for Inactive)
REMARK    1  A    between atoms: N_2  and  C_17
REMARK    2  A    between atoms: C_17  and  C_18
REMARK    3  A    between atoms: C_18  and  C_19
REMARK    4  A    between atoms: C_19  and  C_20
REMARK    5  A    between atoms: C_20  and  N_23
REMARK                            x       y       z     vdW  Elec       q    Type
REMARK                         _______ _______ _______ _____ _____    ______ ____
ROOT
ATOM      1  S   UNL     1      34.074 -14.842 -25.541  0.00  0.00    +0.014 S 
ATOM      2  N   UNL     1      35.345 -19.784 -21.325  0.00  0.00    +0.389 N 
ATOM      3  N   UNL     1      34.876 -17.513 -22.996  0.00  0.00    -0.297 N 
ATOM      4  N   UNL     1      34.575 -16.343 -25.053  0.00  0.00    -0.194 NA
ATOM      5  C   UNL     1      35.640 -18.429 -20.845  0.00  0.00    -0.055 C 
ATOM      6  C   UNL     1      34.204 -19.757 -22.250  0.00  0.00    -0.055 C 
ATOM      7  C   UNL     1      35.959 -17.484 -22.007  0.00  0.00    +0.069 C 
ATOM      8  C   UNL     1      34.504 -18.858 -23.450  0.00  0.00    +0.069 C 
ATOM      9  C   UNL     1      34.524 -16.397 -23.721  0.00  0.00    +0.140 A 
ATOM     10  C   UNL     1      34.075 -15.214 -23.036  0.00  0.00    +0.040 A 
ATOM     11  C   UNL     1      33.773 -14.217 -23.967  0.00  0.00    +0.050 A 
ATOM     12  C   UNL     1      33.903 -14.927 -21.664  0.00  0.00    +0.003 C 
ATOM     13  C   UNL     1      33.310 -12.950 -23.581  0.00  0.00    +0.008 C 
ATOM     14  C   UNL     1      33.441 -13.669 -21.270  0.00  0.00    +0.000 C 
ATOM     15  C   UNL     1      33.149 -12.694 -22.218  0.00  0.00    +0.001 C 
ATOM     16  H   UNL     1      36.161 -20.138 -21.825  0.00  0.00    -0.080 HD
ENDROOT
BRANCH   2  17
ATOM     17  C   UNL     1      35.074 -20.681 -20.201  0.00  0.00    -0.077 C 
BRANCH  17  18
ATOM     18  C   UNL     1      36.372 -21.026 -19.472  0.00  0.00    -0.021 C 
BRANCH  18  19
ATOM     19  C   UNL     1      36.149 -22.140 -18.444  0.00  0.00    +0.020 C 
BRANCH  19  20
ATOM     20  C   UNL     1      36.444 -21.688 -17.018  0.00  0.00    +0.101 C 
BRANCH  20  23
ATOM     21  O   UNL     1      34.033 -22.969 -15.878  0.00  0.00    -0.274 OA
ATOM     22  O   UNL     1      38.652 -23.120 -15.723  0.00  0.00    -0.274 OA
ATOM     23  N   UNL     1      36.361 -22.777 -16.065  0.00  0.00    -0.230 N 
ATOM     24  C   UNL     1      35.544 -24.565 -14.833  0.00  0.00    +0.086 C 
ATOM     25  C   UNL     1      36.985 -24.279 -14.395  0.00  0.00    +0.086 C 
ATOM     26  C   UNL     1      34.564 -24.928 -13.724  0.00  0.00    +0.010 C 
ATOM     27  C   UNL     1      37.113 -23.559 -13.048  0.00  0.00    +0.010 C 
ATOM     28  C   UNL     1      34.737 -24.090 -12.465  0.00  0.00    +0.001 C 
ATOM     29  C   UNL     1      36.182 -24.123 -11.985  0.00  0.00    +0.001 C 
ATOM     30  C   UNL     1      35.172 -23.333 -15.631  0.00  0.00    +0.231 C 
ATOM     31  C   UNL     1      37.475 -23.350 -15.483  0.00  0.00    +0.231 C 
ENDBRANCH  20  23
ENDBRANCH  19  20
ENDBRANCH  18  19
ENDBRANCH  17  18
ENDBRANCH   2  17
TORSDOF 5
ENDMDL
MODEL 8
REMARK VINA RESULT:     -10.4      1.619      2.837
REMARK  Name = 115368
REMARK  5 active torsions:
REMARK  status: ('A' for Active; 'I' for Inactive)
REMARK    1  A    between atoms: N_2  and  C_17
REMARK    2  A    between atoms: C_17  and  C_18
REMARK    3  A    between atoms: C_18  and  C_19
REMARK    4  A    between atoms: C_19  and  C_20
REMARK    5  A    between atoms: C_20  and  N_23
REMARK                            x       y       z     vdW  Elec       q    Type
REMARK                         _______ _______ _______ _____ _____    ______ ____
ROOT
ATOM      1  S   UNL     1      33.785 -12.952 -24.200  0.00  0.00    +0.014 S 
ATOM      2  N   UNL     1      35.211 -19.076 -22.132  0.00  0.00    +0.389 N 
ATOM      3  N   UNL     1      34.624 -16.365 -22.820  0.00  0.00    -0.297 N 
ATOM      4  N   UNL     1      34.460 -14.463 -24.251  0.00  0.00    -0.194 NA
ATOM      5  C   UNL     1      35.176 -18.034 -21.100  0.00  0.00    -0.055 C 
ATOM      6  C   UNL     1      34.252 -18.764 -23.200  0.00  0.00    -0.055 C 
ATOM      7  C   UNL     1      35.508 -16.658 -21.686  0.00  0.00    +0.069 C 
ATOM      8  C   UNL     1      34.579 -17.416 -23.843  0.00  0.00    +0.069 C 
ATOM      9  C   UNL     1      34.201 -15.084 -23.099  0.00  0.00    +0.140 A 
ATOM     10  C   UNL     1      33.442 -14.354 -22.120  0.00  0.00    +0.040 A 
ATOM     11  C   UNL     1      33.123 -13.089 -22.618  0.00  0.00    +0.050 A 
ATOM     12  C   UNL     1      32.998 -14.698 -20.823  0.00  0.00    +0.003 C 
ATOM     13  C   UNL     1      32.383 -12.157 -21.875  0.00  0.00    +0.008 C 
ATOM     14  C   UNL     1      32.260 -13.777 -20.075  0.00  0.00    +0.000 C 
ATOM     15  C   UNL     1      31.958 -12.523 -20.595  0.00  0.00    +0.001 C 
ATOM     16  H   UNL     1      36.148 -19.105 -22.535  0.00  0.00    -0.080 HD
ENDROOT
BRANCH   2  17
ATOM     17  C   UNL     1      34.925 -20.387 -21.550  0.00  0.00    -0.077 C 
BRANCH  17  18
ATOM     18  C   UNL     1      35.755 -20.600 -20.285  0.00  0.00    -0.021 C 
BRANCH  18  19
ATOM     19  C   UNL     1      35.369 -21.906 -19.585  0.00  0.00    +0.020 C 
BRANCH  19  20
ATOM     20  C   UNL     1      35.666 -21.879 -18.089  0.00  0.00    +0.101 C 
BRANCH  20  23
ATOM     21  O   UNL     1      32.749 -22.247 -18.426  0.00  0.00    -0.274 OA
ATOM     22  O   UNL     1      36.311 -23.610 -15.811  0.00  0.00    -0.274 OA
ATOM     23  N   UNL     1      34.765 -22.726 -17.331  0.00  0.00    -0.230 N 
ATOM     24  C   UNL     1      32.913 -23.988 -16.733  0.00  0.00    +0.086 C 
ATOM     25  C   UNL     1      33.932 -24.030 -15.589  0.00  0.00    +0.086 C 
ATOM     26  C   UNL     1      31.449 -23.877 -16.327  0.00  0.00    +0.010 C 
ATOM     27  C   UNL     1      33.578 -23.153 -14.384  0.00  0.00    +0.010 C 
ATOM     28  C   UNL     1      31.213 -22.914 -15.171  0.00  0.00    +0.001 C 
ATOM     29  C   UNL     1      32.112 -23.253 -13.990  0.00  0.00    +0.001 C 
ATOM     30  C   UNL     1      33.417 -22.857 -17.605  0.00  0.00    +0.231 C 
ATOM     31  C   UNL     1      35.176 -23.470 -16.242  0.00  0.00    +0.231 C 
ENDBRANCH  20  23
ENDBRANCH  19  20
ENDBRANCH  18  19
ENDBRANCH  17  18
ENDBRANCH   2  17
TORSDOF 5
ENDMDL
MODEL 9
REMARK VINA RESULT:     -10.3      8.418     12.159
REMARK  Name = 115368
REMARK  5 active torsions:
REMARK  status: ('A' for Active; 'I' for Inactive)
REMARK    1  A    between atoms: N_2  and  C_17
REMARK    2  A    between atoms: C_17  and  C_18
REMARK    3  A    between atoms: C_18  and  C_19
REMARK    4  A    between atoms: C_19  and  C_20
REMARK    5  A    between atoms: C_20  and  N_23
REMARK                            x       y       z     vdW  Elec       q    Type
REMARK                         _______ _______ _______ _____ _____    ______ ____
ROOT
ATOM      1  S   UNL     1      31.851  -3.548 -24.799  0.00  0.00    +0.014 S 
ATOM      2  N   UNL     1      31.580  -8.722 -20.678  0.00  0.00    +0.389 N 
ATOM      3  N   UNL     1      31.789  -6.620 -22.604  0.00  0.00    -0.297 N 
ATOM      4  N   UNL     1      31.205  -4.562 -23.660  0.00  0.00    -0.194 NA
ATOM      5  C   UNL     1      32.218  -8.960 -21.978  0.00  0.00    -0.055 C 
ATOM      6  C   UNL     1      31.801  -7.333 -20.252  0.00  0.00    -0.055 C 
ATOM      7  C   UNL     1      31.668  -8.013 -23.049  0.00  0.00    +0.069 C 
ATOM      8  C   UNL     1      31.223  -6.356 -21.276  0.00  0.00    +0.069 C 
ATOM      9  C   UNL     1      32.034  -5.593 -23.488  0.00  0.00    +0.140 A 
ATOM     10  C   UNL     1      33.235  -5.605 -24.281  0.00  0.00    +0.040 A 
ATOM     11  C   UNL     1      33.271  -4.473 -25.097  0.00  0.00    +0.050 A 
ATOM     12  C   UNL     1      34.307  -6.521 -24.353  0.00  0.00    +0.003 C 
ATOM     13  C   UNL     1      34.332  -4.222 -25.980  0.00  0.00    +0.008 C 
ATOM     14  C   UNL     1      35.369  -6.280 -25.229  0.00  0.00    +0.000 C 
ATOM     15  C   UNL     1      35.379  -5.145 -26.032  0.00  0.00    +0.001 C 
ATOM     16  H   UNL     1      30.576  -8.876 -20.774  0.00  0.00    -0.080 HD
ENDROOT
BRANCH   2  17
ATOM     17  C   UNL     1      32.091  -9.655 -19.675  0.00  0.00    -0.077 C 
BRANCH  17  18
ATOM     18  C   UNL     1      31.416 -11.017 -19.824  0.00  0.00    -0.021 C 
BRANCH  18  19
ATOM     19  C   UNL     1      32.379 -12.154 -19.468  0.00  0.00    +0.020 C 
BRANCH  19  20
ATOM     20  C   UNL     1      32.084 -13.436 -20.240  0.00  0.00    +0.101 C 
BRANCH  20  23
ATOM     21  O   UNL     1      31.803 -12.380 -22.990  0.00  0.00    -0.274 OA
ATOM     22  O   UNL     1      34.574 -14.981 -20.356  0.00  0.00    -0.274 OA
ATOM     23  N   UNL     1      32.969 -13.613 -21.374  0.00  0.00    -0.230 N 
ATOM     24  C   UNL     1      34.019 -13.291 -23.418  0.00  0.00    +0.086 C 
ATOM     25  C   UNL     1      34.626 -14.524 -22.738  0.00  0.00    +0.086 C 
ATOM     26  C   UNL     1      33.802 -13.392 -24.922  0.00  0.00    +0.010 C 
ATOM     27  C   UNL     1      34.167 -15.866 -23.317  0.00  0.00    +0.010 C 
ATOM     28  C   UNL     1      33.267 -14.746 -25.368  0.00  0.00    +0.001 C 
ATOM     29  C   UNL     1      34.141 -15.875 -24.838  0.00  0.00    +0.001 C 
ATOM     30  C   UNL     1      32.763 -13.033 -22.612  0.00  0.00    +0.231 C 
ATOM     31  C   UNL     1      34.100 -14.405 -21.325  0.00  0.00    +0.231 C 
ENDBRANCH  20  23
ENDBRANCH  19  20
ENDBRANCH  18  19
ENDBRANCH  17  18
ENDBRANCH   2  17
TORSDOF 5
ENDMDL
