MODEL 1
REMARK VINA RESULT:     -11.5      0.000      0.000
REMARK  Name = 42608447
REMARK  9 active torsions:
REMARK  status: ('A' for Active; 'I' for Inactive)
REMARK    1  A    between atoms: C_3  and  C_8
REMARK    2  A    between atoms: C_7  and  C_23
REMARK    3  A    between atoms: C_8  and  N_10
REMARK    4  A    between atoms: C_11  and  C_13
REMARK    5  A    between atoms: C_16  and  S_19
REMARK    6  A    between atoms: C_23  and  C_24
REMARK    7  A    between atoms: C_24  and  N_25
REMARK    8  A    between atoms: C_24  and  C_29
REMARK    9  A    between atoms: C_29  and  C_31
REMARK                            x       y       z     vdW  Elec       q    Type
REMARK                         _______ _______ _______ _____ _____    ______ ____
ROOT
ATOM      1  O   UNL     1      33.551 -23.908 -17.365  0.00  0.00    -0.275 OA
ATOM      2  N   UNL     1      35.555 -22.830 -16.948  0.00  0.00    -0.280 N 
ATOM      3  C   UNL     1      35.776 -23.396 -15.615  0.00  0.00    +0.095 C 
ATOM      4  C   UNL     1      37.250 -23.098 -15.333  0.00  0.00    +0.023 C 
ATOM      5  C   UNL     1      37.498 -21.796 -16.084  0.00  0.00    +0.023 C 
ATOM      6  C   UNL     1      36.663 -21.964 -17.345  0.00  0.00    +0.093 C 
ATOM      7  C   UNL     1      34.468 -23.172 -17.735  0.00  0.00    +0.224 C 
ENDROOT
BRANCH   3   8
ATOM      8  C   UNL     1      34.850 -22.761 -14.580  0.00  0.00    +0.109 C 
BRANCH   8  10
ATOM      9  O   UNL     1      33.358 -24.124 -12.542  0.00  0.00    -0.270 OA
ATOM     10  N   UNL     1      33.520 -23.277 -14.696  0.00  0.00    -0.299 N 
ATOM     11  C   UNL     1      32.868 -23.928 -13.650  0.00  0.00    +0.246 C 
ATOM     12  H   UNL     1      33.045 -23.166 -15.550  0.00  0.00    +0.150 HD
BRANCH  11  13
ATOM     13  C   UNL     1      31.498 -24.428 -13.938  0.00  0.00    +0.055 C 
ATOM     14  C   UNL     1      30.698 -23.772 -14.873  0.00  0.00    +0.023 C 
ATOM     15  C   UNL     1      31.012 -25.553 -13.272  0.00  0.00    +0.005 C 
ATOM     16  C   UNL     1      29.412 -24.241 -15.143  0.00  0.00    +0.106 C 
ATOM     17  C   UNL     1      29.727 -26.022 -13.542  0.00  0.00    +0.001 C 
ATOM     18  C   UNL     1      28.927 -25.366 -14.477  0.00  0.00    +0.018 C 
BRANCH  16  19
ATOM     19  S   UNL     1      28.411 -23.420 -16.314  0.00  0.00    +0.010 S 
ATOM     20  O   UNL     1      29.192 -22.363 -16.944  0.00  0.00    -0.169 OA
ATOM     21  O   UNL     1      27.765 -24.431 -17.138  0.00  0.00    -0.169 OA
ATOM     22  C   UNL     1      27.154 -22.623 -15.341  0.00  0.00    +0.182 C 
ENDBRANCH  16  19
ENDBRANCH  11  13
ENDBRANCH   8  10
ENDBRANCH   3   8
BRANCH   7  23
ATOM     23  C   UNL     1      34.454 -22.576 -19.120  0.00  0.00    +0.064 C 
BRANCH  23  24
ATOM     24  C   UNL     1      33.555 -21.341 -19.196  0.00  0.00    -0.052 C 
BRANCH  24  25
ATOM     25  N   UNL     1      32.253 -21.716 -18.627  0.00  0.00    +0.382 N 
ATOM     26  H   UNL     1      31.816 -20.895 -18.210  0.00  0.00    -0.089 HD
ATOM     27  H   UNL     1      32.388 -22.430 -17.911  0.00  0.00    -0.089 HD
ATOM     28  H   UNL     1      31.653 -22.084 -19.365  0.00  0.00    -0.089 HD
ENDBRANCH  24  25
BRANCH  24  29
ATOM     29  C   UNL     1      33.330 -20.833 -20.637  0.00  0.00    +0.005 C 
BRANCH  29  31
ATOM     30 CL   UNL     1      34.946 -17.362 -24.176  0.00  0.00    -0.082 Cl
ATOM     31  C   UNL     1      34.433 -19.955 -21.174  0.00  0.00    -0.023 C 
ATOM     32  C   UNL     1      34.205 -19.157 -22.295  0.00  0.00    +0.007 C 
ATOM     33  C   UNL     1      35.679 -19.941 -20.549  0.00  0.00    -0.004 C 
ATOM     34  C   UNL     1      35.225 -18.345 -22.792  0.00  0.00    +0.057 C 
ATOM     35  C   UNL     1      36.699 -19.129 -21.046  0.00  0.00    +0.001 C 
ATOM     36  C   UNL     1      36.472 -18.331 -22.168  0.00  0.00    +0.011 C 
ENDBRANCH  29  31
ENDBRANCH  24  29
ENDBRANCH  23  24
ENDBRANCH   7  23
TORSDOF 9
ENDMDL
MODEL 2
REMARK VINA RESULT:     -11.2      8.934     12.869
REMARK  Name = 42608447
REMARK  9 active torsions:
REMARK  status: ('A' for Active; 'I' for Inactive)
REMARK    1  A    between atoms: C_3  and  C_8
REMARK    2  A    between atoms: C_7  and  C_23
REMARK    3  A    between atoms: C_8  and  N_10
REMARK    4  A    between atoms: C_11  and  C_13
REMARK    5  A    between atoms: C_16  and  S_19
REMARK    6  A    between atoms: C_23  and  C_24
REMARK    7  A    between atoms: C_24  and  N_25
REMARK    8  A    between atoms: C_24  and  C_29
REMARK    9  A    between atoms: C_29  and  C_31
REMARK                            x       y       z     vdW  Elec       q    Type
REMARK                         _______ _______ _______ _____ _____    ______ ____
ROOT
ATOM      1  O   UNL     1      35.003 -15.696 -21.292  0.00  0.00    -0.275 OA
ATOM      2  N   UNL     1      34.187 -15.052 -23.359  0.00  0.00    -0.280 N 
ATOM      3  C   UNL     1      34.032 -13.630 -23.041  0.00  0.00    +0.095 C 
ATOM      4  C   UNL     1      33.864 -12.967 -24.410  0.00  0.00    +0.023 C 
ATOM      5  C   UNL     1      33.172 -14.042 -25.241  0.00  0.00    +0.023 C 
ATOM      6  C   UNL     1      33.822 -15.326 -24.746  0.00  0.00    +0.093 C 
ATOM      7  C   UNL     1      34.706 -15.966 -22.457  0.00  0.00    +0.224 C 
ENDROOT
BRANCH   3   8
ATOM      8  C   UNL     1      32.827 -13.391 -22.133  0.00  0.00    +0.109 C 
BRANCH   8  10
ATOM      9  O   UNL     1      30.520 -11.683 -22.081  0.00  0.00    -0.270 OA
ATOM     10  N   UNL     1      32.780 -12.029 -21.691  0.00  0.00    -0.299 N 
ATOM     11  C   UNL     1      31.611 -11.271 -21.699  0.00  0.00    +0.246 C 
ATOM     12  H   UNL     1      33.610 -11.612 -21.365  0.00  0.00    +0.150 HD
BRANCH  11  13
ATOM     13  C   UNL     1      31.734  -9.866 -21.232  0.00  0.00    +0.055 C 
ATOM     14  C   UNL     1      31.731  -8.821 -22.156  0.00  0.00    +0.023 C 
ATOM     15  C   UNL     1      31.852  -9.592 -19.870  0.00  0.00    +0.005 C 
ATOM     16  C   UNL     1      31.847  -7.502 -21.718  0.00  0.00    +0.106 C 
ATOM     17  C   UNL     1      31.967  -8.273 -19.431  0.00  0.00    +0.001 C 
ATOM     18  C   UNL     1      31.964  -7.228 -20.355  0.00  0.00    +0.018 C 
BRANCH  16  19
ATOM     19  S   UNL     1      31.843  -6.194 -22.874  0.00  0.00    +0.010 S 
ATOM     20  O   UNL     1      30.753  -5.283 -22.551  0.00  0.00    -0.169 OA
ATOM     21  O   UNL     1      33.203  -5.685 -22.979  0.00  0.00    -0.169 OA
ATOM     22  C   UNL     1      31.429  -6.969 -24.420  0.00  0.00    +0.182 C 
ENDBRANCH  16  19
ENDBRANCH  11  13
ENDBRANCH   8  10
ENDBRANCH   3   8
BRANCH   7  23
ATOM     23  C   UNL     1      34.894 -17.366 -22.986  0.00  0.00    +0.064 C 
BRANCH  23  24
ATOM     24  C   UNL     1      35.338 -18.331 -21.886  0.00  0.00    -0.052 C 
BRANCH  24  25
ATOM     25  N   UNL     1      36.806 -18.366 -21.905  0.00  0.00    +0.382 N 
ATOM     26  H   UNL     1      37.129 -19.271 -21.564  0.00  0.00    -0.089 HD
ATOM     27  H   UNL     1      37.172 -17.626 -21.305  0.00  0.00    -0.089 HD
ATOM     28  H   UNL     1      37.137 -18.225 -22.860  0.00  0.00    -0.089 HD
ENDBRANCH  24  25
BRANCH  24  29
ATOM     29  C   UNL     1      34.812 -19.771 -22.084  0.00  0.00    +0.005 C 
BRANCH  29  31
ATOM     30 CL   UNL     1      36.759 -22.201 -17.901  0.00  0.00    -0.082 Cl
ATOM     31  C   UNL     1      34.570 -20.533 -20.805  0.00  0.00    -0.023 C 
ATOM     32  C   UNL     1      35.651 -20.964 -20.034  0.00  0.00    +0.007 C 
ATOM     33  C   UNL     1      33.267 -20.809 -20.393  0.00  0.00    -0.004 C 
ATOM     34  C   UNL     1      35.427 -21.670 -18.852  0.00  0.00    +0.057 C 
ATOM     35  C   UNL     1      33.043 -21.515 -19.211  0.00  0.00    +0.001 C 
ATOM     36  C   UNL     1      34.124 -21.946 -18.440  0.00  0.00    +0.011 C 
ENDBRANCH  29  31
ENDBRANCH  24  29
ENDBRANCH  23  24
ENDBRANCH   7  23
TORSDOF 9
ENDMDL
MODEL 3
REMARK VINA RESULT:     -11.1      8.881     12.858
REMARK  Name = 42608447
REMARK  9 active torsions:
REMARK  status: ('A' for Active; 'I' for Inactive)
REMARK    1  A    between atoms: C_3  and  C_8
REMARK    2  A    between atoms: C_7  and  C_23
REMARK    3  A    between atoms: C_8  and  N_10
REMARK    4  A    between atoms: C_11  and  C_13
REMARK    5  A    between atoms: C_16  and  S_19
REMARK    6  A    between atoms: C_23  and  C_24
REMARK    7  A    between atoms: C_24  and  N_25
REMARK    8  A    between atoms: C_24  and  C_29
REMARK    9  A    between atoms: C_29  and  C_31
REMARK                            x       y       z     vdW  Elec       q    Type
REMARK                         _______ _______ _______ _____ _____    ______ ____
ROOT
ATOM      1  O   UNL     1      34.955 -15.638 -21.359  0.00  0.00    -0.275 OA
ATOM      2  N   UNL     1      34.147 -15.116 -23.464  0.00  0.00    -0.280 N 
ATOM      3  C   UNL     1      34.008 -13.675 -23.236  0.00  0.00    +0.095 C 
ATOM      4  C   UNL     1      33.849 -13.098 -24.645  0.00  0.00    +0.023 C 
ATOM      5  C   UNL     1      33.145 -14.215 -25.407  0.00  0.00    +0.023 C 
ATOM      6  C   UNL     1      33.779 -15.473 -24.831  0.00  0.00    +0.093 C 
ATOM      7  C   UNL     1      34.655 -15.978 -22.505  0.00  0.00    +0.224 C 
ENDROOT
BRANCH   3   8
ATOM      8  C   UNL     1      32.807 -13.365 -22.347  0.00  0.00    +0.109 C 
BRANCH   8  10
ATOM      9  O   UNL     1      30.539 -11.907 -21.360  0.00  0.00    -0.270 OA
ATOM     10  N   UNL     1      32.766 -11.975 -22.005  0.00  0.00    -0.299 N 
ATOM     11  C   UNL     1      31.618 -11.346 -21.530  0.00  0.00    +0.246 C 
ATOM     12  H   UNL     1      33.587 -11.442 -22.108  0.00  0.00    +0.150 HD
BRANCH  11  13
ATOM     13  C   UNL     1      31.733  -9.892 -21.244  0.00  0.00    +0.055 C 
ATOM     14  C   UNL     1      31.636  -8.967 -22.283  0.00  0.00    +0.023 C 
ATOM     15  C   UNL     1      31.938  -9.453 -19.936  0.00  0.00    +0.005 C 
ATOM     16  C   UNL     1      31.744  -7.603 -22.015  0.00  0.00    +0.106 C 
ATOM     17  C   UNL     1      32.046  -8.089 -19.668  0.00  0.00    +0.001 C 
ATOM     18  C   UNL     1      31.949  -7.163 -20.707  0.00  0.00    +0.018 C 
BRANCH  16  19
ATOM     19  S   UNL     1      31.623  -6.444 -23.316  0.00  0.00    +0.010 S 
ATOM     20  O   UNL     1      31.207  -7.138 -24.528  0.00  0.00    -0.169 OA
ATOM     21  O   UNL     1      30.850  -5.308 -22.833  0.00  0.00    -0.169 OA
ATOM     22  C   UNL     1      33.294  -5.897 -23.580  0.00  0.00    +0.182 C 
ENDBRANCH  16  19
ENDBRANCH  11  13
ENDBRANCH   8  10
ENDBRANCH   3   8
BRANCH   7  23
ATOM     23  C   UNL     1      34.826 -17.410 -22.945  0.00  0.00    +0.064 C 
BRANCH  23  24
ATOM     24  C   UNL     1      35.322 -18.297 -21.802  0.00  0.00    -0.052 C 
BRANCH  24  25
ATOM     25  N   UNL     1      36.790 -18.300 -21.860  0.00  0.00    +0.382 N 
ATOM     26  H   UNL     1      37.102 -17.678 -22.605  0.00  0.00    -0.089 HD
ATOM     27  H   UNL     1      37.121 -19.247 -22.046  0.00  0.00    -0.089 HD
ATOM     28  H   UNL     1      37.167 -17.978 -20.967  0.00  0.00    -0.089 HD
ENDBRANCH  24  25
BRANCH  24  29
ATOM     29  C   UNL     1      34.827 -19.757 -21.898  0.00  0.00    +0.005 C 
BRANCH  29  31
ATOM     30 CL   UNL     1      32.783 -22.549 -17.997  0.00  0.00    -0.082 Cl
ATOM     31  C   UNL     1      35.037 -20.576 -20.649  0.00  0.00    -0.023 C 
ATOM     32  C   UNL     1      33.941 -21.121 -19.979  0.00  0.00    +0.007 C 
ATOM     33  C   UNL     1      36.326 -20.788 -20.162  0.00  0.00    -0.004 C 
ATOM     34  C   UNL     1      34.135 -21.877 -18.823  0.00  0.00    +0.057 C 
ATOM     35  C   UNL     1      36.520 -21.545 -19.007  0.00  0.00    +0.001 C 
ATOM     36  C   UNL     1      35.424 -22.090 -18.337  0.00  0.00    +0.011 C 
ENDBRANCH  29  31
ENDBRANCH  24  29
ENDBRANCH  23  24
ENDBRANCH   7  23
TORSDOF 9
ENDMDL
MODEL 4
REMARK VINA RESULT:     -10.8      6.231      9.634
REMARK  Name = 42608447
REMARK  9 active torsions:
REMARK  status: ('A' for Active; 'I' for Inactive)
REMARK    1  A    between atoms: C_3  and  C_8
REMARK    2  A    between atoms: C_7  and  C_23
REMARK    3  A    between atoms: C_8  and  N_10
REMARK    4  A    between atoms: C_11  and  C_13
REMARK    5  A    between atoms: C_16  and  S_19
REMARK    6  A    between atoms: C_23  and  C_24
REMARK    7  A    between atoms: C_24  and  N_25
REMARK    8  A    between atoms: C_24  and  C_29
REMARK    9  A    between atoms: C_29  and  C_31
REMARK                            x       y       z     vdW  Elec       q    Type
REMARK                         _______ _______ _______ _____ _____    ______ ____
ROOT
ATOM      1  O   UNL     1      34.377 -15.727 -20.560  0.00  0.00    -0.275 OA
ATOM      2  N   UNL     1      33.991 -14.934 -22.699  0.00  0.00    -0.280 N 
ATOM      3  C   UNL     1      34.036 -16.235 -23.370  0.00  0.00    +0.095 C 
ATOM      4  C   UNL     1      33.418 -15.958 -24.742  0.00  0.00    +0.023 C 
ATOM      5  C   UNL     1      33.802 -14.509 -25.017  0.00  0.00    +0.023 C 
ATOM      6  C   UNL     1      33.693 -13.861 -23.644  0.00  0.00    +0.093 C 
ATOM      7  C   UNL     1      34.126 -14.796 -21.327  0.00  0.00    +0.224 C 
ENDROOT
BRANCH   3   8
ATOM      8  C   UNL     1      35.467 -16.758 -23.476  0.00  0.00    +0.109 C 
BRANCH   8  10
ATOM      9  O   UNL     1      34.254 -19.330 -23.082  0.00  0.00    -0.270 OA
ATOM     10  N   UNL     1      35.754 -17.687 -22.425  0.00  0.00    -0.299 N 
ATOM     11  C   UNL     1      35.115 -18.919 -22.309  0.00  0.00    +0.246 C 
ATOM     12  H   UNL     1      36.433 -17.444 -21.756  0.00  0.00    +0.150 HD
BRANCH  11  13
ATOM     13  C   UNL     1      35.508 -19.758 -21.147  0.00  0.00    +0.055 C 
ATOM     14  C   UNL     1      34.598 -20.663 -20.600  0.00  0.00    +0.023 C 
ATOM     15  C   UNL     1      36.787 -19.642 -20.604  0.00  0.00    +0.005 C 
ATOM     16  C   UNL     1      34.966 -21.450 -19.510  0.00  0.00    +0.106 C 
ATOM     17  C   UNL     1      37.156 -20.429 -19.513  0.00  0.00    +0.001 C 
ATOM     18  C   UNL     1      36.245 -21.333 -18.966  0.00  0.00    +0.018 C 
BRANCH  16  19
ATOM     19  S   UNL     1      33.827 -22.582 -18.825  0.00  0.00    +0.010 S 
ATOM     20  O   UNL     1      32.520 -21.942 -18.739  0.00  0.00    -0.169 OA
ATOM     21  O   UNL     1      33.967 -23.845 -19.536  0.00  0.00    -0.169 OA
ATOM     22  C   UNL     1      34.393 -22.827 -17.157  0.00  0.00    +0.182 C 
ENDBRANCH  16  19
ENDBRANCH  11  13
ENDBRANCH   8  10
ENDBRANCH   3   8
BRANCH   7  23
ATOM     23  C   UNL     1      33.948 -13.396 -20.794  0.00  0.00    +0.064 C 
BRANCH  23  24
ATOM     24  C   UNL     1      32.576 -13.208 -20.144  0.00  0.00    -0.052 C 
BRANCH  24  25
ATOM     25  N   UNL     1      32.016 -14.546 -19.917  0.00  0.00    +0.382 N 
ATOM     26  H   UNL     1      31.546 -14.866 -20.764  0.00  0.00    -0.089 HD
ATOM     27  H   UNL     1      31.345 -14.508 -19.149  0.00  0.00    -0.089 HD
ATOM     28  H   UNL     1      32.768 -15.194 -19.679  0.00  0.00    -0.089 HD
ENDBRANCH  24  25
BRANCH  24  29
ATOM     29  C   UNL     1      31.588 -12.406 -21.020  0.00  0.00    +0.005 C 
BRANCH  29  31
ATOM     30 CL   UNL     1      31.457  -7.661 -23.176  0.00  0.00    -0.082 Cl
ATOM     31  C   UNL     1      31.670 -10.909 -20.852  0.00  0.00    -0.023 C 
ATOM     32  C   UNL     1      31.540 -10.074 -21.962  0.00  0.00    +0.007 C 
ATOM     33  C   UNL     1      31.877 -10.360 -19.587  0.00  0.00    -0.004 C 
ATOM     34  C   UNL     1      31.617  -8.690 -21.807  0.00  0.00    +0.057 C 
ATOM     35  C   UNL     1      31.955  -8.975 -19.432  0.00  0.00    +0.001 C 
ATOM     36  C   UNL     1      31.824  -8.141 -20.543  0.00  0.00    +0.011 C 
ENDBRANCH  29  31
ENDBRANCH  24  29
ENDBRANCH  23  24
ENDBRANCH   7  23
TORSDOF 9
ENDMDL
MODEL 5
REMARK VINA RESULT:     -10.6      7.510     10.484
REMARK  Name = 42608447
REMARK  9 active torsions:
REMARK  status: ('A' for Active; 'I' for Inactive)
REMARK    1  A    between atoms: C_3  and  C_8
REMARK    2  A    between atoms: C_7  and  C_23
REMARK    3  A    between atoms: C_8  and  N_10
REMARK    4  A    between atoms: C_11  and  C_13
REMARK    5  A    between atoms: C_16  and  S_19
REMARK    6  A    between atoms: C_23  and  C_24
REMARK    7  A    between atoms: C_24  and  N_25
REMARK    8  A    between atoms: C_24  and  C_29
REMARK    9  A    between atoms: C_29  and  C_31
REMARK                            x       y       z     vdW  Elec       q    Type
REMARK                         _______ _______ _______ _____ _____    ______ ____
ROOT
ATOM      1  O   UNL     1      34.225 -13.259 -24.207  0.00  0.00    -0.275 OA
ATOM      2  N   UNL     1      33.482 -13.863 -22.101  0.00  0.00    -0.280 N 
ATOM      3  C   UNL     1      34.621 -14.719 -21.761  0.00  0.00    +0.095 C 
ATOM      4  C   UNL     1      34.496 -14.906 -20.247  0.00  0.00    +0.023 C 
ATOM      5  C   UNL     1      32.993 -14.842 -20.005  0.00  0.00    +0.023 C 
ATOM      6  C   UNL     1      32.533 -13.781 -20.993  0.00  0.00    +0.093 C 
ATOM      7  C   UNL     1      33.403 -13.164 -23.295  0.00  0.00    +0.224 C 
ENDROOT
BRANCH   3   8
ATOM      8  C   UNL     1      34.563 -16.047 -22.512  0.00  0.00    +0.109 C 
BRANCH   8  10
ATOM      9  O   UNL     1      34.313 -18.853 -23.065  0.00  0.00    -0.270 OA
ATOM     10  N   UNL     1      35.014 -17.125 -21.686  0.00  0.00    -0.299 N 
ATOM     11  C   UNL     1      34.852 -18.465 -22.033  0.00  0.00    +0.246 C 
ATOM     12  H   UNL     1      35.461 -16.910 -20.835  0.00  0.00    +0.150 HD
BRANCH  11  13
ATOM     13  C   UNL     1      35.353 -19.464 -21.055  0.00  0.00    +0.055 C 
ATOM     14  C   UNL     1      34.486 -20.421 -20.528  0.00  0.00    +0.023 C 
ATOM     15  C   UNL     1      36.692 -19.447 -20.664  0.00  0.00    +0.005 C 
ATOM     16  C   UNL     1      34.956 -21.360 -19.610  0.00  0.00    +0.106 C 
ATOM     17  C   UNL     1      37.163 -20.385 -19.745  0.00  0.00    +0.001 C 
ATOM     18  C   UNL     1      36.295 -21.342 -19.219  0.00  0.00    +0.018 C 
BRANCH  16  19
ATOM     19  S   UNL     1      33.870 -22.557 -18.951  0.00  0.00    +0.010 S 
ATOM     20  O   UNL     1      32.528 -21.994 -18.890  0.00  0.00    -0.169 OA
ATOM     21  O   UNL     1      34.098 -23.808 -19.661  0.00  0.00    -0.169 OA
ATOM     22  C   UNL     1      34.416 -22.774 -17.272  0.00  0.00    +0.182 C 
ENDBRANCH  16  19
ENDBRANCH  11  13
ENDBRANCH   8  10
ENDBRANCH   3   8
BRANCH   7  23
ATOM     23  C   UNL     1      32.213 -12.249 -23.434  0.00  0.00    +0.064 C 
BRANCH  23  24
ATOM     24  C   UNL     1      32.590 -10.788 -23.180  0.00  0.00    -0.052 C 
BRANCH  24  25
ATOM     25  N   UNL     1      34.055 -10.702 -23.235  0.00  0.00    +0.382 N 
ATOM     26  H   UNL     1      34.459 -11.595 -22.954  0.00  0.00    -0.089 HD
ATOM     27  H   UNL     1      34.376  -9.969 -22.602  0.00  0.00    -0.089 HD
ATOM     28  H   UNL     1      34.348 -10.481 -24.187  0.00  0.00    -0.089 HD
ENDBRANCH  24  25
BRANCH  24  29
ATOM     29  C   UNL     1      32.120 -10.263 -21.806  0.00  0.00    +0.005 C 
BRANCH  29  31
ATOM     30 CL   UNL     1      31.215  -5.549 -23.843  0.00  0.00    -0.082 Cl
ATOM     31  C   UNL     1      32.165  -8.762 -21.657  0.00  0.00    -0.023 C 
ATOM     32  C   UNL     1      31.721  -7.945 -22.697  0.00  0.00    +0.007 C 
ATOM     33  C   UNL     1      32.651  -8.192 -20.481  0.00  0.00    -0.004 C 
ATOM     34  C   UNL     1      31.763  -6.557 -22.560  0.00  0.00    +0.057 C 
ATOM     35  C   UNL     1      32.693  -6.804 -20.345  0.00  0.00    +0.001 C 
ATOM     36  C   UNL     1      32.249  -5.987 -21.385  0.00  0.00    +0.011 C 
ENDBRANCH  29  31
ENDBRANCH  24  29
ENDBRANCH  23  24
ENDBRANCH   7  23
TORSDOF 9
ENDMDL
MODEL 6
REMARK VINA RESULT:     -10.5      3.305      6.058
REMARK  Name = 42608447
REMARK  9 active torsions:
REMARK  status: ('A' for Active; 'I' for Inactive)
REMARK    1  A    between atoms: C_3  and  C_8
REMARK    2  A    between atoms: C_7  and  C_23
REMARK    3  A    between atoms: C_8  and  N_10
REMARK    4  A    between atoms: C_11  and  C_13
REMARK    5  A    between atoms: C_16  and  S_19
REMARK    6  A    between atoms: C_23  and  C_24
REMARK    7  A    between atoms: C_24  and  N_25
REMARK    8  A    between atoms: C_24  and  C_29
REMARK    9  A    between atoms: C_29  and  C_31
REMARK                            x       y       z     vdW  Elec       q    Type
REMARK                         _______ _______ _______ _____ _____    ______ ____
ROOT
ATOM      1  O   UNL     1      34.507 -23.347 -16.099  0.00  0.00    -0.275 OA
ATOM      2  N   UNL     1      32.214 -23.497 -15.829  0.00  0.00    -0.280 N 
ATOM      3  C   UNL     1      32.221 -23.548 -14.365  0.00  0.00    +0.095 C 
ATOM      4  C   UNL     1      30.767 -23.260 -13.984  0.00  0.00    +0.023 C 
ATOM      5  C   UNL     1      29.974 -23.838 -15.151  0.00  0.00    +0.023 C 
ATOM      6  C   UNL     1      30.850 -23.513 -16.352  0.00  0.00    +0.093 C 
ATOM      7  C   UNL     1      33.371 -23.357 -16.577  0.00  0.00    +0.224 C 
ENDROOT
BRANCH   3   8
ATOM      8  C   UNL     1      32.691 -24.909 -13.858  0.00  0.00    +0.109 C 
BRANCH   8  10
ATOM      9  O   UNL     1      33.974 -23.735 -11.573  0.00  0.00    -0.270 OA
ATOM     10  N   UNL     1      34.096 -24.895 -13.578  0.00  0.00    -0.299 N 
ATOM     11  C   UNL     1      34.635 -24.301 -12.439  0.00  0.00    +0.246 C 
ATOM     12  H   UNL     1      34.707 -25.326 -14.218  0.00  0.00    +0.150 HD
BRANCH  11  13
ATOM     13  C   UNL     1      36.114 -24.350 -12.308  0.00  0.00    +0.055 C 
ATOM     14  C   UNL     1      36.860 -25.198 -13.126  0.00  0.00    +0.023 C 
ATOM     15  C   UNL     1      36.758 -23.547 -11.366  0.00  0.00    +0.005 C 
ATOM     16  C   UNL     1      38.248 -25.244 -13.002  0.00  0.00    +0.106 C 
ATOM     17  C   UNL     1      38.146 -23.594 -11.242  0.00  0.00    +0.001 C 
ATOM     18  C   UNL     1      38.892 -24.442 -12.061  0.00  0.00    +0.018 C 
BRANCH  16  19
ATOM     19  S   UNL     1      39.181 -26.306 -14.027  0.00  0.00    +0.010 S 
ATOM     20  O   UNL     1      40.374 -26.730 -13.305  0.00  0.00    -0.169 OA
ATOM     21  O   UNL     1      38.277 -27.306 -14.579  0.00  0.00    -0.169 OA
ATOM     22  C   UNL     1      39.728 -25.267 -15.362  0.00  0.00    +0.182 C 
ENDBRANCH  16  19
ENDBRANCH  11  13
ENDBRANCH   8  10
ENDBRANCH   3   8
BRANCH   7  23
ATOM     23  C   UNL     1      33.171 -23.216 -18.065  0.00  0.00    +0.064 C 
BRANCH  23  24
ATOM     24  C   UNL     1      33.808 -21.933 -18.603  0.00  0.00    -0.052 C 
BRANCH  24  25
ATOM     25  N   UNL     1      32.744 -21.162 -19.259  0.00  0.00    +0.382 N 
ATOM     26  H   UNL     1      32.941 -20.166 -19.167  0.00  0.00    -0.089 HD
ATOM     27  H   UNL     1      31.849 -21.375 -18.819  0.00  0.00    -0.089 HD
ATOM     28  H   UNL     1      32.704 -21.411 -20.248  0.00  0.00    -0.089 HD
ENDBRANCH  24  25
BRANCH  24  29
ATOM     29  C   UNL     1      34.931 -22.190 -19.632  0.00  0.00    +0.005 C 
BRANCH  29  31
ATOM     30 CL   UNL     1      34.427 -18.553 -23.334  0.00  0.00    -0.082 Cl
ATOM     31  C   UNL     1      35.465 -20.949 -20.304  0.00  0.00    -0.023 C 
ATOM     32  C   UNL     1      34.779 -20.390 -21.382  0.00  0.00    +0.007 C 
ATOM     33  C   UNL     1      36.644 -20.362 -19.848  0.00  0.00    -0.004 C 
ATOM     34  C   UNL     1      35.273 -19.243 -22.004  0.00  0.00    +0.057 C 
ATOM     35  C   UNL     1      37.138 -19.215 -20.469  0.00  0.00    +0.001 C 
ATOM     36  C   UNL     1      36.452 -18.655 -21.548  0.00  0.00    +0.011 C 
ENDBRANCH  29  31
ENDBRANCH  24  29
ENDBRANCH  23  24
ENDBRANCH   7  23
TORSDOF 9
ENDMDL
MODEL 7
REMARK VINA RESULT:     -10.4      6.174     10.490
REMARK  Name = 42608447
REMARK  9 active torsions:
REMARK  status: ('A' for Active; 'I' for Inactive)
REMARK    1  A    between atoms: C_3  and  C_8
REMARK    2  A    between atoms: C_7  and  C_23
REMARK    3  A    between atoms: C_8  and  N_10
REMARK    4  A    between atoms: C_11  and  C_13
REMARK    5  A    between atoms: C_16  and  S_19
REMARK    6  A    between atoms: C_23  and  C_24
REMARK    7  A    between atoms: C_24  and  N_25
REMARK    8  A    between atoms: C_24  and  C_29
REMARK    9  A    between atoms: C_29  and  C_31
REMARK                            x       y       z     vdW  Elec       q    Type
REMARK                         _______ _______ _______ _____ _____    ______ ____
ROOT
ATOM      1  O   UNL     1      37.171 -19.399 -19.643  0.00  0.00    -0.275 OA
ATOM      2  N   UNL     1      35.635 -19.458 -21.372  0.00  0.00    -0.280 N 
ATOM      3  C   UNL     1      35.831 -18.076 -21.817  0.00  0.00    +0.095 C 
ATOM      4  C   UNL     1      35.177 -18.043 -23.201  0.00  0.00    +0.023 C 
ATOM      5  C   UNL     1      34.053 -19.066 -23.085  0.00  0.00    +0.023 C 
ATOM      6  C   UNL     1      34.669 -20.154 -22.219  0.00  0.00    +0.093 C 
ATOM      7  C   UNL     1      36.363 -20.019 -20.336  0.00  0.00    +0.224 C 
ENDROOT
BRANCH   3   8
ATOM      8  C   UNL     1      35.186 -17.084 -20.852  0.00  0.00    +0.109 C 
BRANCH   8  10
ATOM      9  O   UNL     1      33.373 -15.073 -19.897  0.00  0.00    -0.270 OA
ATOM     10  N   UNL     1      34.814 -15.878 -21.528  0.00  0.00    -0.299 N 
ATOM     11  C   UNL     1      33.923 -14.953 -20.988  0.00  0.00    +0.246 C 
ATOM     12  H   UNL     1      35.206 -15.694 -22.411  0.00  0.00    +0.150 HD
BRANCH  11  13
ATOM     13  C   UNL     1      33.620 -13.764 -21.826  0.00  0.00    +0.055 C 
ATOM     14  C   UNL     1      32.695 -12.817 -21.386  0.00  0.00    +0.023 C 
ATOM     15  C   UNL     1      34.261 -13.593 -23.053  0.00  0.00    +0.005 C 
ATOM     16  C   UNL     1      32.411 -11.701 -22.173  0.00  0.00    +0.106 C 
ATOM     17  C   UNL     1      33.977 -12.478 -23.840  0.00  0.00    +0.001 C 
ATOM     18  C   UNL     1      33.052 -11.531 -23.400  0.00  0.00    +0.018 C 
BRANCH  16  19
ATOM     19  S   UNL     1      31.252 -10.516 -21.622  0.00  0.00    +0.010 S 
ATOM     20  O   UNL     1      30.834  -9.703 -22.757  0.00  0.00    -0.169 OA
ATOM     21  O   UNL     1      30.252 -11.206 -20.820  0.00  0.00    -0.169 OA
ATOM     22  C   UNL     1      32.184  -9.455 -20.541  0.00  0.00    +0.182 C 
ENDBRANCH  16  19
ENDBRANCH  11  13
ENDBRANCH   8  10
ENDBRANCH   3   8
BRANCH   7  23
ATOM     23  C   UNL     1      36.108 -21.483 -20.081  0.00  0.00    +0.064 C 
BRANCH  23  24
ATOM     24  C   UNL     1      35.508 -21.720 -18.694  0.00  0.00    -0.052 C 
BRANCH  24  25
ATOM     25  N   UNL     1      36.629 -21.878 -17.757  0.00  0.00    +0.382 N 
ATOM     26  H   UNL     1      36.269 -22.124 -16.835  0.00  0.00    -0.089 HD
ATOM     27  H   UNL     1      37.149 -21.003 -17.698  0.00  0.00    -0.089 HD
ATOM     28  H   UNL     1      37.247 -22.619 -18.089  0.00  0.00    -0.089 HD
ENDBRANCH  24  25
BRANCH  24  29
ATOM     29  C   UNL     1      34.623 -22.984 -18.615  0.00  0.00    +0.005 C 
BRANCH  29  31
ATOM     30 CL   UNL     1      30.039 -23.046 -16.131  0.00  0.00    -0.082 Cl
ATOM     31  C   UNL     1      33.856 -23.135 -17.324  0.00  0.00    -0.023 C 
ATOM     32  C   UNL     1      32.464 -23.033 -17.325  0.00  0.00    +0.007 C 
ATOM     33  C   UNL     1      34.537 -23.375 -16.132  0.00  0.00    -0.004 C 
ATOM     34  C   UNL     1      31.755 -23.172 -16.131  0.00  0.00    +0.057 C 
ATOM     35  C   UNL     1      33.828 -23.513 -14.939  0.00  0.00    +0.001 C 
ATOM     36  C   UNL     1      32.436 -23.412 -14.939  0.00  0.00    +0.011 C 
ENDBRANCH  29  31
ENDBRANCH  24  29
ENDBRANCH  23  24
ENDBRANCH   7  23
TORSDOF 9
ENDMDL
MODEL 8
REMARK VINA RESULT:     -10.3      9.307     12.971
REMARK  Name = 42608447
REMARK  9 active torsions:
REMARK  status: ('A' for Active; 'I' for Inactive)
REMARK    1  A    between atoms: C_3  and  C_8
REMARK    2  A    between atoms: C_7  and  C_23
REMARK    3  A    between atoms: C_8  and  N_10
REMARK    4  A    between atoms: C_11  and  C_13
REMARK    5  A    between atoms: C_16  and  S_19
REMARK    6  A    between atoms: C_23  and  C_24
REMARK    7  A    between atoms: C_24  and  N_25
REMARK    8  A    between atoms: C_24  and  C_29
REMARK    9  A    between atoms: C_29  and  C_31
REMARK                            x       y       z     vdW  Elec       q    Type
REMARK                         _______ _______ _______ _____ _____    ______ ____
ROOT
ATOM      1  O   UNL     1      32.993 -10.304 -23.896  0.00  0.00    -0.275 OA
ATOM      2  N   UNL     1      32.400 -11.705 -22.153  0.00  0.00    -0.280 N 
ATOM      3  C   UNL     1      33.455 -12.698 -22.370  0.00  0.00    +0.095 C 
ATOM      4  C   UNL     1      33.463 -13.510 -21.072  0.00  0.00    +0.023 C 
ATOM      5  C   UNL     1      32.010 -13.457 -20.614  0.00  0.00    +0.023 C 
ATOM      6  C   UNL     1      31.584 -12.046 -20.990  0.00  0.00    +0.093 C 
ATOM      7  C   UNL     1      32.285 -10.557 -22.920  0.00  0.00    +0.224 C 
ENDROOT
BRANCH   3   8
ATOM      8  C   UNL     1      33.162 -13.566 -23.591  0.00  0.00    +0.109 C 
BRANCH   8  10
ATOM      9  O   UNL     1      33.679 -15.543 -25.608  0.00  0.00    -0.270 OA
ATOM     10  N   UNL     1      33.586 -14.916 -23.376  0.00  0.00    -0.299 N 
ATOM     11  C   UNL     1      33.816 -15.812 -24.418  0.00  0.00    +0.246 C 
ATOM     12  H   UNL     1      33.724 -15.224 -22.451  0.00  0.00    +0.150 HD
BRANCH  11  13
ATOM     13  C   UNL     1      34.229 -17.185 -24.027  0.00  0.00    +0.055 C 
ATOM     14  C   UNL     1      35.062 -17.376 -22.925  0.00  0.00    +0.023 C 
ATOM     15  C   UNL     1      33.782 -18.283 -24.762  0.00  0.00    +0.005 C 
ATOM     16  C   UNL     1      35.450 -18.665 -22.558  0.00  0.00    +0.106 C 
ATOM     17  C   UNL     1      34.170 -19.572 -24.395  0.00  0.00    +0.001 C 
ATOM     18  C   UNL     1      35.003 -19.763 -23.293  0.00  0.00    +0.018 C 
BRANCH  16  19
ATOM     19  S   UNL     1      36.493 -18.904 -21.179  0.00  0.00    +0.010 S 
ATOM     20  O   UNL     1      37.869 -19.028 -21.644  0.00  0.00    -0.169 OA
ATOM     21  O   UNL     1      36.155 -17.898 -20.182  0.00  0.00    -0.169 OA
ATOM     22  C   UNL     1      36.020 -20.492 -20.535  0.00  0.00    +0.182 C 
ENDBRANCH  16  19
ENDBRANCH  11  13
ENDBRANCH   8  10
ENDBRANCH   3   8
BRANCH   7  23
ATOM     23  C   UNL     1      31.206  -9.595 -22.492  0.00  0.00    +0.064 C 
BRANCH  23  24
ATOM     24  C   UNL     1      31.794  -8.328 -21.868  0.00  0.00    -0.052 C 
BRANCH  24  25
ATOM     25  N   UNL     1      31.669  -8.464 -20.411  0.00  0.00    +0.382 N 
ATOM     26  H   UNL     1      31.065  -9.256 -20.194  0.00  0.00    -0.089 HD
ATOM     27  H   UNL     1      31.267  -7.611 -20.022  0.00  0.00    -0.089 HD
ATOM     28  H   UNL     1      32.592  -8.620 -20.003  0.00  0.00    -0.089 HD
ENDBRANCH  24  25
BRANCH  24  29
ATOM     29  C   UNL     1      31.067  -7.036 -22.301  0.00  0.00    +0.005 C 
BRANCH  29  31
ATOM     30 CL   UNL     1      35.541  -6.030 -24.783  0.00  0.00    -0.082 Cl
ATOM     31  C   UNL     1      31.845  -6.167 -23.258  0.00  0.00    -0.023 C 
ATOM     32  C   UNL     1      33.177  -6.466 -23.545  0.00  0.00    +0.007 C 
ATOM     33  C   UNL     1      31.234  -5.065 -23.854  0.00  0.00    -0.004 C 
ATOM     34  C   UNL     1      33.898  -5.662 -24.429  0.00  0.00    +0.057 C 
ATOM     35  C   UNL     1      31.954  -4.261 -24.738  0.00  0.00    +0.001 C 
ATOM     36  C   UNL     1      33.287  -4.560 -25.025  0.00  0.00    +0.011 C 
ENDBRANCH  29  31
ENDBRANCH  24  29
ENDBRANCH  23  24
ENDBRANCH   7  23
TORSDOF 9
ENDMDL
MODEL 9
REMARK VINA RESULT:     -10.3     11.965     16.147
REMARK  Name = 42608447
REMARK  9 active torsions:
REMARK  status: ('A' for Active; 'I' for Inactive)
REMARK    1  A    between atoms: C_3  and  C_8
REMARK    2  A    between atoms: C_7  and  C_23
REMARK    3  A    between atoms: C_8  and  N_10
REMARK    4  A    between atoms: C_11  and  C_13
REMARK    5  A    between atoms: C_16  and  S_19
REMARK    6  A    between atoms: C_23  and  C_24
REMARK    7  A    between atoms: C_24  and  N_25
REMARK    8  A    between atoms: C_24  and  C_29
REMARK    9  A    between atoms: C_29  and  C_31
REMARK                            x       y       z     vdW  Elec       q    Type
REMARK                         _______ _______ _______ _____ _____    ______ ____
ROOT
ATOM      1  O   UNL     1      32.128  -9.580 -23.304  0.00  0.00    -0.275 OA
ATOM      2  N   UNL     1      31.999 -10.240 -21.090  0.00  0.00    -0.280 N 
ATOM      3  C   UNL     1      31.772  -8.905 -20.531  0.00  0.00    +0.095 C 
ATOM      4  C   UNL     1      31.277  -9.186 -19.110  0.00  0.00    +0.023 C 
ATOM      5  C   UNL     1      31.985 -10.483 -18.738  0.00  0.00    +0.023 C 
ATOM      6  C   UNL     1      31.981 -11.261 -20.046  0.00  0.00    +0.093 C 
ATOM      7  C   UNL     1      32.117 -10.469 -22.451  0.00  0.00    +0.224 C 
ENDROOT
BRANCH   3   8
ATOM      8  C   UNL     1      33.051  -8.072 -20.541  0.00  0.00    +0.109 C 
BRANCH   8  10
ATOM      9  O   UNL     1      35.193  -7.766 -22.428  0.00  0.00    -0.270 OA
ATOM     10  N   UNL     1      33.079  -7.188 -21.668  0.00  0.00    -0.299 N 
ATOM     11  C   UNL     1      34.165  -7.104 -22.537  0.00  0.00    +0.246 C 
ATOM     12  H   UNL     1      32.296  -6.616 -21.836  0.00  0.00    +0.150 HD
BRANCH  11  13
ATOM     13  C   UNL     1      34.048  -6.120 -23.643  0.00  0.00    +0.055 C 
ATOM     14  C   UNL     1      33.029  -5.168 -23.626  0.00  0.00    +0.023 C 
ATOM     15  C   UNL     1      34.959  -6.146 -24.699  0.00  0.00    +0.005 C 
ATOM     16  C   UNL     1      32.919  -4.244 -24.665  0.00  0.00    +0.106 C 
ATOM     17  C   UNL     1      34.849  -5.222 -25.738  0.00  0.00    +0.001 C 
ATOM     18  C   UNL     1      33.830  -4.271 -25.721  0.00  0.00    +0.018 C 
BRANCH  16  19
ATOM     19  S   UNL     1      31.643  -3.053 -24.643  0.00  0.00    +0.010 S 
ATOM     20  O   UNL     1      30.389  -3.711 -24.302  0.00  0.00    -0.169 OA
ATOM     21  O   UNL     1      32.102  -1.919 -23.854  0.00  0.00    -0.169 OA
ATOM     22  C   UNL     1      31.504  -2.521 -26.335  0.00  0.00    +0.182 C 
ENDBRANCH  16  19
ENDBRANCH  11  13
ENDBRANCH   8  10
ENDBRANCH   3   8
BRANCH   7  23
ATOM     23  C   UNL     1      32.242 -11.916 -22.858  0.00  0.00    +0.064 C 
BRANCH  23  24
ATOM     24  C   UNL     1      33.702 -12.370 -22.894  0.00  0.00    -0.052 C 
BRANCH  24  25
ATOM     25  N   UNL     1      34.447 -11.374 -23.676  0.00  0.00    +0.382 N 
ATOM     26  H   UNL     1      34.465 -10.489 -23.170  0.00  0.00    -0.089 HD
ATOM     27  H   UNL     1      33.993 -11.242 -24.580  0.00  0.00    -0.089 HD
ATOM     28  H   UNL     1      35.403 -11.702 -23.822  0.00  0.00    -0.089 HD
ENDBRANCH  24  25
BRANCH  24  29
ATOM     29  C   UNL     1      33.899 -13.754 -23.552  0.00  0.00    +0.005 C 
BRANCH  29  31
ATOM     30 CL   UNL     1      35.698 -18.594 -22.829  0.00  0.00    -0.082 Cl
ATOM     31  C   UNL     1      34.309 -14.850 -22.599  0.00  0.00    -0.023 C 
ATOM     32  C   UNL     1      34.762 -16.072 -23.097  0.00  0.00    +0.007 C 
ATOM     33  C   UNL     1      34.235 -14.641 -21.223  0.00  0.00    -0.004 C 
ATOM     34  C   UNL     1      35.140 -17.086 -22.216  0.00  0.00    +0.057 C 
ATOM     35  C   UNL     1      34.613 -15.655 -20.342  0.00  0.00    +0.001 C 
ATOM     36  C   UNL     1      35.066 -16.878 -20.840  0.00  0.00    +0.011 C 
ENDBRANCH  29  31
ENDBRANCH  24  29
ENDBRANCH  23  24
ENDBRANCH   7  23
TORSDOF 9
ENDMDL
