MODEL 1
REMARK VINA RESULT:     -11.9      0.000      0.000
REMARK  Name = 445018
REMARK  7 active torsions:
REMARK  status: ('A' for Active; 'I' for Inactive)
REMARK    1  A    between atoms: N_2  and  S_14
REMARK    2  A    between atoms: N_3  and  C_25
REMARK    3  A    between atoms: C_4  and  C_10
REMARK    4  A    between atoms: N_9  and  O_12
REMARK    5  A    between atoms: S_14  and  C_17
REMARK    6  A    between atoms: C_22  and  O_23
REMARK    7  A    between atoms: C_25  and  C_26
REMARK                            x       y       z     vdW  Elec       q    Type
REMARK                         _______ _______ _______ _____ _____    ______ ____
ROOT
ATOM      1  O   UNL     1      36.269 -22.965 -16.831  0.00  0.00    -0.275 OA
ATOM      2  N   UNL     1      33.154 -24.145 -14.458  0.00  0.00    -0.128 NA
ATOM      3  N   UNL     1      34.002 -23.467 -16.637  0.00  0.00    -0.260 N 
ATOM      4  C   UNL     1      34.437 -23.737 -13.830  0.00  0.00    +0.168 C 
ATOM      5  C   UNL     1      32.853 -23.472 -15.744  0.00  0.00    +0.192 C 
ATOM      6  C   UNL     1      35.248 -22.759 -14.672  0.00  0.00    +0.112 C 
ATOM      7  C   UNL     1      35.249 -23.085 -16.155  0.00  0.00    +0.229 C 
ENDROOT
BRANCH   4  10
ATOM      8  O   UNL     1      35.363 -25.810 -14.542  0.00  0.00    -0.272 OA
ATOM      9  N   UNL     1      35.630 -25.172 -12.336  0.00  0.00    -0.196 N 
ATOM     10  C   UNL     1      35.183 -25.014 -13.622  0.00  0.00    +0.261 C 
ATOM     11  H   UNL     1      35.456 -24.502 -11.636  0.00  0.00    +0.182 HD
BRANCH   9  12
ATOM     12  O   UNL     1      36.349 -26.347 -12.079  0.00  0.00    -0.295 OA
ATOM     13  H   UNL     1      35.913 -26.845 -11.371  0.00  0.00    +0.241 HD
ENDBRANCH   9  12
ENDBRANCH   4  10
BRANCH   2  14
ATOM     14  S   UNL     1      31.826 -24.406 -13.414  0.00  0.00    +0.065 S 
ATOM     15  O   UNL     1      31.768 -23.334 -12.442  0.00  0.00    -0.153 OA
ATOM     16  O   UNL     1      31.819 -25.791 -12.992  0.00  0.00    -0.153 OA
BRANCH  14  17
ATOM     17  C   UNL     1      30.489 -24.178 -14.546  0.00  0.00    +0.122 C 
ATOM     18  C   UNL     1      29.996 -22.903 -14.765  0.00  0.00    +0.023 C 
ATOM     19  C   UNL     1      29.957 -25.279 -15.196  0.00  0.00    +0.023 C 
ATOM     20  C   UNL     1      28.940 -22.723 -15.658  0.00  0.00    +0.038 C 
ATOM     21  C   UNL     1      28.901 -25.100 -16.090  0.00  0.00    +0.038 C 
ATOM     22  C   UNL     1      28.393 -23.821 -16.321  0.00  0.00    +0.139 C 
BRANCH  22  23
ATOM     23  O   UNL     1      27.363 -23.646 -17.193  0.00  0.00    -0.471 OA
ATOM     24  C   UNL     1      26.697 -22.385 -17.165  0.00  0.00    +0.252 C 
ENDBRANCH  22  23
ENDBRANCH  14  17
ENDBRANCH   2  14
BRANCH   3  25
ATOM     25  C   UNL     1      33.779 -23.736 -18.048  0.00  0.00    +0.121 C 
BRANCH  25  26
ATOM     26  C   UNL     1      33.907 -22.495 -18.883  0.00  0.00    -0.002 C 
ATOM     27  C   UNL     1      32.781 -21.724 -19.147  0.00  0.00    -0.003 C 
ATOM     28  C   UNL     1      35.150 -22.129 -19.386  0.00  0.00    -0.003 C 
ATOM     29  C   UNL     1      32.900 -20.572 -19.923  0.00  0.00    -0.000 C 
ATOM     30  C   UNL     1      35.269 -20.976 -20.162  0.00  0.00    -0.000 C 
ATOM     31  C   UNL     1      34.144 -20.198 -20.431  0.00  0.00    -0.000 C 
ENDBRANCH  25  26
ENDBRANCH   3  25
TORSDOF 7
ENDMDL
