MODEL 1
REMARK VINA RESULT:     -11.5      0.000      0.000
REMARK  Name = 10200651
REMARK  5 active torsions:
REMARK  status: ('A' for Active; 'I' for Inactive)
REMARK    1  A    between atoms: C_1  and  C_7
REMARK    2  A    between atoms: C_4  and  C_22
REMARK    3  A    between atoms: C_10  and  C_17
REMARK    4  A    between atoms: N_21  and  C_24
REMARK    5  A    between atoms: C_27  and  C_31
REMARK                            x       y       z     vdW  Elec       q    Type
REMARK                         _______ _______ _______ _____ _____    ______ ____
ROOT
ATOM      1  C   UNL     1      34.692 -19.926 -21.096  0.00  0.00    -0.000 C 
ATOM      2  C   UNL     1      33.474 -20.395 -20.603  0.00  0.00    +0.000 C 
ATOM      3  C   UNL     1      35.890 -20.410 -20.572  0.00  0.00    +0.000 C 
ATOM      4  C   UNL     1      34.655 -21.810 -19.084  0.00  0.00    +0.054 C 
ATOM      5  C   UNL     1      33.455 -21.348 -19.585  0.00  0.00    +0.005 C 
ATOM      6  C   UNL     1      35.871 -21.363 -19.554  0.00  0.00    +0.005 C 
ENDROOT
BRANCH   1   7
ATOM      7  C   UNL     1      34.712 -18.937 -22.153  0.00  0.00    -0.004 C 
ATOM      8  C   UNL     1      34.843 -19.312 -23.491  0.00  0.00    -0.022 C 
ATOM      9  C   UNL     1      34.597 -17.586 -21.819  0.00  0.00    +0.004 C 
ATOM     10  C   UNL     1      34.614 -16.614 -22.819  0.00  0.00    +0.055 C 
ATOM     11  C   UNL     1      34.860 -18.340 -24.491  0.00  0.00    -0.004 C 
ATOM     12  C   UNL     1      34.745 -16.991 -24.155  0.00  0.00    +0.004 C 
ATOM     13  C   UNL     1      34.969 -20.747 -23.889  0.00  0.00    +0.031 C 
BRANCH  10  17
ATOM     14  O   UNL     1      34.213 -14.379 -23.501  0.00  0.00    -0.420 OA
ATOM     15  N   UNL     1      34.619 -14.624 -21.315  0.00  0.00    -0.107 NA
ATOM     16  N   UNL     1      34.407 -13.280 -21.562  0.00  0.00    -0.111 NA
ATOM     17  C   UNL     1      34.496 -15.219 -22.472  0.00  0.00    +0.250 A 
ATOM     18  C   UNL     1      34.176 -13.184 -22.850  0.00  0.00    +0.227 A 
ATOM     19  C   UNL     1      33.887 -11.997 -23.663  0.00  0.00    +0.097 C 
ENDBRANCH  10  17
ENDBRANCH   1   7
BRANCH   4  22
ATOM     20  O   UNL     1      34.009 -23.861 -18.198  0.00  0.00    -0.270 OA
ATOM     21  N   UNL     1      35.364 -22.492 -16.850  0.00  0.00    -0.280 N 
ATOM     22  C   UNL     1      34.634 -22.825 -17.999  0.00  0.00    +0.249 C 
ATOM     23  H   UNL     1      35.807 -21.612 -16.860  0.00  0.00    +0.155 HD
BRANCH  21  24
ATOM     24  C   UNL     1      35.543 -23.253 -15.694  0.00  0.00    +0.051 C 
ATOM     25  C   UNL     1      36.822 -23.662 -15.319  0.00  0.00    +0.025 C 
ATOM     26  C   UNL     1      34.441 -23.605 -14.914  0.00  0.00    +0.015 C 
ATOM     27  C   UNL     1      37.000 -24.424 -14.163  0.00  0.00    +0.070 C 
ATOM     28  C   UNL     1      34.618 -24.366 -13.759  0.00  0.00    +0.002 C 
ATOM     29  C   UNL     1      35.898 -24.775 -13.384  0.00  0.00    +0.010 C 
BRANCH  27  31
ATOM     30  N   UNL     1      39.376 -25.184 -13.465  0.00  0.00    -0.191 NA
ATOM     31  C   UNL     1      38.310 -24.843 -13.778  0.00  0.00    +0.100 C 
ENDBRANCH  27  31
ENDBRANCH  21  24
ENDBRANCH   4  22
TORSDOF 5
ENDMDL
MODEL 2
REMARK VINA RESULT:     -11.4      1.229      1.936
REMARK  Name = 10200651
REMARK  5 active torsions:
REMARK  status: ('A' for Active; 'I' for Inactive)
REMARK    1  A    between atoms: C_1  and  C_7
REMARK    2  A    between atoms: C_4  and  C_22
REMARK    3  A    between atoms: C_10  and  C_17
REMARK    4  A    between atoms: N_21  and  C_24
REMARK    5  A    between atoms: C_27  and  C_31
REMARK                            x       y       z     vdW  Elec       q    Type
REMARK                         _______ _______ _______ _____ _____    ______ ____
ROOT
ATOM      1  C   UNL     1      34.555 -19.898 -21.193  0.00  0.00    -0.000 C 
ATOM      2  C   UNL     1      33.311 -20.337 -20.740  0.00  0.00    +0.000 C 
ATOM      3  C   UNL     1      35.724 -20.430 -20.651  0.00  0.00    +0.000 C 
ATOM      4  C   UNL     1      34.408 -21.821 -19.223  0.00  0.00    +0.054 C 
ATOM      5  C   UNL     1      33.237 -21.310 -19.743  0.00  0.00    +0.005 C 
ATOM      6  C   UNL     1      35.650 -21.403 -19.655  0.00  0.00    +0.005 C 
ENDROOT
BRANCH   1   7
ATOM      7  C   UNL     1      34.632 -18.888 -22.227  0.00  0.00    -0.004 C 
ATOM      8  C   UNL     1      34.807 -19.239 -23.567  0.00  0.00    -0.022 C 
ATOM      9  C   UNL     1      34.529 -17.542 -21.870  0.00  0.00    +0.004 C 
ATOM     10  C   UNL     1      34.601 -16.550 -22.848  0.00  0.00    +0.055 C 
ATOM     11  C   UNL     1      34.880 -18.247 -24.546  0.00  0.00    -0.004 C 
ATOM     12  C   UNL     1      34.776 -16.904 -24.187  0.00  0.00    +0.004 C 
ATOM     13  C   UNL     1      34.923 -20.667 -23.990  0.00  0.00    +0.031 C 
BRANCH  10  17
ATOM     14  O   UNL     1      34.206 -14.302 -23.489  0.00  0.00    -0.420 OA
ATOM     15  N   UNL     1      34.634 -14.586 -21.312  0.00  0.00    -0.107 NA
ATOM     16  N   UNL     1      34.428 -13.237 -21.534  0.00  0.00    -0.111 NA
ATOM     17  C   UNL     1      34.495 -15.161 -22.477  0.00  0.00    +0.250 A 
ATOM     18  C   UNL     1      34.183 -13.119 -22.818  0.00  0.00    +0.227 A 
ATOM     19  C   UNL     1      33.892 -11.916 -23.608  0.00  0.00    +0.097 C 
ENDBRANCH  10  17
ENDBRANCH   1   7
BRANCH   4  22
ATOM     20  O   UNL     1      33.742 -23.901 -18.424  0.00  0.00    -0.270 OA
ATOM     21  N   UNL     1      34.964 -22.532 -16.955  0.00  0.00    -0.280 N 
ATOM     22  C   UNL     1      34.329 -22.857 -18.161  0.00  0.00    +0.249 C 
ATOM     23  H   UNL     1      35.389 -21.644 -16.917  0.00  0.00    +0.155 HD
BRANCH  21  24
ATOM     24  C   UNL     1      35.073 -23.312 -15.803  0.00  0.00    +0.051 C 
ATOM     25  C   UNL     1      33.923 -23.754 -15.149  0.00  0.00    +0.025 C 
ATOM     26  C   UNL     1      36.331 -23.650 -15.306  0.00  0.00    +0.015 C 
ATOM     27  C   UNL     1      34.032 -24.534 -13.997  0.00  0.00    +0.070 C 
ATOM     28  C   UNL     1      36.441 -24.429 -14.155  0.00  0.00    +0.002 C 
ATOM     29  C   UNL     1      35.291 -24.870 -13.500  0.00  0.00    +0.010 C 
BRANCH  27  31
ATOM     30  N   UNL     1      31.897 -25.354 -12.781  0.00  0.00    -0.191 NA
ATOM     31  C   UNL     1      32.855 -24.986 -13.326  0.00  0.00    +0.100 C 
ENDBRANCH  27  31
ENDBRANCH  21  24
ENDBRANCH   4  22
TORSDOF 5
ENDMDL
MODEL 3
REMARK VINA RESULT:     -11.0      2.231     10.880
REMARK  Name = 10200651
REMARK  5 active torsions:
REMARK  status: ('A' for Active; 'I' for Inactive)
REMARK    1  A    between atoms: C_1  and  C_7
REMARK    2  A    between atoms: C_4  and  C_22
REMARK    3  A    between atoms: C_10  and  C_17
REMARK    4  A    between atoms: N_21  and  C_24
REMARK    5  A    between atoms: C_27  and  C_31
REMARK                            x       y       z     vdW  Elec       q    Type
REMARK                         _______ _______ _______ _____ _____    ______ ____
ROOT
ATOM      1  C   UNL     1      34.171 -23.018 -16.932  0.00  0.00    -0.000 C 
ATOM      2  C   UNL     1      35.234 -22.445 -17.629  0.00  0.00    +0.000 C 
ATOM      3  C   UNL     1      32.863 -22.829 -17.375  0.00  0.00    +0.000 C 
ATOM      4  C   UNL     1      33.685 -21.510 -19.188  0.00  0.00    +0.054 C 
ATOM      5  C   UNL     1      34.989 -21.682 -18.771  0.00  0.00    +0.005 C 
ATOM      6  C   UNL     1      32.617 -22.065 -18.516  0.00  0.00    +0.005 C 
ENDROOT
BRANCH   1   7
ATOM      7  C   UNL     1      34.426 -23.810 -15.748  0.00  0.00    -0.004 C 
ATOM      8  C   UNL     1      33.489 -23.889 -14.716  0.00  0.00    -0.022 C 
ATOM      9  C   UNL     1      35.633 -24.505 -15.644  0.00  0.00    +0.004 C 
ATOM     10  C   UNL     1      35.903 -25.274 -14.512  0.00  0.00    +0.055 C 
ATOM     11  C   UNL     1      33.759 -24.658 -13.584  0.00  0.00    -0.004 C 
ATOM     12  C   UNL     1      34.965 -25.351 -13.482  0.00  0.00    +0.004 C 
ATOM     13  C   UNL     1      32.187 -23.160 -14.789  0.00  0.00    +0.031 C 
BRANCH  10  17
ATOM     14  O   UNL     1      38.251 -25.225 -14.189  0.00  0.00    -0.420 OA
ATOM     15  N   UNL     1      37.398 -27.270 -14.488  0.00  0.00    -0.107 NA
ATOM     16  N   UNL     1      38.763 -27.399 -14.315  0.00  0.00    -0.111 NA
ATOM     17  C   UNL     1      37.150 -25.990 -14.406  0.00  0.00    +0.250 A 
ATOM     18  C   UNL     1      39.220 -26.180 -14.145  0.00  0.00    +0.227 A 
ATOM     19  C   UNL     1      40.594 -25.719 -13.919  0.00  0.00    +0.097 C 
ENDBRANCH  10  17
ENDBRANCH   1   7
BRANCH   4  22
ATOM     20  O   UNL     1      32.270 -20.639 -20.816  0.00  0.00    -0.270 OA
ATOM     21  N   UNL     1      34.542 -20.048 -20.946  0.00  0.00    -0.280 N 
ATOM     22  C   UNL     1      33.423 -20.695 -20.403  0.00  0.00    +0.249 C 
ATOM     23  H   UNL     1      35.398 -20.206 -20.484  0.00  0.00    +0.155 HD
BRANCH  21  24
ATOM     24  C   UNL     1      34.593 -19.207 -22.058  0.00  0.00    +0.051 C 
ATOM     25  C   UNL     1      34.691 -17.827 -21.884  0.00  0.00    +0.025 C 
ATOM     26  C   UNL     1      34.546 -19.746 -23.343  0.00  0.00    +0.015 C 
ATOM     27  C   UNL     1      34.741 -16.985 -22.996  0.00  0.00    +0.070 C 
ATOM     28  C   UNL     1      34.596 -18.906 -24.455  0.00  0.00    +0.002 C 
ATOM     29  C   UNL     1      34.693 -17.525 -24.281  0.00  0.00    +0.010 C 
BRANCH  27  31
ATOM     30  N   UNL     1      34.922 -14.421 -22.674  0.00  0.00    -0.191 NA
ATOM     31  C   UNL     1      34.841 -15.571 -22.819  0.00  0.00    +0.100 C 
ENDBRANCH  27  31
ENDBRANCH  21  24
ENDBRANCH   4  22
TORSDOF 5
ENDMDL
MODEL 4
REMARK VINA RESULT:     -10.9      4.229     12.566
REMARK  Name = 10200651
REMARK  5 active torsions:
REMARK  status: ('A' for Active; 'I' for Inactive)
REMARK    1  A    between atoms: C_1  and  C_7
REMARK    2  A    between atoms: C_4  and  C_22
REMARK    3  A    between atoms: C_10  and  C_17
REMARK    4  A    between atoms: N_21  and  C_24
REMARK    5  A    between atoms: C_27  and  C_31
REMARK                            x       y       z     vdW  Elec       q    Type
REMARK                         _______ _______ _______ _____ _____    ______ ____
ROOT
ATOM      1  C   UNL     1      33.622 -14.267 -22.710  0.00  0.00    -0.000 C 
ATOM      2  C   UNL     1      32.796 -14.138 -21.593  0.00  0.00    +0.000 C 
ATOM      3  C   UNL     1      33.969 -13.141 -23.455  0.00  0.00    +0.000 C 
ATOM      4  C   UNL     1      32.677 -11.784 -21.975  0.00  0.00    +0.054 C 
ATOM      5  C   UNL     1      32.318 -12.882 -21.221  0.00  0.00    +0.005 C 
ATOM      6  C   UNL     1      33.491 -11.885 -23.083  0.00  0.00    +0.005 C 
ENDROOT
BRANCH   1   7
ATOM      7  C   UNL     1      34.118 -15.571 -23.096  0.00  0.00    -0.004 C 
ATOM      8  C   UNL     1      34.023 -16.018 -24.415  0.00  0.00    -0.022 C 
ATOM      9  C   UNL     1      34.700 -16.389 -22.125  0.00  0.00    +0.004 C 
ATOM     10  C   UNL     1      35.184 -17.651 -22.472  0.00  0.00    +0.055 C 
ATOM     11  C   UNL     1      34.507 -17.280 -24.761  0.00  0.00    -0.004 C 
ATOM     12  C   UNL     1      35.088 -18.095 -23.791  0.00  0.00    +0.004 C 
ATOM     13  C   UNL     1      33.407 -15.173 -25.482  0.00  0.00    +0.031 C 
BRANCH  10  17
ATOM     14  O   UNL     1      35.135 -19.660 -21.215  0.00  0.00    -0.420 OA
ATOM     15  N   UNL     1      36.863 -18.318 -20.752  0.00  0.00    -0.107 NA
ATOM     16  N   UNL     1      36.966 -19.439 -19.950  0.00  0.00    -0.111 NA
ATOM     17  C   UNL     1      35.784 -18.495 -21.468  0.00  0.00    +0.250 A 
ATOM     18  C   UNL     1      35.936 -20.193 -20.253  0.00  0.00    +0.227 A 
ATOM     19  C   UNL     1      35.542 -21.499 -19.712  0.00  0.00    +0.097 C 
ENDBRANCH  10  17
ENDBRANCH   1   7
BRANCH   4  22
ATOM     20  O   UNL     1      31.189 -10.403 -20.840  0.00  0.00    -0.270 OA
ATOM     21  N   UNL     1      32.884  -9.354 -22.086  0.00  0.00    -0.280 N 
ATOM     22  C   UNL     1      32.166 -10.445 -21.579  0.00  0.00    +0.249 C 
ATOM     23  H   UNL     1      33.647  -9.573 -22.670  0.00  0.00    +0.155 HD
BRANCH  21  24
ATOM     24  C   UNL     1      32.654  -7.995 -21.864  0.00  0.00    +0.051 C 
ATOM     25  C   UNL     1      32.060  -7.217 -22.857  0.00  0.00    +0.025 C 
ATOM     26  C   UNL     1      33.017  -7.416 -20.648  0.00  0.00    +0.015 C 
ATOM     27  C   UNL     1      31.830  -5.859 -22.636  0.00  0.00    +0.070 C 
ATOM     28  C   UNL     1      32.787  -6.059 -20.426  0.00  0.00    +0.002 C 
ATOM     29  C   UNL     1      32.194  -5.281 -21.420  0.00  0.00    +0.010 C 
BRANCH  27  31
ATOM     30  N   UNL     1      30.728  -4.413 -24.480  0.00  0.00    -0.191 NA
ATOM     31  C   UNL     1      31.222  -5.061 -23.653  0.00  0.00    +0.100 C 
ENDBRANCH  27  31
ENDBRANCH  21  24
ENDBRANCH   4  22
TORSDOF 5
ENDMDL
MODEL 5
REMARK VINA RESULT:     -10.9      2.795     10.596
REMARK  Name = 10200651
REMARK  5 active torsions:
REMARK  status: ('A' for Active; 'I' for Inactive)
REMARK    1  A    between atoms: C_1  and  C_7
REMARK    2  A    between atoms: C_4  and  C_22
REMARK    3  A    between atoms: C_10  and  C_17
REMARK    4  A    between atoms: N_21  and  C_24
REMARK    5  A    between atoms: C_27  and  C_31
REMARK                            x       y       z     vdW  Elec       q    Type
REMARK                         _______ _______ _______ _____ _____    ______ ____
ROOT
ATOM      1  C   UNL     1      35.475 -22.693 -16.833  0.00  0.00    -0.000 C 
ATOM      2  C   UNL     1      34.515 -22.667 -17.845  0.00  0.00    +0.000 C 
ATOM      3  C   UNL     1      36.634 -21.927 -16.950  0.00  0.00    +0.000 C 
ATOM      4  C   UNL     1      35.870 -21.126 -19.066  0.00  0.00    +0.054 C 
ATOM      5  C   UNL     1      34.715 -21.874 -18.974  0.00  0.00    +0.005 C 
ATOM      6  C   UNL     1      36.834 -21.134 -18.080  0.00  0.00    +0.005 C 
ENDROOT
BRANCH   1   7
ATOM      7  C   UNL     1      35.268 -23.516 -15.660  0.00  0.00    -0.004 C 
ATOM      8  C   UNL     1      36.347 -24.015 -14.928  0.00  0.00    -0.022 C 
ATOM      9  C   UNL     1      33.963 -23.812 -15.262  0.00  0.00    +0.004 C 
ATOM     10  C   UNL     1      33.737 -24.605 -14.137  0.00  0.00    +0.055 C 
ATOM     11  C   UNL     1      36.121 -24.807 -13.802  0.00  0.00    -0.004 C 
ATOM     12  C   UNL     1      34.817 -25.101 -13.406  0.00  0.00    +0.004 C 
ATOM     13  C   UNL     1      37.758 -23.721 -15.322  0.00  0.00    +0.031 C 
BRANCH  10  17
ATOM     14  O   UNL     1      31.443 -24.813 -14.698  0.00  0.00    -0.420 OA
ATOM     15  N   UNL     1      31.921 -25.266 -12.560  0.00  0.00    -0.107 NA
ATOM     16  N   UNL     1      30.559 -25.427 -12.736  0.00  0.00    -0.111 NA
ATOM     17  C   UNL     1      32.388 -24.910 -13.727  0.00  0.00    +0.250 A 
ATOM     18  C   UNL     1      30.326 -25.151 -13.998  0.00  0.00    +0.227 A 
ATOM     19  C   UNL     1      29.059 -25.159 -14.738  0.00  0.00    +0.097 C 
ENDBRANCH  10  17
ENDBRANCH   1   7
BRANCH   4  22
ATOM     20  O   UNL     1      37.239 -20.077 -20.627  0.00  0.00    -0.270 OA
ATOM     21  N   UNL     1      34.917 -19.818 -20.894  0.00  0.00    -0.280 N 
ATOM     22  C   UNL     1      36.083 -20.281 -20.270  0.00  0.00    +0.249 C 
ATOM     23  H   UNL     1      34.067 -20.080 -20.469  0.00  0.00    +0.155 HD
BRANCH  21  24
ATOM     24  C   UNL     1      34.810 -19.036 -22.044  0.00  0.00    +0.051 C 
ATOM     25  C   UNL     1      34.856 -17.645 -21.949  0.00  0.00    +0.025 C 
ATOM     26  C   UNL     1      34.658 -19.644 -23.290  0.00  0.00    +0.015 C 
ATOM     27  C   UNL     1      34.749 -16.863 -23.099  0.00  0.00    +0.070 C 
ATOM     28  C   UNL     1      34.550 -18.863 -24.440  0.00  0.00    +0.002 C 
ATOM     29  C   UNL     1      34.595 -17.472 -24.344  0.00  0.00    +0.010 C 
BRANCH  27  31
ATOM     30  N   UNL     1      34.833 -14.280 -22.923  0.00  0.00    -0.191 NA
ATOM     31  C   UNL     1      34.795 -15.438 -23.002  0.00  0.00    +0.100 C 
ENDBRANCH  27  31
ENDBRANCH  21  24
ENDBRANCH   4  22
TORSDOF 5
ENDMDL
MODEL 6
REMARK VINA RESULT:     -10.6      2.090     10.690
REMARK  Name = 10200651
REMARK  5 active torsions:
REMARK  status: ('A' for Active; 'I' for Inactive)
REMARK    1  A    between atoms: C_1  and  C_7
REMARK    2  A    between atoms: C_4  and  C_22
REMARK    3  A    between atoms: C_10  and  C_17
REMARK    4  A    between atoms: N_21  and  C_24
REMARK    5  A    between atoms: C_27  and  C_31
REMARK                            x       y       z     vdW  Elec       q    Type
REMARK                         _______ _______ _______ _____ _____    ______ ____
ROOT
ATOM      1  C   UNL     1      34.945 -22.402 -17.640  0.00  0.00    -0.000 C 
ATOM      2  C   UNL     1      33.755 -22.209 -18.341  0.00  0.00    +0.000 C 
ATOM      3  C   UNL     1      36.133 -21.850 -18.116  0.00  0.00    +0.000 C 
ATOM      4  C   UNL     1      34.943 -20.927 -19.969  0.00  0.00    +0.054 C 
ATOM      5  C   UNL     1      33.754 -21.463 -19.519  0.00  0.00    +0.005 C 
ATOM      6  C   UNL     1      36.132 -21.104 -19.294  0.00  0.00    +0.005 C 
ENDROOT
BRANCH   1   7
ATOM      7  C   UNL     1      34.946 -23.177 -16.417  0.00  0.00    -0.004 C 
ATOM      8  C   UNL     1      33.756 -23.654 -15.864  0.00  0.00    -0.022 C 
ATOM      9  C   UNL     1      36.162 -23.446 -15.786  0.00  0.00    +0.004 C 
ATOM     10  C   UNL     1      36.189 -24.189 -14.606  0.00  0.00    +0.055 C 
ATOM     11  C   UNL     1      33.783 -24.398 -14.684  0.00  0.00    -0.004 C 
ATOM     12  C   UNL     1      34.999 -24.666 -14.055  0.00  0.00    +0.004 C 
ATOM     13  C   UNL     1      32.435 -23.387 -16.509  0.00  0.00    +0.031 C 
BRANCH  10  17
ATOM     14  O   UNL     1      38.261 -25.341 -14.598  0.00  0.00    -0.420 OA
ATOM     15  N   UNL     1      37.934 -24.008 -12.833  0.00  0.00    -0.107 NA
ATOM     16  N   UNL     1      39.171 -24.608 -12.691  0.00  0.00    -0.111 NA
ATOM     17  C   UNL     1      37.446 -24.466 -13.955  0.00  0.00    +0.250 A 
ATOM     18  C   UNL     1      39.319 -25.378 -13.744  0.00  0.00    +0.227 A 
ATOM     19  C   UNL     1      40.440 -26.249 -14.116  0.00  0.00    +0.097 C 
ENDBRANCH  10  17
ENDBRANCH   1   7
BRANCH   4  22
ATOM     20  O   UNL     1      34.968 -20.745 -22.287  0.00  0.00    -0.270 OA
ATOM     21  N   UNL     1      34.887 -18.743 -21.057  0.00  0.00    -0.280 N 
ATOM     22  C   UNL     1      34.941 -20.133 -21.225  0.00  0.00    +0.249 C 
ATOM     23  H   UNL     1      34.872 -18.420 -20.126  0.00  0.00    +0.155 HD
BRANCH  21  24
ATOM     24  C   UNL     1      34.848 -17.758 -22.046  0.00  0.00    +0.051 C 
ATOM     25  C   UNL     1      34.663 -16.422 -21.693  0.00  0.00    +0.025 C 
ATOM     26  C   UNL     1      34.995 -18.111 -23.387  0.00  0.00    +0.015 C 
ATOM     27  C   UNL     1      34.624 -15.438 -22.681  0.00  0.00    +0.070 C 
ATOM     28  C   UNL     1      34.956 -17.129 -24.376  0.00  0.00    +0.002 C 
ATOM     29  C   UNL     1      34.770 -15.792 -24.023  0.00  0.00    +0.010 C 
BRANCH  27  31
ATOM     30  N   UNL     1      34.280 -12.956 -22.027  0.00  0.00    -0.191 NA
ATOM     31  C   UNL     1      34.434 -14.069 -22.320  0.00  0.00    +0.100 C 
ENDBRANCH  27  31
ENDBRANCH  21  24
ENDBRANCH   4  22
TORSDOF 5
ENDMDL
MODEL 7
REMARK VINA RESULT:     -10.6      1.804      2.227
REMARK  Name = 10200651
REMARK  5 active torsions:
REMARK  status: ('A' for Active; 'I' for Inactive)
REMARK    1  A    between atoms: C_1  and  C_7
REMARK    2  A    between atoms: C_4  and  C_22
REMARK    3  A    between atoms: C_10  and  C_17
REMARK    4  A    between atoms: N_21  and  C_24
REMARK    5  A    between atoms: C_27  and  C_31
REMARK                            x       y       z     vdW  Elec       q    Type
REMARK                         _______ _______ _______ _____ _____    ______ ____
ROOT
ATOM      1  C   UNL     1      34.368 -19.906 -21.096  0.00  0.00    -0.000 C 
ATOM      2  C   UNL     1      33.089 -20.258 -20.665  0.00  0.00    +0.000 C 
ATOM      3  C   UNL     1      35.489 -20.489 -20.506  0.00  0.00    +0.000 C 
ATOM      4  C   UNL     1      34.056 -21.757 -19.076  0.00  0.00    +0.054 C 
ATOM      5  C   UNL     1      32.931 -21.194 -19.643  0.00  0.00    +0.005 C 
ATOM      6  C   UNL     1      35.331 -21.426 -19.485  0.00  0.00    +0.005 C 
ENDROOT
BRANCH   1   7
ATOM      7  C   UNL     1      34.532 -18.934 -22.156  0.00  0.00    -0.004 C 
ATOM      8  C   UNL     1      34.779 -19.335 -23.470  0.00  0.00    -0.022 C 
ATOM      9  C   UNL     1      34.440 -17.575 -21.850  0.00  0.00    +0.004 C 
ATOM     10  C   UNL     1      34.595 -16.619 -22.854  0.00  0.00    +0.055 C 
ATOM     11  C   UNL     1      34.935 -18.379 -24.475  0.00  0.00    -0.004 C 
ATOM     12  C   UNL     1      34.842 -17.022 -24.167  0.00  0.00    +0.004 C 
ATOM     13  C   UNL     1      34.886 -20.779 -23.838  0.00  0.00    +0.031 C 
BRANCH  10  17
ATOM     14  O   UNL     1      34.176 -14.399 -23.572  0.00  0.00    -0.420 OA
ATOM     15  N   UNL     1      34.679 -14.594 -21.401  0.00  0.00    -0.107 NA
ATOM     16  N   UNL     1      34.463 -13.256 -21.671  0.00  0.00    -0.111 NA
ATOM     17  C   UNL     1      34.500 -15.216 -22.536  0.00  0.00    +0.250 A 
ATOM     18  C   UNL     1      34.173 -13.189 -22.949  0.00  0.00    +0.227 A 
ATOM     19  C   UNL     1      33.854 -12.020 -23.777  0.00  0.00    +0.097 C 
ENDBRANCH  10  17
ENDBRANCH   1   7
BRANCH   4  22
ATOM     20  O   UNL     1      34.758 -23.607 -17.855  0.00  0.00    -0.270 OA
ATOM     21  N   UNL     1      32.739 -22.595 -17.199  0.00  0.00    -0.280 N 
ATOM     22  C   UNL     1      33.887 -22.754 -17.987  0.00  0.00    +0.249 C 
ATOM     23  H   UNL     1      32.144 -21.851 -17.449  0.00  0.00    +0.155 HD
BRANCH  21  24
ATOM     24  C   UNL     1      32.337 -23.358 -16.102  0.00  0.00    +0.051 C 
ATOM     25  C   UNL     1      33.223 -23.589 -15.051  0.00  0.00    +0.025 C 
ATOM     26  C   UNL     1      31.049 -23.890 -16.058  0.00  0.00    +0.015 C 
ATOM     27  C   UNL     1      32.821 -24.352 -13.954  0.00  0.00    +0.070 C 
ATOM     28  C   UNL     1      30.646 -24.653 -14.963  0.00  0.00    +0.002 C 
ATOM     29  C   UNL     1      31.532 -24.885 -13.911  0.00  0.00    +0.010 C 
BRANCH  27  31
ATOM     30  N   UNL     1      34.466 -24.782 -12.000  0.00  0.00    -0.191 NA
ATOM     31  C   UNL     1      33.728 -24.589 -12.876  0.00  0.00    +0.100 C 
ENDBRANCH  27  31
ENDBRANCH  21  24
ENDBRANCH   4  22
TORSDOF 5
ENDMDL
MODEL 8
REMARK VINA RESULT:     -10.5      2.453     10.899
REMARK  Name = 10200651
REMARK  5 active torsions:
REMARK  status: ('A' for Active; 'I' for Inactive)
REMARK    1  A    between atoms: C_1  and  C_7
REMARK    2  A    between atoms: C_4  and  C_22
REMARK    3  A    between atoms: C_10  and  C_17
REMARK    4  A    between atoms: N_21  and  C_24
REMARK    5  A    between atoms: C_27  and  C_31
REMARK                            x       y       z     vdW  Elec       q    Type
REMARK                         _______ _______ _______ _____ _____    ______ ____
ROOT
ATOM      1  C   UNL     1      33.914 -22.902 -16.808  0.00  0.00    -0.000 C 
ATOM      2  C   UNL     1      32.986 -22.539 -17.785  0.00  0.00    +0.000 C 
ATOM      3  C   UNL     1      35.267 -22.618 -16.991  0.00  0.00    +0.000 C 
ATOM      4  C   UNL     1      34.756 -21.624 -19.101  0.00  0.00    +0.054 C 
ATOM      5  C   UNL     1      33.412 -21.893 -18.945  0.00  0.00    +0.005 C 
ATOM      6  C   UNL     1      35.693 -21.971 -18.151  0.00  0.00    +0.005 C 
ENDROOT
BRANCH   1   7
ATOM      7  C   UNL     1      33.472 -23.573 -15.605  0.00  0.00    -0.004 C 
ATOM      8  C   UNL     1      32.118 -23.823 -15.373  0.00  0.00    -0.022 C 
ATOM      9  C   UNL     1      34.423 -23.974 -14.664  0.00  0.00    +0.004 C 
ATOM     10  C   UNL     1      34.021 -24.621 -13.495  0.00  0.00    +0.055 C 
ATOM     11  C   UNL     1      31.717 -24.471 -14.205  0.00  0.00    -0.004 C 
ATOM     12  C   UNL     1      32.668 -24.871 -13.267  0.00  0.00    +0.004 C 
ATOM     13  C   UNL     1      31.070 -23.410 -16.355  0.00  0.00    +0.031 C 
BRANCH  10  17
ATOM     14  O   UNL     1      36.219 -25.376 -13.026  0.00  0.00    -0.420 OA
ATOM     15  N   UNL     1      34.916 -25.136 -11.225  0.00  0.00    -0.107 NA
ATOM     16  N   UNL     1      36.154 -25.579 -10.800  0.00  0.00    -0.111 NA
ATOM     17  C   UNL     1      35.004 -25.034 -12.524  0.00  0.00    +0.250 A 
ATOM     18  C   UNL     1      36.882 -25.706 -11.884  0.00  0.00    +0.227 A 
ATOM     19  C   UNL     1      38.275 -26.142 -12.031  0.00  0.00    +0.097 C 
ENDBRANCH  10  17
ENDBRANCH   1   7
BRANCH   4  22
ATOM     20  O   UNL     1      36.285 -21.275 -20.819  0.00  0.00    -0.270 OA
ATOM     21  N   UNL     1      34.331 -19.967 -20.844  0.00  0.00    -0.280 N 
ATOM     22  C   UNL     1      35.209 -20.935 -20.338  0.00  0.00    +0.249 C 
ATOM     23  H   UNL     1      33.506 -19.820 -20.326  0.00  0.00    +0.155 HD
BRANCH  21  24
ATOM     24  C   UNL     1      34.480 -19.187 -21.991  0.00  0.00    +0.051 C 
ATOM     25  C   UNL     1      34.599 -17.802 -21.883  0.00  0.00    +0.025 C 
ATOM     26  C   UNL     1      34.510 -19.793 -23.247  0.00  0.00    +0.015 C 
ATOM     27  C   UNL     1      34.748 -17.022 -23.031  0.00  0.00    +0.070 C 
ATOM     28  C   UNL     1      34.659 -19.015 -24.394  0.00  0.00    +0.002 C 
ATOM     29  C   UNL     1      34.777 -17.629 -24.286  0.00  0.00    +0.010 C 
BRANCH  27  31
ATOM     30  N   UNL     1      34.968 -14.449 -22.831  0.00  0.00    -0.191 NA
ATOM     31  C   UNL     1      34.870 -15.603 -22.920  0.00  0.00    +0.100 C 
ENDBRANCH  27  31
ENDBRANCH  21  24
ENDBRANCH   4  22
TORSDOF 5
ENDMDL
MODEL 9
REMARK VINA RESULT:     -10.5      5.414     10.379
REMARK  Name = 10200651
REMARK  5 active torsions:
REMARK  status: ('A' for Active; 'I' for Inactive)
REMARK    1  A    between atoms: C_1  and  C_7
REMARK    2  A    between atoms: C_4  and  C_22
REMARK    3  A    between atoms: C_10  and  C_17
REMARK    4  A    between atoms: N_21  and  C_24
REMARK    5  A    between atoms: C_27  and  C_31
REMARK                            x       y       z     vdW  Elec       q    Type
REMARK                         _______ _______ _______ _____ _____    ______ ____
ROOT
ATOM      1  C   UNL     1      32.569 -10.259 -22.384  0.00  0.00    -0.000 C 
ATOM      2  C   UNL     1      31.755 -11.313 -21.966  0.00  0.00    +0.000 C 
ATOM      3  C   UNL     1      33.663 -10.508 -23.211  0.00  0.00    +0.000 C 
ATOM      4  C   UNL     1      33.126 -12.835 -23.193  0.00  0.00    +0.054 C 
ATOM      5  C   UNL     1      32.037 -12.616 -22.375  0.00  0.00    +0.005 C 
ATOM      6  C   UNL     1      33.945 -11.811 -23.621  0.00  0.00    +0.005 C 
ENDROOT
BRANCH   1   7
ATOM      7  C   UNL     1      32.276  -8.907 -21.959  0.00  0.00    -0.004 C 
ATOM      8  C   UNL     1      32.104  -8.596 -20.609  0.00  0.00    -0.022 C 
ATOM      9  C   UNL     1      32.164  -7.903 -22.923  0.00  0.00    +0.004 C 
ATOM     10  C   UNL     1      31.881  -6.592 -22.538  0.00  0.00    +0.055 C 
ATOM     11  C   UNL     1      31.821  -7.285 -20.225  0.00  0.00    -0.004 C 
ATOM     12  C   UNL     1      31.711  -6.283 -21.188  0.00  0.00    +0.004 C 
ATOM     13  C   UNL     1      32.215  -9.642 -19.548  0.00  0.00    +0.031 C 
BRANCH  10  17
ATOM     14  O   UNL     1      32.667  -5.613 -24.549  0.00  0.00    -0.420 OA
ATOM     15  N   UNL     1      30.927  -4.558 -23.621  0.00  0.00    -0.107 NA
ATOM     16  N   UNL     1      31.272  -3.879 -24.775  0.00  0.00    -0.111 NA
ATOM     17  C   UNL     1      31.766  -5.556 -23.535  0.00  0.00    +0.250 A 
ATOM     18  C   UNL     1      32.293  -4.529 -25.283  0.00  0.00    +0.227 A 
ATOM     19  C   UNL     1      33.064  -4.257 -26.501  0.00  0.00    +0.097 C 
ENDBRANCH  10  17
ENDBRANCH   1   7
BRANCH   4  22
ATOM     20  O   UNL     1      33.052 -14.566 -24.745  0.00  0.00    -0.270 OA
ATOM     21  N   UNL     1      34.140 -15.002 -22.706  0.00  0.00    -0.280 N 
ATOM     22  C   UNL     1      33.427 -14.224 -23.629  0.00  0.00    +0.249 C 
ATOM     23  H   UNL     1      34.360 -14.565 -21.852  0.00  0.00    +0.155 HD
BRANCH  21  24
ATOM     24  C   UNL     1      34.578 -16.319 -22.850  0.00  0.00    +0.051 C 
ATOM     25  C   UNL     1      35.391 -16.894 -21.874  0.00  0.00    +0.025 C 
ATOM     26  C   UNL     1      34.203 -17.060 -23.971  0.00  0.00    +0.015 C 
ATOM     27  C   UNL     1      35.830 -18.211 -22.018  0.00  0.00    +0.070 C 
ATOM     28  C   UNL     1      34.641 -18.376 -24.116  0.00  0.00    +0.002 C 
ATOM     29  C   UNL     1      35.455 -18.951 -23.140  0.00  0.00    +0.010 C 
BRANCH  27  31
ATOM     30  N   UNL     1      37.340 -19.280 -20.206  0.00  0.00    -0.191 NA
ATOM     31  C   UNL     1      36.662 -18.801 -21.019  0.00  0.00    +0.100 C 
ENDBRANCH  27  31
ENDBRANCH  21  24
ENDBRANCH   4  22
TORSDOF 5
ENDMDL
