MODEL 1
REMARK VINA RESULT:     -12.0      0.000      0.000
REMARK  Name = 6852168
REMARK  5 active torsions:
REMARK  status: ('A' for Active; 'I' for Inactive)
REMARK    1  A    between atoms: N_1  and  C_5
REMARK    2  A    between atoms: N_1  and  S_19
REMARK    3  A    between atoms: N_4  and  C_9
REMARK    4  A    between atoms: C_9  and  C_14
REMARK    5  A    between atoms: S_19  and  C_23
REMARK                            x       y       z     vdW  Elec       q    Type
REMARK                         _______ _______ _______ _____ _____    ______ ____
ROOT
ATOM      1  N   UNL     1      34.607 -17.429 -22.187  0.00  0.00    -0.172 NA
ATOM      2  H   UNL     1      34.657 -17.334 -21.173  0.00  0.00    +0.149 HD
ENDROOT
BRANCH   1   5
ATOM      3  O   UNL     1      34.741 -14.668 -20.935  0.00  0.00    -0.273 OA
ATOM      4  N   UNL     1      33.560 -14.538 -22.967  0.00  0.00    -0.272 N 
ATOM      5  C   UNL     1      35.186 -16.201 -22.759  0.00  0.00    +0.153 C 
ATOM      6  C   UNL     1      34.809 -16.041 -24.227  0.00  0.00    +0.048 C 
ATOM      7  C   UNL     1      33.488 -15.294 -24.195  0.00  0.00    +0.096 C 
ATOM      8  C   UNL     1      34.508 -15.040 -22.077  0.00  0.00    +0.242 C 
BRANCH   4   9
ATOM      9  C   UNL     1      32.617 -13.481 -22.674  0.00  0.00    +0.152 C 
ATOM     10  C   UNL     1      32.269 -13.410 -21.205  0.00  0.00    +0.031 C 
BRANCH   9  14
ATOM     11  O   UNL     1      31.211  -8.632 -22.755  0.00  0.00    -0.350 OA
ATOM     12  O   UNL     1      34.365 -12.306 -23.763  0.00  0.00    -0.273 OA
ATOM     13  N   UNL     1      32.712 -11.017 -22.765  0.00  0.00    -0.273 N 
ATOM     14  C   UNL     1      33.316 -12.221 -23.118  0.00  0.00    +0.244 C 
ATOM     15  C   UNL     1      31.540 -10.877 -21.894  0.00  0.00    +0.126 C 
ATOM     16  C   UNL     1      33.322  -9.747 -23.160  0.00  0.00    +0.126 C 
ATOM     17  C   UNL     1      30.557  -9.876 -22.490  0.00  0.00    +0.164 C 
ATOM     18  C   UNL     1      32.265  -8.798 -23.707  0.00  0.00    +0.164 C 
ENDBRANCH   9  14
ENDBRANCH   4   9
ENDBRANCH   1   5
BRANCH   1  19
ATOM     19  S   UNL     1      35.275 -18.948 -22.570  0.00  0.00    +0.061 S 
ATOM     20  O   UNL     1      36.718 -18.881 -22.444  0.00  0.00    -0.153 OA
ATOM     21  O   UNL     1      34.672 -19.434 -23.797  0.00  0.00    -0.153 OA
BRANCH  19  23
ATOM     22 CL   UNL     1      33.495 -23.945 -15.972  0.00  0.00    -0.082 Cl
ATOM     23  C   UNL     1      34.658 -19.957 -21.258  0.00  0.00    +0.122 C 
ATOM     24  C   UNL     1      35.553 -20.554 -20.386  0.00  0.00    +0.020 C 
ATOM     25  C   UNL     1      33.294 -20.133 -21.127  0.00  0.00    +0.020 C 
ATOM     26  C   UNL     1      35.078 -21.359 -19.337  0.00  0.00    +0.001 C 
ATOM     27  C   UNL     1      33.683 -21.549 -19.187  0.00  0.00    +0.001 C 
ATOM     28  C   UNL     1      32.805 -20.928 -20.091  0.00  0.00    +0.001 C 
ATOM     29  C   UNL     1      35.956 -21.978 -18.434  0.00  0.00    +0.001 C 
ATOM     30  C   UNL     1      33.209 -22.354 -18.139  0.00  0.00    +0.011 C 
ATOM     31  C   UNL     1      35.467 -22.775 -17.398  0.00  0.00    +0.011 C 
ATOM     32  C   UNL     1      34.096 -22.962 -17.251  0.00  0.00    +0.058 C 
ENDBRANCH  19  23
ENDBRANCH   1  19
TORSDOF 5
ENDMDL
MODEL 2
REMARK VINA RESULT:     -11.1      3.827      6.100
REMARK  Name = 6852168
REMARK  5 active torsions:
REMARK  status: ('A' for Active; 'I' for Inactive)
REMARK    1  A    between atoms: N_1  and  C_5
REMARK    2  A    between atoms: N_1  and  S_19
REMARK    3  A    between atoms: N_4  and  C_9
REMARK    4  A    between atoms: C_9  and  C_14
REMARK    5  A    between atoms: S_19  and  C_23
REMARK                            x       y       z     vdW  Elec       q    Type
REMARK                         _______ _______ _______ _____ _____    ______ ____
ROOT
ATOM      1  N   UNL     1      32.932 -11.691 -22.120  0.00  0.00    -0.172 NA
ATOM      2  H   UNL     1      33.612 -10.943 -21.987  0.00  0.00    +0.149 HD
ENDROOT
BRANCH   1   5
ATOM      3  O   UNL     1      31.984  -9.514 -24.009  0.00  0.00    -0.273 OA
ATOM      4  N   UNL     1      31.774  -8.756 -21.791  0.00  0.00    -0.272 N 
ATOM      5  C   UNL     1      31.605 -11.053 -22.176  0.00  0.00    +0.153 C 
ATOM      6  C   UNL     1      31.084 -10.732 -20.780  0.00  0.00    +0.048 C 
ATOM      7  C   UNL     1      31.635  -9.350 -20.482  0.00  0.00    +0.096 C 
ATOM      8  C   UNL     1      31.797  -9.701 -22.815  0.00  0.00    +0.242 C 
BRANCH   4   9
ATOM      9  C   UNL     1      32.022  -7.340 -21.956  0.00  0.00    +0.152 C 
ATOM     10  C   UNL     1      31.829  -6.568 -20.671  0.00  0.00    +0.031 C 
BRANCH   9  14
ATOM     11  O   UNL     1      34.178  -5.581 -26.169  0.00  0.00    -0.350 OA
ATOM     12  O   UNL     1      34.325  -7.878 -21.792  0.00  0.00    -0.273 OA
ATOM     13  N   UNL     1      33.707  -6.483 -23.542  0.00  0.00    -0.273 N 
ATOM     14  C   UNL     1      33.456  -7.261 -22.415  0.00  0.00    +0.244 C 
ATOM     15  C   UNL     1      32.724  -5.638 -24.228  0.00  0.00    +0.126 C 
ATOM     16  C   UNL     1      35.071  -6.356 -24.057  0.00  0.00    +0.126 C 
ATOM     17  C   UNL     1      32.836  -5.818 -25.737  0.00  0.00    +0.164 C 
ATOM     18  C   UNL     1      35.082  -6.512 -25.571  0.00  0.00    +0.164 C 
ENDBRANCH   9  14
ENDBRANCH   4   9
ENDBRANCH   1   5
BRANCH   1  19
ATOM     19  S   UNL     1      33.485 -12.630 -23.429  0.00  0.00    +0.061 S 
ATOM     20  O   UNL     1      34.642 -11.988 -24.022  0.00  0.00    -0.153 OA
ATOM     21  O   UNL     1      32.353 -13.001 -24.256  0.00  0.00    -0.153 OA
BRANCH  19  23
ATOM     22 CL   UNL     1      36.179 -20.159 -20.651  0.00  0.00    -0.082 Cl
ATOM     23  C   UNL     1      34.034 -14.099 -22.615  0.00  0.00    +0.122 C 
ATOM     24  C   UNL     1      34.335 -15.218 -23.371  0.00  0.00    +0.020 C 
ATOM     25  C   UNL     1      34.149 -14.103 -21.238  0.00  0.00    +0.020 C 
ATOM     26  C   UNL     1      34.773 -16.393 -22.739  0.00  0.00    +0.001 C 
ATOM     27  C   UNL     1      34.898 -16.416 -21.330  0.00  0.00    +0.001 C 
ATOM     28  C   UNL     1      34.582 -15.261 -20.594  0.00  0.00    +0.001 C 
ATOM     29  C   UNL     1      35.089 -17.547 -23.475  0.00  0.00    +0.001 C 
ATOM     30  C   UNL     1      35.335 -17.591 -20.697  0.00  0.00    +0.011 C 
ATOM     31  C   UNL     1      35.522 -18.706 -22.830  0.00  0.00    +0.011 C 
ATOM     32  C   UNL     1      35.644 -18.728 -21.444  0.00  0.00    +0.058 C 
ENDBRANCH  19  23
ENDBRANCH   1  19
TORSDOF 5
ENDMDL
MODEL 3
REMARK VINA RESULT:     -11.0      7.363     12.343
REMARK  Name = 6852168
REMARK  5 active torsions:
REMARK  status: ('A' for Active; 'I' for Inactive)
REMARK    1  A    between atoms: N_1  and  C_5
REMARK    2  A    between atoms: N_1  and  S_19
REMARK    3  A    between atoms: N_4  and  C_9
REMARK    4  A    between atoms: C_9  and  C_14
REMARK    5  A    between atoms: S_19  and  C_23
REMARK                            x       y       z     vdW  Elec       q    Type
REMARK                         _______ _______ _______ _____ _____    ______ ____
ROOT
ATOM      1  N   UNL     1      35.201 -23.309 -16.828  0.00  0.00    -0.172 NA
ATOM      2  H   UNL     1      35.618 -22.406 -17.054  0.00  0.00    +0.149 HD
ENDROOT
BRANCH   1   5
ATOM      3  O   UNL     1      37.469 -22.738 -14.894  0.00  0.00    -0.273 OA
ATOM      4  N   UNL     1      36.770 -24.969 -14.627  0.00  0.00    -0.272 N 
ATOM      5  C   UNL     1      35.188 -23.414 -15.358  0.00  0.00    +0.153 C 
ATOM      6  C   UNL     1      34.479 -24.683 -14.899  0.00  0.00    +0.048 C 
ATOM      7  C   UNL     1      35.572 -25.736 -14.875  0.00  0.00    +0.096 C 
ATOM      8  C   UNL     1      36.618 -23.616 -14.923  0.00  0.00    +0.242 C 
BRANCH   4   9
ATOM      9  C   UNL     1      38.016 -25.610 -14.266  0.00  0.00    +0.152 C 
ATOM     10  C   UNL     1      39.074 -25.455 -15.333  0.00  0.00    +0.031 C 
BRANCH   9  14
ATOM     11  O   UNL     1      35.562 -24.515  -9.991  0.00  0.00    -0.350 OA
ATOM     12  O   UNL     1      39.512 -24.314 -12.960  0.00  0.00    -0.273 OA
ATOM     13  N   UNL     1      37.559 -25.011 -11.916  0.00  0.00    -0.273 N 
ATOM     14  C   UNL     1      38.437 -24.920 -12.993  0.00  0.00    +0.244 C 
ATOM     15  C   UNL     1      36.340 -25.825 -11.880  0.00  0.00    +0.126 C 
ATOM     16  C   UNL     1      37.889 -24.366 -10.645  0.00  0.00    +0.126 C 
ATOM     17  C   UNL     1      35.192 -25.027 -11.273  0.00  0.00    +0.164 C 
ATOM     18  C   UNL     1      36.677 -23.626 -10.096  0.00  0.00    +0.164 C 
ENDBRANCH   9  14
ENDBRANCH   4   9
ENDBRANCH   1   5
BRANCH   1  19
ATOM     19  S   UNL     1      33.744 -23.408 -17.704  0.00  0.00    +0.061 S 
ATOM     20  O   UNL     1      32.635 -23.086 -16.826  0.00  0.00    -0.153 OA
ATOM     21  O   UNL     1      33.734 -24.641 -18.469  0.00  0.00    -0.153 OA
BRANCH  19  23
ATOM     22 CL   UNL     1      35.819 -17.170 -23.038  0.00  0.00    -0.082 Cl
ATOM     23  C   UNL     1      33.925 -22.085 -18.861  0.00  0.00    +0.122 C 
ATOM     24  C   UNL     1      35.193 -21.614 -19.155  0.00  0.00    +0.020 C 
ATOM     25  C   UNL     1      32.798 -21.544 -19.448  0.00  0.00    +0.020 C 
ATOM     26  C   UNL     1      35.354 -20.563 -20.072  0.00  0.00    +0.001 C 
ATOM     27  C   UNL     1      34.211 -19.997 -20.685  0.00  0.00    +0.001 C 
ATOM     28  C   UNL     1      32.940 -20.501 -20.362  0.00  0.00    +0.001 C 
ATOM     29  C   UNL     1      36.626 -20.061 -20.396  0.00  0.00    +0.001 C 
ATOM     30  C   UNL     1      34.372 -18.946 -21.602  0.00  0.00    +0.011 C 
ATOM     31  C   UNL     1      36.767 -19.016 -21.309  0.00  0.00    +0.011 C 
ATOM     32  C   UNL     1      35.642 -18.459 -21.911  0.00  0.00    +0.058 C 
ENDBRANCH  19  23
ENDBRANCH   1  19
TORSDOF 5
ENDMDL
MODEL 4
REMARK VINA RESULT:     -11.0      7.497     12.404
REMARK  Name = 6852168
REMARK  5 active torsions:
REMARK  status: ('A' for Active; 'I' for Inactive)
REMARK    1  A    between atoms: N_1  and  C_5
REMARK    2  A    between atoms: N_1  and  S_19
REMARK    3  A    between atoms: N_4  and  C_9
REMARK    4  A    between atoms: C_9  and  C_14
REMARK    5  A    between atoms: S_19  and  C_23
REMARK                            x       y       z     vdW  Elec       q    Type
REMARK                         _______ _______ _______ _____ _____    ______ ____
ROOT
ATOM      1  N   UNL     1      34.761 -23.619 -16.737  0.00  0.00    -0.172 NA
ATOM      2  H   UNL     1      35.550 -23.254 -17.271  0.00  0.00    +0.149 HD
ENDROOT
BRANCH   1   5
ATOM      3  O   UNL     1      37.006 -22.772 -14.879  0.00  0.00    -0.273 OA
ATOM      4  N   UNL     1      35.423 -24.015 -13.660  0.00  0.00    -0.272 N 
ATOM      5  C   UNL     1      34.667 -22.808 -15.511  0.00  0.00    +0.153 C 
ATOM      6  C   UNL     1      33.475 -23.229 -14.658  0.00  0.00    +0.048 C 
ATOM      7  C   UNL     1      34.019 -24.336 -13.774  0.00  0.00    +0.096 C 
ATOM      8  C   UNL     1      35.865 -23.156 -14.664  0.00  0.00    +0.242 C 
BRANCH   4   9
ATOM      9  C   UNL     1      36.270 -24.669 -12.687  0.00  0.00    +0.152 C 
ATOM     10  C   UNL     1      35.494 -25.172 -11.492  0.00  0.00    +0.031 C 
BRANCH   9  14
ATOM     11  O   UNL     1      41.005 -25.651 -14.140  0.00  0.00    -0.350 OA
ATOM     12  O   UNL     1      36.160 -26.634 -14.009  0.00  0.00    -0.273 OA
ATOM     13  N   UNL     1      38.283 -25.876 -13.451  0.00  0.00    -0.273 N 
ATOM     14  C   UNL     1      36.891 -25.817 -13.442  0.00  0.00    +0.244 C 
ATOM     15  C   UNL     1      39.176 -25.000 -12.685  0.00  0.00    +0.126 C 
ATOM     16  C   UNL     1      38.966 -26.955 -14.164  0.00  0.00    +0.126 C 
ATOM     17  C   UNL     1      40.331 -24.531 -13.561  0.00  0.00    +0.164 C 
ATOM     18  C   UNL     1      40.125 -26.401 -14.980  0.00  0.00    +0.164 C 
ENDBRANCH   9  14
ENDBRANCH   4   9
ENDBRANCH   1   5
BRANCH   1  19
ATOM     19  S   UNL     1      33.441 -23.704 -17.809  0.00  0.00    +0.061 S 
ATOM     20  O   UNL     1      32.213 -23.467 -17.074  0.00  0.00    -0.153 OA
ATOM     21  O   UNL     1      33.578 -24.888 -18.637  0.00  0.00    -0.153 OA
BRANCH  19  23
ATOM     22 CL   UNL     1      36.022 -17.216 -22.595  0.00  0.00    -0.082 Cl
ATOM     23  C   UNL     1      33.731 -22.309 -18.853  0.00  0.00    +0.122 C 
ATOM     24  C   UNL     1      35.032 -21.903 -19.092  0.00  0.00    +0.020 C 
ATOM     25  C   UNL     1      32.653 -21.647 -19.408  0.00  0.00    +0.020 C 
ATOM     26  C   UNL     1      35.279 -20.795 -19.920  0.00  0.00    +0.001 C 
ATOM     27  C   UNL     1      34.187 -20.106 -20.499  0.00  0.00    +0.001 C 
ATOM     28  C   UNL     1      32.880 -20.546 -20.233  0.00  0.00    +0.001 C 
ATOM     29  C   UNL     1      36.587 -20.357 -20.186  0.00  0.00    +0.001 C 
ATOM     30  C   UNL     1      34.434 -18.998 -21.325  0.00  0.00    +0.011 C 
ATOM     31  C   UNL     1      36.814 -19.254 -21.010  0.00  0.00    +0.011 C 
ATOM     32  C   UNL     1      35.739 -18.576 -21.578  0.00  0.00    +0.058 C 
ENDBRANCH  19  23
ENDBRANCH   1  19
TORSDOF 5
ENDMDL
MODEL 5
REMARK VINA RESULT:     -10.7      3.740      6.511
REMARK  Name = 6852168
REMARK  5 active torsions:
REMARK  status: ('A' for Active; 'I' for Inactive)
REMARK    1  A    between atoms: N_1  and  C_5
REMARK    2  A    between atoms: N_1  and  S_19
REMARK    3  A    between atoms: N_4  and  C_9
REMARK    4  A    between atoms: C_9  and  C_14
REMARK    5  A    between atoms: S_19  and  C_23
REMARK                            x       y       z     vdW  Elec       q    Type
REMARK                         _______ _______ _______ _____ _____    ______ ____
ROOT
ATOM      1  N   UNL     1      33.754 -21.780 -18.481  0.00  0.00    -0.172 NA
ATOM      2  H   UNL     1      34.700 -21.589 -18.151  0.00  0.00    +0.149 HD
ENDROOT
BRANCH   1   5
ATOM      3  O   UNL     1      36.193 -21.453 -20.257  0.00  0.00    -0.273 OA
ATOM      4  N   UNL     1      34.636 -19.764 -20.766  0.00  0.00    -0.272 N 
ATOM      5  C   UNL     1      33.812 -21.793 -19.953  0.00  0.00    +0.153 C 
ATOM      6  C   UNL     1      32.669 -20.988 -20.561  0.00  0.00    +0.048 C 
ATOM      7  C   UNL     1      33.209 -19.572 -20.643  0.00  0.00    +0.096 C 
ATOM      8  C   UNL     1      35.050 -21.027 -20.347  0.00  0.00    +0.242 C 
BRANCH   4   9
ATOM      9  C   UNL     1      35.515 -18.677 -21.137  0.00  0.00    +0.152 C 
ATOM     10  C   UNL     1      36.970 -19.003 -20.893  0.00  0.00    +0.031 C 
BRANCH   9  14
ATOM     11  O   UNL     1      33.858 -14.717 -23.796  0.00  0.00    -0.350 OA
ATOM     12  O   UNL     1      35.244 -19.444 -23.364  0.00  0.00    -0.273 OA
ATOM     13  N   UNL     1      35.033 -17.158 -23.022  0.00  0.00    -0.273 N 
ATOM     14  C   UNL     1      35.255 -18.469 -22.608  0.00  0.00    +0.244 C 
ATOM     15  C   UNL     1      35.163 -15.966 -22.177  0.00  0.00    +0.126 C 
ATOM     16  C   UNL     1      34.768 -16.869 -24.431  0.00  0.00    +0.126 C 
ATOM     17  C   UNL     1      33.986 -15.027 -22.406  0.00  0.00    +0.164 C 
ATOM     18  C   UNL     1      33.604 -15.897 -24.564  0.00  0.00    +0.164 C 
ENDBRANCH   9  14
ENDBRANCH   4   9
ENDBRANCH   1   5
BRANCH   1  19
ATOM     19  S   UNL     1      33.206 -23.153 -17.636  0.00  0.00    +0.061 S 
ATOM     20  O   UNL     1      33.361 -24.325 -18.476  0.00  0.00    -0.153 OA
ATOM     21  O   UNL     1      31.922 -22.855 -17.030  0.00  0.00    -0.153 OA
BRANCH  19  23
ATOM     22 CL   UNL     1      37.943 -24.212 -10.700  0.00  0.00    -0.082 Cl
ATOM     23  C   UNL     1      34.382 -23.263 -16.322  0.00  0.00    +0.122 C 
ATOM     24  C   UNL     1      34.002 -23.836 -15.121  0.00  0.00    +0.020 C 
ATOM     25  C   UNL     1      35.659 -22.773 -16.518  0.00  0.00    +0.020 C 
ATOM     26  C   UNL     1      34.926 -23.931 -14.067  0.00  0.00    +0.001 C 
ATOM     27  C   UNL     1      36.239 -23.435 -14.251  0.00  0.00    +0.001 C 
ATOM     28  C   UNL     1      36.589 -22.859 -15.483  0.00  0.00    +0.001 C 
ATOM     29  C   UNL     1      34.576 -24.507 -12.835  0.00  0.00    +0.001 C 
ATOM     30  C   UNL     1      37.162 -23.529 -13.197  0.00  0.00    +0.011 C 
ATOM     31  C   UNL     1      35.507 -24.593 -11.799  0.00  0.00    +0.011 C 
ATOM     32  C   UNL     1      36.797 -24.105 -11.980  0.00  0.00    +0.058 C 
ENDBRANCH  19  23
ENDBRANCH   1  19
TORSDOF 5
ENDMDL
MODEL 6
REMARK VINA RESULT:     -10.4      1.499      2.160
REMARK  Name = 6852168
REMARK  5 active torsions:
REMARK  status: ('A' for Active; 'I' for Inactive)
REMARK    1  A    between atoms: N_1  and  C_5
REMARK    2  A    between atoms: N_1  and  S_19
REMARK    3  A    between atoms: N_4  and  C_9
REMARK    4  A    between atoms: C_9  and  C_14
REMARK    5  A    between atoms: S_19  and  C_23
REMARK                            x       y       z     vdW  Elec       q    Type
REMARK                         _______ _______ _______ _____ _____    ______ ____
ROOT
ATOM      1  N   UNL     1      33.802 -16.675 -23.373  0.00  0.00    -0.172 NA
ATOM      2  H   UNL     1      33.954 -16.704 -22.365  0.00  0.00    +0.149 HD
ENDROOT
BRANCH   1   5
ATOM      3  O   UNL     1      34.663 -14.231 -21.793  0.00  0.00    -0.273 OA
ATOM      4  N   UNL     1      33.179 -13.567 -23.495  0.00  0.00    -0.272 N 
ATOM      5  C   UNL     1      34.484 -15.467 -23.870  0.00  0.00    +0.153 C 
ATOM      6  C   UNL     1      33.884 -14.994 -25.190  0.00  0.00    +0.048 C 
ATOM      7  C   UNL     1      32.750 -14.074 -24.777  0.00  0.00    +0.096 C 
ATOM      8  C   UNL     1      34.164 -14.356 -22.903  0.00  0.00    +0.242 C 
BRANCH   4   9
ATOM      9  C   UNL     1      32.513 -12.448 -22.864  0.00  0.00    +0.152 C 
ATOM     10  C   UNL     1      32.358 -12.637 -21.373  0.00  0.00    +0.031 C 
BRANCH   9  14
ATOM     11  O   UNL     1      31.623  -7.488 -23.173  0.00  0.00    -0.350 OA
ATOM     12  O   UNL     1      34.538 -11.460 -23.601  0.00  0.00    -0.273 OA
ATOM     13  N   UNL     1      32.862 -10.006 -22.919  0.00  0.00    -0.273 N 
ATOM     14  C   UNL     1      33.401 -11.267 -23.162  0.00  0.00    +0.244 C 
ATOM     15  C   UNL     1      31.567  -9.743 -22.280  0.00  0.00    +0.126 C 
ATOM     16  C   UNL     1      33.654  -8.805 -23.186  0.00  0.00    +0.126 C 
ATOM     17  C   UNL     1      30.814  -8.660 -23.042  0.00  0.00    +0.164 C 
ATOM     18  C   UNL     1      32.814  -7.766 -23.914  0.00  0.00    +0.164 C 
ENDBRANCH   9  14
ENDBRANCH   4   9
ENDBRANCH   1   5
BRANCH   1  19
ATOM     19  S   UNL     1      34.231 -18.208 -23.979  0.00  0.00    +0.061 S 
ATOM     20  O   UNL     1      35.230 -18.049 -25.018  0.00  0.00    -0.153 OA
ATOM     21  O   UNL     1      33.024 -18.970 -24.238  0.00  0.00    -0.153 OA
BRANCH  19  23
ATOM     22 CL   UNL     1      36.928 -22.336 -17.098  0.00  0.00    -0.082 Cl
ATOM     23  C   UNL     1      35.015 -18.944 -22.577  0.00  0.00    +0.122 C 
ATOM     24  C   UNL     1      34.309 -19.855 -21.809  0.00  0.00    +0.020 C 
ATOM     25  C   UNL     1      36.316 -18.596 -22.272  0.00  0.00    +0.020 C 
ATOM     26  C   UNL     1      34.919 -20.449 -20.692  0.00  0.00    +0.001 C 
ATOM     27  C   UNL     1      36.252 -20.105 -20.365  0.00  0.00    +0.001 C 
ATOM     28  C   UNL     1      36.937 -19.176 -21.167  0.00  0.00    +0.001 C 
ATOM     29  C   UNL     1      34.233 -21.378 -19.892  0.00  0.00    +0.001 C 
ATOM     30  C   UNL     1      36.860 -20.699 -19.248  0.00  0.00    +0.011 C 
ATOM     31  C   UNL     1      34.854 -21.959 -18.785  0.00  0.00    +0.011 C 
ATOM     32  C   UNL     1      36.165 -21.619 -18.463  0.00  0.00    +0.058 C 
ENDBRANCH  19  23
ENDBRANCH   1  19
TORSDOF 5
ENDMDL
MODEL 7
REMARK VINA RESULT:     -10.2      5.175      7.938
REMARK  Name = 6852168
REMARK  5 active torsions:
REMARK  status: ('A' for Active; 'I' for Inactive)
REMARK    1  A    between atoms: N_1  and  C_5
REMARK    2  A    between atoms: N_1  and  S_19
REMARK    3  A    between atoms: N_4  and  C_9
REMARK    4  A    between atoms: C_9  and  C_14
REMARK    5  A    between atoms: S_19  and  C_23
REMARK                            x       y       z     vdW  Elec       q    Type
REMARK                         _______ _______ _______ _____ _____    ______ ____
ROOT
ATOM      1  N   UNL     1      32.256  -9.763 -22.227  0.00  0.00    -0.172 NA
ATOM      2  H   UNL     1      32.465 -10.181 -23.133  0.00  0.00    +0.149 HD
ENDROOT
BRANCH   1   5
ATOM      3  O   UNL     1      32.251  -8.094 -24.762  0.00  0.00    -0.273 OA
ATOM      4  N   UNL     1      32.972  -6.761 -22.962  0.00  0.00    -0.272 N 
ATOM      5  C   UNL     1      31.509  -8.521 -22.494  0.00  0.00    +0.153 C 
ATOM      6  C   UNL     1      31.562  -7.574 -21.300  0.00  0.00    +0.048 C 
ATOM      7  C   UNL     1      32.822  -6.757 -21.525  0.00  0.00    +0.096 C 
ATOM      8  C   UNL     1      32.257  -7.786 -23.578  0.00  0.00    +0.242 C 
BRANCH   4   9
ATOM      9  C   UNL     1      33.902  -5.875 -23.626  0.00  0.00    +0.152 C 
ATOM     10  C   UNL     1      35.009  -6.624 -24.331  0.00  0.00    +0.031 C 
BRANCH   9  14
ATOM     11  O   UNL     1      30.206  -2.478 -23.082  0.00  0.00    -0.350 OA
ATOM     12  O   UNL     1      33.070  -5.451 -25.805  0.00  0.00    -0.273 OA
ATOM     13  N   UNL     1      32.292  -4.068 -24.111  0.00  0.00    -0.273 N 
ATOM     14  C   UNL     1      33.056  -5.117 -24.618  0.00  0.00    +0.244 C 
ATOM     15  C   UNL     1      32.348  -3.564 -22.734  0.00  0.00    +0.126 C 
ATOM     16  C   UNL     1      31.439  -3.284 -25.003  0.00  0.00    +0.126 C 
ATOM     17  C   UNL     1      30.940  -3.332 -22.201  0.00  0.00    +0.164 C 
ATOM     18  C   UNL     1      30.069  -3.071 -24.376  0.00  0.00    +0.164 C 
ENDBRANCH   9  14
ENDBRANCH   4   9
ENDBRANCH   1   5
BRANCH   1  19
ATOM     19  S   UNL     1      31.561 -10.988 -21.270  0.00  0.00    +0.061 S 
ATOM     20  O   UNL     1      30.181 -11.182 -21.671  0.00  0.00    -0.153 OA
ATOM     21  O   UNL     1      31.888 -10.745 -19.878  0.00  0.00    -0.153 OA
BRANCH  19  23
ATOM     22 CL   UNL     1      36.066 -18.049 -22.498  0.00  0.00    -0.082 Cl
ATOM     23  C   UNL     1      32.482 -12.409 -21.776  0.00  0.00    +0.122 C 
ATOM     24  C   UNL     1      32.972 -13.274 -20.813  0.00  0.00    +0.020 C 
ATOM     25  C   UNL     1      32.696 -12.628 -23.123  0.00  0.00    +0.020 C 
ATOM     26  C   UNL     1      33.706 -14.408 -21.200  0.00  0.00    +0.001 C 
ATOM     27  C   UNL     1      33.934 -14.649 -22.575  0.00  0.00    +0.001 C 
ATOM     28  C   UNL     1      33.421 -13.749 -23.524  0.00  0.00    +0.001 C 
ATOM     29  C   UNL     1      34.217 -15.308 -20.251  0.00  0.00    +0.001 C 
ATOM     30  C   UNL     1      34.668 -15.782 -22.961  0.00  0.00    +0.011 C 
ATOM     31  C   UNL     1      34.944 -16.429 -20.652  0.00  0.00    +0.011 C 
ATOM     32  C   UNL     1      35.169 -16.665 -22.005  0.00  0.00    +0.058 C 
ENDBRANCH  19  23
ENDBRANCH   1  19
TORSDOF 5
ENDMDL
MODEL 8
REMARK VINA RESULT:     -10.2      7.712     11.164
REMARK  Name = 6852168
REMARK  5 active torsions:
REMARK  status: ('A' for Active; 'I' for Inactive)
REMARK    1  A    between atoms: N_1  and  C_5
REMARK    2  A    between atoms: N_1  and  S_19
REMARK    3  A    between atoms: N_4  and  C_9
REMARK    4  A    between atoms: C_9  and  C_14
REMARK    5  A    between atoms: S_19  and  C_23
REMARK                            x       y       z     vdW  Elec       q    Type
REMARK                         _______ _______ _______ _____ _____    ______ ____
ROOT
ATOM      1  N   UNL     1      35.804 -22.770 -15.182  0.00  0.00    -0.172 NA
ATOM      2  H   UNL     1      34.963 -22.628 -15.741  0.00  0.00    +0.149 HD
ENDROOT
BRANCH   1   5
ATOM      3  O   UNL     1      34.216 -25.143 -16.212  0.00  0.00    -0.273 OA
ATOM      4  N   UNL     1      33.481 -24.606 -14.042  0.00  0.00    -0.272 N 
ATOM      5  C   UNL     1      35.697 -24.117 -14.592  0.00  0.00    +0.153 C 
ATOM      6  C   UNL     1      35.522 -24.047 -13.079  0.00  0.00    +0.048 C 
ATOM      7  C   UNL     1      34.022 -23.941 -12.880  0.00  0.00    +0.096 C 
ATOM      8  C   UNL     1      34.401 -24.708 -15.084  0.00  0.00    +0.242 C 
BRANCH   4   9
ATOM      9  C   UNL     1      32.082 -24.965 -14.124  0.00  0.00    +0.152 C 
ATOM     10  C   UNL     1      31.569 -25.580 -12.843  0.00  0.00    +0.031 C 
BRANCH   9  14
ATOM     11  O   UNL     1      27.679 -23.871 -16.341  0.00  0.00    -0.350 OA
ATOM     12  O   UNL     1      31.991 -22.601 -14.278  0.00  0.00    -0.273 OA
ATOM     13  N   UNL     1      30.050 -23.752 -14.822  0.00  0.00    -0.273 N 
ATOM     14  C   UNL     1      31.377 -23.663 -14.411  0.00  0.00    +0.244 C 
ATOM     15  C   UNL     1      29.254 -24.984 -14.868  0.00  0.00    +0.126 C 
ATOM     16  C   UNL     1      29.293 -22.537 -15.126  0.00  0.00    +0.126 C 
ATOM     17  C   UNL     1      28.465 -25.053 -16.170  0.00  0.00    +0.164 C 
ATOM     18  C   UNL     1      28.509 -22.710 -16.419  0.00  0.00    +0.164 C 
ENDBRANCH   9  14
ENDBRANCH   4   9
ENDBRANCH   1   5
BRANCH   1  19
ATOM     19  S   UNL     1      37.128 -22.376 -16.177  0.00  0.00    +0.061 S 
ATOM     20  O   UNL     1      37.865 -23.585 -16.493  0.00  0.00    -0.153 OA
ATOM     21  O   UNL     1      37.816 -21.228 -15.618  0.00  0.00    -0.153 OA
BRANCH  19  23
ATOM     22 CL   UNL     1      34.266 -19.054 -23.419  0.00  0.00    -0.082 Cl
ATOM     23  C   UNL     1      36.322 -21.827 -17.651  0.00  0.00    +0.122 C 
ATOM     24  C   UNL     1      36.960 -20.908 -18.467  0.00  0.00    +0.020 C 
ATOM     25  C   UNL     1      35.071 -22.323 -17.960  0.00  0.00    +0.020 C 
ATOM     26  C   UNL     1      36.332 -20.462 -19.642  0.00  0.00    +0.001 C 
ATOM     27  C   UNL     1      35.051 -20.961 -19.975  0.00  0.00    +0.001 C 
ATOM     28  C   UNL     1      34.434 -21.892 -19.122  0.00  0.00    +0.001 C 
ATOM     29  C   UNL     1      36.950 -19.532 -20.494  0.00  0.00    +0.001 C 
ATOM     30  C   UNL     1      34.423 -20.514 -21.149  0.00  0.00    +0.011 C 
ATOM     31  C   UNL     1      36.312 -19.099 -21.657  0.00  0.00    +0.011 C 
ATOM     32  C   UNL     1      35.051 -19.589 -21.984  0.00  0.00    +0.058 C 
ENDBRANCH  19  23
ENDBRANCH   1  19
TORSDOF 5
ENDMDL
MODEL 9
REMARK VINA RESULT:     -10.1      4.062      7.004
REMARK  Name = 6852168
REMARK  5 active torsions:
REMARK  status: ('A' for Active; 'I' for Inactive)
REMARK    1  A    between atoms: N_1  and  C_5
REMARK    2  A    between atoms: N_1  and  S_19
REMARK    3  A    between atoms: N_4  and  C_9
REMARK    4  A    between atoms: C_9  and  C_14
REMARK    5  A    between atoms: S_19  and  C_23
REMARK                            x       y       z     vdW  Elec       q    Type
REMARK                         _______ _______ _______ _____ _____    ______ ____
ROOT
ATOM      1  N   UNL     1      33.932 -21.952 -17.855  0.00  0.00    -0.172 NA
ATOM      2  H   UNL     1      34.849 -21.613 -17.566  0.00  0.00    +0.149 HD
ENDROOT
BRANCH   1   5
ATOM      3  O   UNL     1      36.333 -21.638 -19.685  0.00  0.00    -0.273 OA
ATOM      4  N   UNL     1      34.631 -20.173 -20.387  0.00  0.00    -0.272 N 
ATOM      5  C   UNL     1      33.992 -22.147 -19.315  0.00  0.00    +0.153 C 
ATOM      6  C   UNL     1      32.782 -21.532 -20.008  0.00  0.00    +0.048 C 
ATOM      7  C   UNL     1      33.193 -20.095 -20.274  0.00  0.00    +0.096 C 
ATOM      8  C   UNL     1      35.157 -21.331 -19.816  0.00  0.00    +0.242 C 
BRANCH   4   9
ATOM      9  C   UNL     1      35.409 -19.068 -20.902  0.00  0.00    +0.152 C 
ATOM     10  C   UNL     1      36.894 -19.274 -20.718  0.00  0.00    +0.031 C 
BRANCH   9  14
ATOM     11  O   UNL     1      34.107 -15.272 -23.968  0.00  0.00    -0.350 OA
ATOM     12  O   UNL     1      34.843 -20.062 -22.980  0.00  0.00    -0.273 OA
ATOM     13  N   UNL     1      34.987 -17.745 -22.943  0.00  0.00    -0.273 N 
ATOM     14  C   UNL     1      35.056 -19.011 -22.367  0.00  0.00    +0.244 C 
ATOM     15  C   UNL     1      35.356 -16.489 -22.281  0.00  0.00    +0.126 C 
ATOM     16  C   UNL     1      34.646 -17.600 -24.358  0.00  0.00    +0.126 C 
ATOM     17  C   UNL     1      34.308 -15.419 -22.560  0.00  0.00    +0.164 C 
ATOM     18  C   UNL     1      33.625 -16.488 -24.547  0.00  0.00    +0.164 C 
ENDBRANCH   9  14
ENDBRANCH   4   9
ENDBRANCH   1   5
BRANCH   1  19
ATOM     19  S   UNL     1      33.548 -23.260 -16.834  0.00  0.00    +0.061 S 
ATOM     20  O   UNL     1      33.118 -24.386 -17.641  0.00  0.00    -0.153 OA
ATOM     21  O   UNL     1      32.716 -22.783 -15.746  0.00  0.00    -0.153 OA
BRANCH  19  23
ATOM     22 CL   UNL     1      40.598 -26.223 -13.204  0.00  0.00    -0.082 Cl
ATOM     23  C   UNL     1      35.125 -23.655 -16.143  0.00  0.00    +0.122 C 
ATOM     24  C   UNL     1      35.306 -24.883 -15.530  0.00  0.00    +0.020 C 
ATOM     25  C   UNL     1      36.147 -22.730 -16.226  0.00  0.00    +0.020 C 
ATOM     26  C   UNL     1      36.554 -25.212 -14.976  0.00  0.00    +0.001 C 
ATOM     27  C   UNL     1      37.613 -24.277 -15.052  0.00  0.00    +0.001 C 
ATOM     28  C   UNL     1      37.393 -23.040 -15.682  0.00  0.00    +0.001 C 
ATOM     29  C   UNL     1      36.774 -26.449 -14.348  0.00  0.00    +0.001 C 
ATOM     30  C   UNL     1      38.861 -24.605 -14.498  0.00  0.00    +0.011 C 
ATOM     31  C   UNL     1      38.020 -26.758 -13.802  0.00  0.00    +0.011 C 
ATOM     32  C   UNL     1      39.061 -25.838 -13.877  0.00  0.00    +0.058 C 
ENDBRANCH  19  23
ENDBRANCH   1  19
TORSDOF 5
ENDMDL
