MODEL 1
REMARK VINA RESULT:     -11.7      0.000      0.000
REMARK  Name = 24963046
REMARK  6 active torsions:
REMARK  status: ('A' for Active; 'I' for Inactive)
REMARK    1  A    between atoms: N_1  and  C_27
REMARK    2  A    between atoms: C_4  and  C_16
REMARK    3  A    between atoms: C_13  and  C_22
REMARK    4  A    between atoms: N_21  and  C_24
REMARK    5  A    between atoms: C_27  and  C_28
REMARK    6  A    between atoms: C_28  and  N_30
REMARK                            x       y       z     vdW  Elec       q    Type
REMARK                         _______ _______ _______ _____ _____    ______ ____
ROOT
ATOM      1  N   UNL     1      33.777 -24.088 -16.366  0.00  0.00    -0.270 N 
ATOM      2  N   UNL     1      34.932 -22.682 -17.812  0.00  0.00    -0.338 NA
ATOM      3  N   UNL     1      32.525 -22.794 -17.828  0.00  0.00    -0.170 NA
ATOM      4  C   UNL     1      34.872 -19.847 -20.866  0.00  0.00    -0.000 C 
ATOM      5  C   UNL     1      33.675 -20.364 -20.377  0.00  0.00    +0.004 C 
ATOM      6  C   UNL     1      33.692 -21.321 -19.347  0.00  0.00    +0.050 C 
ATOM      7  C   UNL     1      33.741 -23.146 -17.381  0.00  0.00    +0.145 C 
ATOM      8  C   UNL     1      36.078 -20.282 -20.328  0.00  0.00    +0.003 C 
ATOM      9  C   UNL     1      34.905 -21.768 -18.797  0.00  0.00    +0.146 C 
ATOM     10  C   UNL     1      36.086 -21.233 -19.304  0.00  0.00    +0.033 C 
ATOM     11  C   UNL     1      32.533 -21.877 -18.815  0.00  0.00    +0.114 C 
ATOM     12  H   UNL     1      32.921 -24.443 -16.031  0.00  0.00    +0.159 HD
ENDROOT
BRANCH   4  16
ATOM     13  C   UNL     1      34.744 -16.546 -22.601  0.00  0.00    +0.053 C 
ATOM     14  C   UNL     1      34.758 -17.512 -21.595  0.00  0.00    +0.004 C 
ATOM     15  C   UNL     1      34.833 -16.931 -23.938  0.00  0.00    +0.004 C 
ATOM     16  C   UNL     1      34.859 -18.863 -21.926  0.00  0.00    -0.004 C 
ATOM     17  C   UNL     1      34.948 -19.247 -23.265  0.00  0.00    -0.022 C 
ATOM     18  C   UNL     1      34.935 -18.281 -24.271  0.00  0.00    -0.004 C 
ATOM     19  C   UNL     1      35.059 -20.686 -23.659  0.00  0.00    +0.031 C 
BRANCH  13  22
ATOM     20  O   UNL     1      34.843 -14.753 -21.090  0.00  0.00    -0.270 OA
ATOM     21  N   UNL     1      34.280 -14.255 -23.282  0.00  0.00    -0.302 N 
ATOM     22  C   UNL     1      34.638 -15.137 -22.255  0.00  0.00    +0.246 C 
ATOM     23  H   UNL     1      34.131 -14.622 -24.184  0.00  0.00    +0.150 HD
BRANCH  21  24
ATOM     24  C   UNL     1      34.117 -12.841 -23.086  0.00  0.00    +0.072 C 
ATOM     25  C   UNL     1      33.281 -12.018 -24.022  0.00  0.00    +0.021 C 
ATOM     26  C   UNL     1      32.812 -12.267 -22.618  0.00  0.00    +0.021 C 
ENDBRANCH  21  24
ENDBRANCH  13  22
ENDBRANCH   4  16
BRANCH   1  27
ATOM     27  C   UNL     1      34.997 -24.577 -15.769  0.00  0.00    +0.075 C 
BRANCH  27  28
ATOM     28  C   UNL     1      34.798 -24.755 -14.269  0.00  0.00    -0.055 C 
BRANCH  28  30
ATOM     29  O   UNL     1      38.376 -26.596 -13.076  0.00  0.00    -0.358 OA
ATOM     30  N   UNL     1      35.746 -25.735 -13.743  0.00  0.00    +0.391 N 
ATOM     31  C   UNL     1      36.458 -25.196 -12.575  0.00  0.00    -0.045 C 
ATOM     32  C   UNL     1      36.708 -26.138 -14.778  0.00  0.00    -0.045 C 
ATOM     33  C   UNL     1      37.450 -26.230 -12.051  0.00  0.00    +0.119 C 
ATOM     34  C   UNL     1      37.693 -27.151 -14.201  0.00  0.00    +0.119 C 
ATOM     35  H   UNL     1      35.217 -26.556 -13.450  0.00  0.00    -0.079 HD
ENDBRANCH  28  30
ENDBRANCH  27  28
ENDBRANCH   1  27
TORSDOF 6
ENDMDL
MODEL 2
REMARK VINA RESULT:     -11.1      2.035     11.373
REMARK  Name = 24963046
REMARK  6 active torsions:
REMARK  status: ('A' for Active; 'I' for Inactive)
REMARK    1  A    between atoms: N_1  and  C_27
REMARK    2  A    between atoms: C_4  and  C_16
REMARK    3  A    between atoms: C_13  and  C_22
REMARK    4  A    between atoms: N_21  and  C_24
REMARK    5  A    between atoms: C_27  and  C_28
REMARK    6  A    between atoms: C_28  and  N_30
REMARK                            x       y       z     vdW  Elec       q    Type
REMARK                         _______ _______ _______ _____ _____    ______ ____
ROOT
ATOM      1  N   UNL     1      35.638 -19.263 -22.172  0.00  0.00    -0.270 N 
ATOM      2  N   UNL     1      34.405 -20.551 -20.680  0.00  0.00    -0.338 NA
ATOM      3  N   UNL     1      36.756 -20.143 -20.340  0.00  0.00    -0.170 NA
ATOM      4  C   UNL     1      34.245 -22.834 -17.197  0.00  0.00    -0.000 C 
ATOM      5  C   UNL     1      35.449 -22.258 -17.593  0.00  0.00    +0.004 C 
ATOM      6  C   UNL     1      35.507 -21.488 -18.768  0.00  0.00    +0.050 C 
ATOM      7  C   UNL     1      35.600 -20.019 -21.012  0.00  0.00    +0.145 C 
ATOM      8  C   UNL     1      33.105 -22.641 -17.969  0.00  0.00    +0.003 C 
ATOM      9  C   UNL     1      34.361 -21.286 -19.556  0.00  0.00    +0.146 C 
ATOM     10  C   UNL     1      33.171 -21.873 -19.135  0.00  0.00    +0.033 C 
ATOM     11  C   UNL     1      36.677 -20.885 -19.219  0.00  0.00    +0.114 C 
ATOM     12  H   UNL     1      36.497 -18.862 -22.437  0.00  0.00    +0.159 HD
ENDROOT
BRANCH   4  16
ATOM     13  C   UNL     1      35.313 -24.982 -14.339  0.00  0.00    +0.053 C 
ATOM     14  C   UNL     1      35.351 -24.212 -15.502  0.00  0.00    +0.004 C 
ATOM     15  C   UNL     1      34.107 -25.168 -13.665  0.00  0.00    +0.004 C 
ATOM     16  C   UNL     1      34.182 -23.629 -15.990  0.00  0.00    -0.004 C 
ATOM     17  C   UNL     1      32.975 -23.815 -15.315  0.00  0.00    -0.022 C 
ATOM     18  C   UNL     1      32.938 -24.584 -14.152  0.00  0.00    -0.004 C 
ATOM     19  C   UNL     1      31.701 -23.205 -15.808  0.00  0.00    +0.031 C 
BRANCH  13  22
ATOM     20  O   UNL     1      36.589 -26.012 -12.661  0.00  0.00    -0.270 OA
ATOM     21  N   UNL     1      37.625 -25.656 -14.703  0.00  0.00    -0.302 N 
ATOM     22  C   UNL     1      36.532 -25.590 -13.830  0.00  0.00    +0.246 C 
ATOM     23  H   UNL     1      37.515 -25.304 -15.617  0.00  0.00    +0.150 HD
BRANCH  21  24
ATOM     24  C   UNL     1      38.898 -26.210 -14.334  0.00  0.00    +0.072 C 
ATOM     25  C   UNL     1      40.169 -25.732 -14.973  0.00  0.00    +0.021 C 
ATOM     26  C   UNL     1      39.887 -25.416 -13.533  0.00  0.00    +0.021 C 
ENDBRANCH  21  24
ENDBRANCH  13  22
ENDBRANCH   4  16
BRANCH   1  27
ATOM     27  C   UNL     1      34.488 -19.027 -23.013  0.00  0.00    +0.075 C 
BRANCH  27  28
ATOM     28  C   UNL     1      34.817 -17.951 -24.040  0.00  0.00    -0.055 C 
BRANCH  28  30
ATOM     29  O   UNL     1      34.181 -13.840 -23.480  0.00  0.00    -0.358 OA
ATOM     30  N   UNL     1      34.202 -16.681 -23.660  0.00  0.00    +0.391 N 
ATOM     31  C   UNL     1      33.972 -15.838 -24.842  0.00  0.00    -0.045 C 
ATOM     32  C   UNL     1      35.039 -15.966 -22.686  0.00  0.00    -0.045 C 
ATOM     33  C   UNL     1      33.342 -14.515 -24.419  0.00  0.00    +0.119 C 
ATOM     34  C   UNL     1      34.382 -14.640 -22.314  0.00  0.00    +0.119 C 
ATOM     35  H   UNL     1      33.301 -16.887 -23.227  0.00  0.00    -0.079 HD
ENDBRANCH  28  30
ENDBRANCH  27  28
ENDBRANCH   1  27
TORSDOF 6
ENDMDL
MODEL 3
REMARK VINA RESULT:     -10.9      2.790     10.985
REMARK  Name = 24963046
REMARK  6 active torsions:
REMARK  status: ('A' for Active; 'I' for Inactive)
REMARK    1  A    between atoms: N_1  and  C_27
REMARK    2  A    between atoms: C_4  and  C_16
REMARK    3  A    between atoms: C_13  and  C_22
REMARK    4  A    between atoms: N_21  and  C_24
REMARK    5  A    between atoms: C_27  and  C_28
REMARK    6  A    between atoms: C_28  and  N_30
REMARK                            x       y       z     vdW  Elec       q    Type
REMARK                         _______ _______ _______ _____ _____    ______ ____
ROOT
ATOM      1  N   UNL     1      34.261 -19.417 -22.505  0.00  0.00    -0.270 N 
ATOM      2  N   UNL     1      35.360 -20.376 -20.696  0.00  0.00    -0.338 NA
ATOM      3  N   UNL     1      32.966 -20.524 -20.932  0.00  0.00    -0.170 NA
ATOM      4  C   UNL     1      35.194 -22.543 -17.139  0.00  0.00    -0.000 C 
ATOM      5  C   UNL     1      34.021 -22.265 -17.836  0.00  0.00    +0.004 C 
ATOM      6  C   UNL     1      34.074 -21.534 -19.036  0.00  0.00    +0.050 C 
ATOM      7  C   UNL     1      34.191 -20.138 -21.325  0.00  0.00    +0.145 C 
ATOM      8  C   UNL     1      36.412 -22.095 -17.638  0.00  0.00    +0.003 C 
ATOM      9  C   UNL     1      35.298 -21.076 -19.549  0.00  0.00    +0.146 C 
ATOM     10  C   UNL     1      36.455 -21.369 -18.832  0.00  0.00    +0.033 C 
ATOM     11  C   UNL     1      32.940 -21.223 -19.780  0.00  0.00    +0.114 C 
ATOM     12  H   UNL     1      33.422 -19.229 -22.986  0.00  0.00    +0.159 HD
ENDROOT
BRANCH   4  16
ATOM     13  C   UNL     1      33.833 -24.407 -14.208  0.00  0.00    +0.053 C 
ATOM     14  C   UNL     1      33.905 -23.682 -15.397  0.00  0.00    +0.004 C 
ATOM     15  C   UNL     1      35.001 -24.744 -13.525  0.00  0.00    +0.004 C 
ATOM     16  C   UNL     1      35.144 -23.293 -15.904  0.00  0.00    -0.004 C 
ATOM     17  C   UNL     1      36.313 -23.630 -15.220  0.00  0.00    -0.022 C 
ATOM     18  C   UNL     1      36.242 -24.356 -14.031  0.00  0.00    -0.004 C 
ATOM     19  C   UNL     1      37.661 -23.232 -15.732  0.00  0.00    +0.031 C 
BRANCH  13  22
ATOM     20  O   UNL     1      32.465 -25.495 -12.642  0.00  0.00    -0.270 OA
ATOM     21  N   UNL     1      31.405 -24.419 -14.399  0.00  0.00    -0.302 N 
ATOM     22  C   UNL     1      32.540 -24.813 -13.679  0.00  0.00    +0.246 C 
ATOM     23  H   UNL     1      31.532 -23.880 -15.213  0.00  0.00    +0.150 HD
BRANCH  21  24
ATOM     24  C   UNL     1      30.065 -24.763 -14.011  0.00  0.00    +0.072 C 
ATOM     25  C   UNL     1      28.934 -24.713 -14.995  0.00  0.00    +0.021 C 
ATOM     26  C   UNL     1      29.424 -26.035 -14.480  0.00  0.00    +0.021 C 
ENDBRANCH  21  24
ENDBRANCH  13  22
ENDBRANCH   4  16
BRANCH   1  27
ATOM     27  C   UNL     1      35.495 -18.926 -23.072  0.00  0.00    +0.075 C 
BRANCH  27  28
ATOM     28  C   UNL     1      35.734 -17.492 -22.615  0.00  0.00    -0.055 C 
BRANCH  28  30
ATOM     29  O   UNL     1      33.706 -14.253 -24.350  0.00  0.00    -0.358 OA
ATOM     30  N   UNL     1      34.662 -16.621 -23.094  0.00  0.00    +0.391 N 
ATOM     31  C   UNL     1      34.754 -16.432 -24.549  0.00  0.00    -0.045 C 
ATOM     32  C   UNL     1      34.704 -15.320 -22.413  0.00  0.00    -0.045 C 
ATOM     33  C   UNL     1      33.634 -15.511 -25.023  0.00  0.00    +0.119 C 
ATOM     34  C   UNL     1      33.584 -14.425 -22.937  0.00  0.00    +0.119 C 
ATOM     35  H   UNL     1      33.773 -17.074 -22.880  0.00  0.00    -0.079 HD
ENDBRANCH  28  30
ENDBRANCH  27  28
ENDBRANCH   1  27
TORSDOF 6
ENDMDL
MODEL 4
REMARK VINA RESULT:     -10.9      3.235     11.574
REMARK  Name = 24963046
REMARK  6 active torsions:
REMARK  status: ('A' for Active; 'I' for Inactive)
REMARK    1  A    between atoms: N_1  and  C_27
REMARK    2  A    between atoms: C_4  and  C_16
REMARK    3  A    between atoms: C_13  and  C_22
REMARK    4  A    between atoms: N_21  and  C_24
REMARK    5  A    between atoms: C_27  and  C_28
REMARK    6  A    between atoms: C_28  and  N_30
REMARK                            x       y       z     vdW  Elec       q    Type
REMARK                         _______ _______ _______ _____ _____    ______ ____
ROOT
ATOM      1  N   UNL     1      33.511 -13.443 -25.183  0.00  0.00    -0.270 N 
ATOM      2  N   UNL     1      34.132 -14.597 -23.263  0.00  0.00    -0.338 NA
ATOM      3  N   UNL     1      33.857 -15.729 -25.373  0.00  0.00    -0.170 NA
ATOM      4  C   UNL     1      35.151 -18.190 -21.412  0.00  0.00    -0.000 C 
ATOM      5  C   UNL     1      34.848 -18.172 -22.770  0.00  0.00    +0.004 C 
ATOM      6  C   UNL     1      34.503 -16.963 -23.398  0.00  0.00    +0.050 C 
ATOM      7  C   UNL     1      33.848 -14.645 -24.581  0.00  0.00    +0.145 C 
ATOM      8  C   UNL     1      35.111 -17.005 -20.684  0.00  0.00    +0.003 C 
ATOM      9  C   UNL     1      34.460 -15.760 -22.673  0.00  0.00    +0.146 C 
ATOM     10  C   UNL     1      34.769 -15.807 -21.316  0.00  0.00    +0.033 C 
ATOM     11  C   UNL     1      34.189 -16.876 -24.750  0.00  0.00    +0.114 C 
ATOM     12  H   UNL     1      33.300 -13.449 -26.145  0.00  0.00    +0.159 HD
ENDROOT
BRANCH   4  16
ATOM     13  C   UNL     1      34.811 -21.421 -19.577  0.00  0.00    +0.053 C 
ATOM     14  C   UNL     1      34.493 -20.219 -20.209  0.00  0.00    +0.004 C 
ATOM     15  C   UNL     1      36.139 -21.838 -19.499  0.00  0.00    +0.004 C 
ATOM     16  C   UNL     1      35.504 -19.433 -20.762  0.00  0.00    -0.004 C 
ATOM     17  C   UNL     1      36.833 -19.850 -20.683  0.00  0.00    -0.022 C 
ATOM     18  C   UNL     1      37.151 -21.053 -20.052  0.00  0.00    -0.004 C 
ATOM     19  C   UNL     1      37.944 -19.035 -21.264  0.00  0.00    +0.031 C 
BRANCH  13  22
ATOM     20  O   UNL     1      32.679 -22.402 -19.601  0.00  0.00    -0.270 OA
ATOM     21  N   UNL     1      34.008 -22.813 -17.748  0.00  0.00    -0.302 N 
ATOM     22  C   UNL     1      33.757 -22.241 -19.001  0.00  0.00    +0.246 C 
ATOM     23  H   UNL     1      34.882 -22.647 -17.325  0.00  0.00    +0.150 HD
BRANCH  21  24
ATOM     24  C   UNL     1      33.055 -23.628 -17.046  0.00  0.00    +0.072 C 
ATOM     25  C   UNL     1      32.900 -23.536 -15.557  0.00  0.00    +0.021 C 
ATOM     26  C   UNL     1      31.810 -23.034 -16.458  0.00  0.00    +0.021 C 
ENDBRANCH  21  24
ENDBRANCH  13  22
ENDBRANCH   4  16
BRANCH   1  27
ATOM     27  C   UNL     1      33.454 -12.183 -24.480  0.00  0.00    +0.075 C 
BRANCH  27  28
ATOM     28  C   UNL     1      32.311 -12.210 -23.473  0.00  0.00    -0.055 C 
BRANCH  28  30
ATOM     29  O   UNL     1      31.574  -8.776 -21.174  0.00  0.00    -0.358 OA
ATOM     30  N   UNL     1      32.468 -11.132 -22.498  0.00  0.00    +0.391 N 
ATOM     31  C   UNL     1      31.392 -11.175 -21.497  0.00  0.00    -0.045 C 
ATOM     32  C   UNL     1      32.485  -9.823 -23.165  0.00  0.00    -0.045 C 
ATOM     33  C   UNL     1      31.570 -10.035 -20.498  0.00  0.00    +0.119 C 
ATOM     34  C   UNL     1      32.638  -8.716 -22.126  0.00  0.00    +0.119 C 
ATOM     35  H   UNL     1      33.360 -11.269 -22.023  0.00  0.00    -0.079 HD
ENDBRANCH  28  30
ENDBRANCH  27  28
ENDBRANCH   1  27
TORSDOF 6
ENDMDL
MODEL 5
REMARK VINA RESULT:     -10.5      4.265      8.462
REMARK  Name = 24963046
REMARK  6 active torsions:
REMARK  status: ('A' for Active; 'I' for Inactive)
REMARK    1  A    between atoms: N_1  and  C_27
REMARK    2  A    between atoms: C_4  and  C_16
REMARK    3  A    between atoms: C_13  and  C_22
REMARK    4  A    between atoms: N_21  and  C_24
REMARK    5  A    between atoms: C_27  and  C_28
REMARK    6  A    between atoms: C_28  and  N_30
REMARK                            x       y       z     vdW  Elec       q    Type
REMARK                         _______ _______ _______ _____ _____    ______ ____
ROOT
ATOM      1  N   UNL     1      34.989 -18.314 -23.729  0.00  0.00    -0.270 N 
ATOM      2  N   UNL     1      34.601 -16.282 -22.668  0.00  0.00    -0.338 NA
ATOM      3  N   UNL     1      34.173 -16.570 -25.022  0.00  0.00    -0.170 NA
ATOM      4  C   UNL     1      33.345 -12.313 -22.874  0.00  0.00    -0.000 C 
ATOM      5  C   UNL     1      33.334 -13.103 -24.019  0.00  0.00    +0.004 C 
ATOM      6  C   UNL     1      33.758 -14.442 -23.954  0.00  0.00    +0.050 C 
ATOM      7  C   UNL     1      34.569 -16.997 -23.812  0.00  0.00    +0.145 C 
ATOM      8  C   UNL     1      33.775 -12.858 -21.669  0.00  0.00    +0.003 C 
ATOM      9  C   UNL     1      34.195 -15.003 -22.742  0.00  0.00    +0.146 C 
ATOM     10  C   UNL     1      34.194 -14.190 -21.612  0.00  0.00    +0.033 C 
ATOM     11  C   UNL     1      33.772 -15.285 -25.061  0.00  0.00    +0.114 C 
ATOM     12  H   UNL     1      34.975 -18.859 -24.549  0.00  0.00    +0.159 HD
ENDROOT
BRANCH   4  16
ATOM     13  C   UNL     1      33.338  -8.659 -23.625  0.00  0.00    +0.053 C 
ATOM     14  C   UNL     1      33.736  -9.994 -23.552  0.00  0.00    +0.004 C 
ATOM     15  C   UNL     1      32.115  -8.266 -23.083  0.00  0.00    +0.004 C 
ATOM     16  C   UNL     1      32.911 -10.935 -22.937  0.00  0.00    -0.004 C 
ATOM     17  C   UNL     1      31.687 -10.541 -22.394  0.00  0.00    -0.022 C 
ATOM     18  C   UNL     1      31.289  -9.206 -22.468  0.00  0.00    -0.004 C 
ATOM     19  C   UNL     1      30.776 -11.521 -21.727  0.00  0.00    +0.031 C 
BRANCH  13  22
ATOM     20  O   UNL     1      35.274  -7.337 -23.742  0.00  0.00    -0.270 OA
ATOM     21  N   UNL     1      33.749  -7.129 -25.474  0.00  0.00    -0.302 N 
ATOM     22  C   UNL     1      34.198  -7.677 -24.266  0.00  0.00    +0.246 C 
ATOM     23  H   UNL     1      32.887  -7.441 -25.837  0.00  0.00    +0.150 HD
BRANCH  21  24
ATOM     24  C   UNL     1      34.480  -6.135 -26.211  0.00  0.00    +0.072 C 
ATOM     25  C   UNL     1      35.486  -6.524 -27.253  0.00  0.00    +0.021 C 
ATOM     26  C   UNL     1      34.194  -5.877 -27.660  0.00  0.00    +0.021 C 
ENDBRANCH  21  24
ENDBRANCH  13  22
ENDBRANCH   4  16
BRANCH   1  27
ATOM     27  C   UNL     1      35.446 -18.934 -22.508  0.00  0.00    +0.075 C 
BRANCH  27  28
ATOM     28  C   UNL     1      34.248 -19.418 -21.700  0.00  0.00    -0.055 C 
BRANCH  28  30
ATOM     29  O   UNL     1      35.218 -21.928 -18.479  0.00  0.00    -0.358 OA
ATOM     30  N   UNL     1      34.605 -20.603 -20.922  0.00  0.00    +0.391 N 
ATOM     31  C   UNL     1      33.562 -20.910 -19.933  0.00  0.00    -0.045 C 
ATOM     32  C   UNL     1      35.899 -20.416 -20.250  0.00  0.00    -0.045 C 
ATOM     33  C   UNL     1      33.962 -22.142 -19.126  0.00  0.00    +0.119 C 
ATOM     34  C   UNL     1      36.243 -21.661 -19.437  0.00  0.00    +0.119 C 
ATOM     35  H   UNL     1      34.683 -21.389 -21.568  0.00  0.00    -0.079 HD
ENDBRANCH  28  30
ENDBRANCH  27  28
ENDBRANCH   1  27
TORSDOF 6
ENDMDL
MODEL 6
REMARK VINA RESULT:     -10.3      1.948      2.520
REMARK  Name = 24963046
REMARK  6 active torsions:
REMARK  status: ('A' for Active; 'I' for Inactive)
REMARK    1  A    between atoms: N_1  and  C_27
REMARK    2  A    between atoms: C_4  and  C_16
REMARK    3  A    between atoms: C_13  and  C_22
REMARK    4  A    between atoms: N_21  and  C_24
REMARK    5  A    between atoms: C_27  and  C_28
REMARK    6  A    between atoms: C_28  and  N_30
REMARK                            x       y       z     vdW  Elec       q    Type
REMARK                         _______ _______ _______ _____ _____    ______ ____
ROOT
ATOM      1  N   UNL     1      33.716 -23.861 -16.792  0.00  0.00    -0.270 N 
ATOM      2  N   UNL     1      34.870 -22.403 -18.186  0.00  0.00    -0.338 NA
ATOM      3  N   UNL     1      32.467 -22.566 -18.257  0.00  0.00    -0.170 NA
ATOM      4  C   UNL     1      34.811 -19.510 -21.187  0.00  0.00    -0.000 C 
ATOM      5  C   UNL     1      33.617 -20.062 -20.734  0.00  0.00    +0.004 C 
ATOM      6  C   UNL     1      33.633 -21.039 -19.722  0.00  0.00    +0.050 C 
ATOM      7  C   UNL     1      33.681 -22.901 -17.790  0.00  0.00    +0.145 C 
ATOM      8  C   UNL     1      36.015 -19.929 -20.632  0.00  0.00    +0.003 C 
ATOM      9  C   UNL     1      34.843 -21.470 -19.154  0.00  0.00    +0.146 C 
ATOM     10  C   UNL     1      36.022 -20.900 -19.626  0.00  0.00    +0.033 C 
ATOM     11  C   UNL     1      32.476 -21.630 -19.225  0.00  0.00    +0.114 C 
ATOM     12  H   UNL     1      32.862 -24.241 -16.483  0.00  0.00    +0.159 HD
ENDROOT
BRANCH   4  16
ATOM     13  C   UNL     1      34.725 -16.175 -22.857  0.00  0.00    +0.053 C 
ATOM     14  C   UNL     1      34.738 -17.160 -21.870  0.00  0.00    +0.004 C 
ATOM     15  C   UNL     1      34.776 -16.536 -24.203  0.00  0.00    +0.004 C 
ATOM     16  C   UNL     1      34.799 -18.507 -22.228  0.00  0.00    -0.004 C 
ATOM     17  C   UNL     1      34.849 -18.867 -23.576  0.00  0.00    -0.022 C 
ATOM     18  C   UNL     1      34.838 -17.882 -24.563  0.00  0.00    -0.004 C 
ATOM     19  C   UNL     1      34.917 -20.300 -23.999  0.00  0.00    +0.031 C 
BRANCH  13  22
ATOM     20  O   UNL     1      35.071 -14.391 -21.372  0.00  0.00    -0.270 OA
ATOM     21  N   UNL     1      34.103 -13.888 -23.416  0.00  0.00    -0.302 N 
ATOM     22  C   UNL     1      34.661 -14.771 -22.483  0.00  0.00    +0.246 C 
ATOM     23  H   UNL     1      33.796 -14.252 -24.279  0.00  0.00    +0.150 HD
BRANCH  21  24
ATOM     24  C   UNL     1      33.955 -12.479 -23.179  0.00  0.00    +0.072 C 
ATOM     25  C   UNL     1      32.944 -11.666 -23.933  0.00  0.00    +0.021 C 
ATOM     26  C   UNL     1      32.752 -11.934 -22.469  0.00  0.00    +0.021 C 
ENDBRANCH  21  24
ENDBRANCH  13  22
ENDBRANCH   4  16
BRANCH   1  27
ATOM     27  C   UNL     1      34.934 -24.335 -16.179  0.00  0.00    +0.075 C 
BRANCH  27  28
ATOM     28  C   UNL     1      34.694 -24.593 -14.697  0.00  0.00    -0.055 C 
BRANCH  28  30
ATOM     29  O   UNL     1      31.085 -24.000 -12.637  0.00  0.00    -0.358 OA
ATOM     30  N   UNL     1      33.267 -24.515 -14.391  0.00  0.00    +0.391 N 
ATOM     31  C   UNL     1      32.887 -23.144 -14.020  0.00  0.00    -0.045 C 
ATOM     32  C   UNL     1      32.913 -25.446 -13.312  0.00  0.00    -0.045 C 
ATOM     33  C   UNL     1      31.398 -23.091 -13.695  0.00  0.00    +0.119 C 
ATOM     34  C   UNL     1      31.422 -25.339 -13.004  0.00  0.00    +0.119 C 
ATOM     35  H   UNL     1      32.753 -24.779 -15.233  0.00  0.00    -0.079 HD
ENDBRANCH  28  30
ENDBRANCH  27  28
ENDBRANCH   1  27
TORSDOF 6
ENDMDL
MODEL 7
REMARK VINA RESULT:     -10.3      2.877     10.959
REMARK  Name = 24963046
REMARK  6 active torsions:
REMARK  status: ('A' for Active; 'I' for Inactive)
REMARK    1  A    between atoms: N_1  and  C_27
REMARK    2  A    between atoms: C_4  and  C_16
REMARK    3  A    between atoms: C_13  and  C_22
REMARK    4  A    between atoms: N_21  and  C_24
REMARK    5  A    between atoms: C_27  and  C_28
REMARK    6  A    between atoms: C_28  and  N_30
REMARK                            x       y       z     vdW  Elec       q    Type
REMARK                         _______ _______ _______ _____ _____    ______ ____
ROOT
ATOM      1  N   UNL     1      35.816 -18.480 -22.911  0.00  0.00    -0.270 N 
ATOM      2  N   UNL     1      34.646 -19.797 -21.396  0.00  0.00    -0.338 NA
ATOM      3  N   UNL     1      37.002 -19.367 -21.126  0.00  0.00    -0.170 NA
ATOM      4  C   UNL     1      34.622 -22.120 -17.935  0.00  0.00    -0.000 C 
ATOM      5  C   UNL     1      35.806 -21.526 -18.362  0.00  0.00    +0.004 C 
ATOM      6  C   UNL     1      35.818 -20.742 -19.529  0.00  0.00    +0.050 C 
ATOM      7  C   UNL     1      35.824 -19.249 -21.759  0.00  0.00    +0.145 C 
ATOM      8  C   UNL     1      33.456 -21.931 -18.669  0.00  0.00    +0.003 C 
ATOM      9  C   UNL     1      34.646 -20.545 -20.279  0.00  0.00    +0.146 C 
ATOM     10  C   UNL     1      33.476 -21.150 -19.827  0.00  0.00    +0.033 C 
ATOM     11  C   UNL     1      36.967 -20.122 -20.010  0.00  0.00    +0.114 C 
ATOM     12  H   UNL     1      36.663 -18.066 -23.199  0.00  0.00    +0.159 HD
ENDROOT
BRANCH   4  16
ATOM     13  C   UNL     1      33.346 -24.194 -15.109  0.00  0.00    +0.053 C 
ATOM     14  C   UNL     1      33.386 -23.413 -16.263  0.00  0.00    +0.004 C 
ATOM     15  C   UNL     1      34.525 -24.492 -14.427  0.00  0.00    +0.004 C 
ATOM     16  C   UNL     1      34.606 -22.928 -16.736  0.00  0.00    -0.004 C 
ATOM     17  C   UNL     1      35.786 -23.226 -16.053  0.00  0.00    -0.022 C 
ATOM     18  C   UNL     1      35.746 -24.009 -14.899  0.00  0.00    -0.004 C 
ATOM     19  C   UNL     1      37.112 -22.725 -16.530  0.00  0.00    +0.031 C 
BRANCH  13  22
ATOM     20  O   UNL     1      32.039 -25.636 -13.797  0.00  0.00    -0.270 OA
ATOM     21  N   UNL     1      30.913 -24.101 -15.118  0.00  0.00    -0.302 N 
ATOM     22  C   UNL     1      32.075 -24.700 -14.615  0.00  0.00    +0.246 C 
ATOM     23  H   UNL     1      31.009 -23.364 -15.765  0.00  0.00    +0.150 HD
BRANCH  21  24
ATOM     24  C   UNL     1      29.588 -24.508 -14.739  0.00  0.00    +0.072 C 
ATOM     25  C   UNL     1      28.376 -23.805 -15.276  0.00  0.00    +0.021 C 
ATOM     26  C   UNL     1      28.684 -25.209 -15.710  0.00  0.00    +0.021 C 
ENDBRANCH  21  24
ENDBRANCH  13  22
ENDBRANCH   4  16
BRANCH   1  27
ATOM     27  C   UNL     1      34.638 -18.248 -23.713  0.00  0.00    +0.075 C 
BRANCH  27  28
ATOM     28  C   UNL     1      34.749 -16.897 -24.408  0.00  0.00    -0.055 C 
BRANCH  28  30
ATOM     29  O   UNL     1      33.672 -13.196 -22.747  0.00  0.00    -0.358 OA
ATOM     30  N   UNL     1      34.042 -15.872 -23.643  0.00  0.00    +0.391 N 
ATOM     31  C   UNL     1      33.511 -14.830 -24.533  0.00  0.00    -0.045 C 
ATOM     32  C   UNL     1      34.925 -15.271 -22.634  0.00  0.00    -0.045 C 
ATOM     33  C   UNL     1      32.788 -13.767 -23.712  0.00  0.00    +0.119 C 
ATOM     34  C   UNL     1      34.167 -14.198 -21.857  0.00  0.00    +0.119 C 
ATOM     35  H   UNL     1      33.260 -16.323 -23.166  0.00  0.00    -0.079 HD
ENDBRANCH  28  30
ENDBRANCH  27  28
ENDBRANCH   1  27
TORSDOF 6
ENDMDL
MODEL 8
REMARK VINA RESULT:     -10.3      2.401      3.327
REMARK  Name = 24963046
REMARK  6 active torsions:
REMARK  status: ('A' for Active; 'I' for Inactive)
REMARK    1  A    between atoms: N_1  and  C_27
REMARK    2  A    between atoms: C_4  and  C_16
REMARK    3  A    between atoms: C_13  and  C_22
REMARK    4  A    between atoms: N_21  and  C_24
REMARK    5  A    between atoms: C_27  and  C_28
REMARK    6  A    between atoms: C_28  and  N_30
REMARK                            x       y       z     vdW  Elec       q    Type
REMARK                         _______ _______ _______ _____ _____    ______ ____
ROOT
ATOM      1  N   UNL     1      35.486 -23.707 -16.075  0.00  0.00    -0.270 N 
ATOM      2  N   UNL     1      34.417 -22.533 -17.772  0.00  0.00    -0.338 NA
ATOM      3  N   UNL     1      36.792 -22.335 -17.414  0.00  0.00    -0.170 NA
ATOM      4  C   UNL     1      34.625 -19.863 -20.966  0.00  0.00    -0.000 C 
ATOM      5  C   UNL     1      35.781 -20.199 -20.267  0.00  0.00    +0.004 C 
ATOM      6  C   UNL     1      35.714 -21.098 -19.189  0.00  0.00    +0.050 C 
ATOM      7  C   UNL     1      35.570 -22.818 -17.134  0.00  0.00    +0.145 C 
ATOM      8  C   UNL     1      33.409 -20.424 -20.591  0.00  0.00    +0.003 C 
ATOM      9  C   UNL     1      34.492 -21.671 -18.801  0.00  0.00    +0.146 C 
ATOM     10  C   UNL     1      33.352 -21.318 -19.518  0.00  0.00    +0.033 C 
ATOM     11  C   UNL     1      36.831 -21.475 -18.450  0.00  0.00    +0.114 C 
ATOM     12  H   UNL     1      36.314 -23.934 -15.592  0.00  0.00    +0.159 HD
ENDROOT
BRANCH   4  16
ATOM     13  C   UNL     1      34.593 -16.661 -22.880  0.00  0.00    +0.053 C 
ATOM     14  C   UNL     1      34.535 -17.573 -21.827  0.00  0.00    +0.004 C 
ATOM     15  C   UNL     1      34.805 -17.113 -24.182  0.00  0.00    +0.004 C 
ATOM     16  C   UNL     1      34.689 -18.937 -22.075  0.00  0.00    -0.004 C 
ATOM     17  C   UNL     1      34.901 -19.388 -23.378  0.00  0.00    -0.022 C 
ATOM     18  C   UNL     1      34.960 -18.476 -24.432  0.00  0.00    -0.004 C 
ATOM     19  C   UNL     1      35.071 -20.843 -23.683  0.00  0.00    +0.031 C 
BRANCH  13  22
ATOM     20  O   UNL     1      34.989 -14.396 -23.349  0.00  0.00    -0.270 OA
ATOM     21  N   UNL     1      33.650 -14.875 -21.519  0.00  0.00    -0.302 N 
ATOM     22  C   UNL     1      34.433 -15.239 -22.622  0.00  0.00    +0.246 C 
ATOM     23  H   UNL     1      33.237 -15.591 -20.983  0.00  0.00    +0.150 HD
BRANCH  21  24
ATOM     24  C   UNL     1      33.420 -13.512 -21.129  0.00  0.00    +0.072 C 
ATOM     25  C   UNL     1      32.304 -12.709 -21.730  0.00  0.00    +0.021 C 
ATOM     26  C   UNL     1      32.235 -13.134 -20.293  0.00  0.00    +0.021 C 
ENDBRANCH  21  24
ENDBRANCH  13  22
ENDBRANCH   4  16
BRANCH   1  27
ATOM     27  C   UNL     1      34.254 -24.321 -15.640  0.00  0.00    +0.075 C 
BRANCH  27  28
ATOM     28  C   UNL     1      34.111 -24.169 -14.131  0.00  0.00    -0.055 C 
BRANCH  28  30
ATOM     29  O   UNL     1      29.920 -24.404 -14.146  0.00  0.00    -0.358 OA
ATOM     30  N   UNL     1      32.708 -23.970 -13.771  0.00  0.00    +0.391 N 
ATOM     31  C   UNL     1      32.075 -25.249 -13.416  0.00  0.00    -0.045 C 
ATOM     32  C   UNL     1      31.972 -23.331 -14.870  0.00  0.00    -0.045 C 
ATOM     33  C   UNL     1      30.611 -25.018 -13.056  0.00  0.00    +0.119 C 
ATOM     34  C   UNL     1      30.510 -23.145 -14.475  0.00  0.00    +0.119 C 
ATOM     35  H   UNL     1      32.679 -23.356 -12.957  0.00  0.00    -0.079 HD
ENDBRANCH  28  30
ENDBRANCH  27  28
ENDBRANCH   1  27
TORSDOF 6
ENDMDL
MODEL 9
REMARK VINA RESULT:     -10.1      6.669     12.073
REMARK  Name = 24963046
REMARK  6 active torsions:
REMARK  status: ('A' for Active; 'I' for Inactive)
REMARK    1  A    between atoms: N_1  and  C_27
REMARK    2  A    between atoms: C_4  and  C_16
REMARK    3  A    between atoms: C_13  and  C_22
REMARK    4  A    between atoms: N_21  and  C_24
REMARK    5  A    between atoms: C_27  and  C_28
REMARK    6  A    between atoms: C_28  and  N_30
REMARK                            x       y       z     vdW  Elec       q    Type
REMARK                         _______ _______ _______ _____ _____    ______ ____
ROOT
ATOM      1  N   UNL     1      33.397 -14.471 -22.927  0.00  0.00    -0.270 N 
ATOM      2  N   UNL     1      33.957 -12.236 -23.238  0.00  0.00    -0.338 NA
ATOM      3  N   UNL     1      31.843 -12.878 -22.274  0.00  0.00    -0.170 NA
ATOM      4  C   UNL     1      32.946  -8.207 -22.896  0.00  0.00    -0.000 C 
ATOM      5  C   UNL     1      32.052  -9.184 -22.468  0.00  0.00    +0.004 C 
ATOM      6  C   UNL     1      32.389 -10.544 -22.582  0.00  0.00    +0.050 C 
ATOM      7  C   UNL     1      33.048 -13.136 -22.807  0.00  0.00    +0.145 C 
ATOM      8  C   UNL     1      34.172  -8.586 -23.433  0.00  0.00    +0.003 C 
ATOM      9  C   UNL     1      33.624 -10.939 -23.124  0.00  0.00    +0.146 C 
ATOM     10  C   UNL     1      34.499  -9.940 -23.542  0.00  0.00    +0.033 C 
ATOM     11  C   UNL     1      31.541 -11.569 -22.175  0.00  0.00    +0.114 C 
ATOM     12  H   UNL     1      32.753 -15.149 -22.619  0.00  0.00    +0.159 HD
ENDROOT
BRANCH   4  16
ATOM     13  C   UNL     1      32.085  -4.707 -23.857  0.00  0.00    +0.053 C 
ATOM     14  C   UNL     1      32.416  -6.059 -23.943  0.00  0.00    +0.004 C 
ATOM     15  C   UNL     1      31.939  -4.103 -22.609  0.00  0.00    +0.004 C 
ATOM     16  C   UNL     1      32.603  -6.807 -22.781  0.00  0.00    -0.004 C 
ATOM     17  C   UNL     1      32.458  -6.202 -21.532  0.00  0.00    -0.022 C 
ATOM     18  C   UNL     1      32.125  -4.850 -21.446  0.00  0.00    -0.004 C 
ATOM     19  C   UNL     1      32.649  -6.971 -20.264  0.00  0.00    +0.031 C 
BRANCH  13  22
ATOM     20  O   UNL     1      31.084  -2.978 -25.090  0.00  0.00    -0.270 OA
ATOM     21  N   UNL     1      32.628  -4.305 -26.196  0.00  0.00    -0.302 N 
ATOM     22  C   UNL     1      31.889  -3.926 -25.069  0.00  0.00    +0.246 C 
ATOM     23  H   UNL     1      33.250  -5.065 -26.115  0.00  0.00    +0.150 HD
BRANCH  21  24
ATOM     24  C   UNL     1      32.525  -3.642 -27.467  0.00  0.00    +0.072 C 
ATOM     25  C   UNL     1      33.738  -3.091 -28.157  0.00  0.00    +0.021 C 
ATOM     26  C   UNL     1      33.030  -4.288 -28.722  0.00  0.00    +0.021 C 
ENDBRANCH  21  24
ENDBRANCH  13  22
ENDBRANCH   4  16
BRANCH   1  27
ATOM     27  C   UNL     1      34.653 -14.925 -23.476  0.00  0.00    +0.075 C 
BRANCH  27  28
ATOM     28  C   UNL     1      34.424 -16.178 -24.311  0.00  0.00    -0.055 C 
BRANCH  28  30
ATOM     29  O   UNL     1      35.071 -19.474 -21.795  0.00  0.00    -0.358 OA
ATOM     30  N   UNL     1      35.047 -17.335 -23.673  0.00  0.00    +0.391 N 
ATOM     31  C   UNL     1      34.232 -18.542 -23.873  0.00  0.00    -0.045 C 
ATOM     32  C   UNL     1      35.249 -17.095 -22.238  0.00  0.00    -0.045 C 
ATOM     33  C   UNL     1      34.896 -19.734 -23.189  0.00  0.00    +0.119 C 
ATOM     34  C   UNL     1      35.890 -18.321 -21.593  0.00  0.00    +0.119 C 
ATOM     35  H   UNL     1      35.957 -17.481 -24.112  0.00  0.00    -0.079 HD
ENDBRANCH  28  30
ENDBRANCH  27  28
ENDBRANCH   1  27
TORSDOF 6
ENDMDL
