MODEL 1
REMARK VINA RESULT:     -12.0      0.000      0.000
REMARK  Name = 25243828
REMARK  6 active torsions:
REMARK  status: ('A' for Active; 'I' for Inactive)
REMARK    1  A    between atoms: C_1  and  C_18
REMARK    2  A    between atoms: C_4  and  O_7
REMARK    3  A    between atoms: O_7  and  C_9
REMARK    4  A    between atoms: C_11  and  C_17
REMARK    5  A    between atoms: C_18  and  C_21
REMARK    6  A    between atoms: C_26  and  O_27
REMARK                            x       y       z     vdW  Elec       q    Type
REMARK                         _______ _______ _______ _____ _____    ______ ____
ROOT
ATOM      1  C   UNL     1      33.840 -23.546 -14.783  0.00  0.00    -0.019 C 
ATOM      2  C   UNL     1      33.995 -23.672 -16.163  0.00  0.00    +0.033 C 
ATOM      3  C   UNL     1      32.595 -23.215 -14.247  0.00  0.00    -0.004 C 
ATOM      4  C   UNL     1      32.905 -23.467 -17.009  0.00  0.00    +0.147 C 
ATOM      5  C   UNL     1      31.505 -23.009 -15.094  0.00  0.00    +0.003 C 
ATOM      6  C   UNL     1      31.660 -23.136 -16.474  0.00  0.00    +0.038 C 
ENDROOT
BRANCH   4   7
ATOM      7  O   UNL     1      33.056 -23.588 -18.356  0.00  0.00    -0.436 OA
BRANCH   7   9
ATOM      8  N   UNL     1      32.785 -21.642 -19.613  0.00  0.00    -0.210 NA
ATOM      9  C   UNL     1      33.629 -22.527 -19.038  0.00  0.00    +0.230 C 
ATOM     10  C   UNL     1      35.010 -22.430 -19.092  0.00  0.00    +0.058 C 
ATOM     11  C   UNL     1      34.724 -20.423 -20.386  0.00  0.00    +0.091 C 
ATOM     12  C   UNL     1      35.560 -21.354 -19.781  0.00  0.00    +0.010 C 
ATOM     13  C   UNL     1      33.356 -20.609 -20.274  0.00  0.00    +0.106 C 
BRANCH  11  17
ATOM     14  F   UNL     1      34.773 -18.056 -20.735  0.00  0.00    -0.166 F 
ATOM     15  F   UNL     1      36.638 -19.130 -21.008  0.00  0.00    -0.166 F 
ATOM     16  F   UNL     1      35.045 -19.332 -22.474  0.00  0.00    -0.166 F 
ATOM     17  C   UNL     1      35.282 -19.262 -21.131  0.00  0.00    +0.420 C 
ENDBRANCH  11  17
ENDBRANCH   7   9
ENDBRANCH   4   7
BRANCH   1  18
ATOM     18  C   UNL     1      35.015 -23.765 -13.869  0.00  0.00    +0.027 C 
BRANCH  18  21
ATOM     19  O   UNL     1      41.086 -24.779 -14.162  0.00  0.00    -0.226 OA
ATOM     20  N   UNL     1      38.901 -25.430 -14.627  0.00  0.00    -0.246 N 
ATOM     21  C   UNL     1      36.178 -24.433 -14.598  0.00  0.00    +0.008 C 
ATOM     22  C   UNL     1      37.389 -23.490 -14.678  0.00  0.00    +0.022 C 
ATOM     23  C   UNL     1      36.569 -25.751 -13.910  0.00  0.00    +0.022 C 
ATOM     24  C   UNL     1      38.588 -24.180 -15.326  0.00  0.00    +0.097 C 
ATOM     25  C   UNL     1      37.785 -26.385 -14.584  0.00  0.00    +0.097 C 
ATOM     26  C   UNL     1      40.180 -25.610 -14.091  0.00  0.00    +0.402 C 
BRANCH  26  27
ATOM     27  O   UNL     1      40.406 -26.789 -13.445  0.00  0.00    -0.466 OA
ATOM     28  H   UNL     1      39.692 -27.368 -13.265  0.00  0.00    +0.297 HD
ENDBRANCH  26  27
ENDBRANCH  18  21
ENDBRANCH   1  18
TORSDOF 6
ENDMDL
MODEL 2
REMARK VINA RESULT:     -11.4      5.866     10.911
REMARK  Name = 25243828
REMARK  6 active torsions:
REMARK  status: ('A' for Active; 'I' for Inactive)
REMARK    1  A    between atoms: C_1  and  C_18
REMARK    2  A    between atoms: C_4  and  O_7
REMARK    3  A    between atoms: O_7  and  C_9
REMARK    4  A    between atoms: C_11  and  C_17
REMARK    5  A    between atoms: C_18  and  C_21
REMARK    6  A    between atoms: C_26  and  O_27
REMARK                            x       y       z     vdW  Elec       q    Type
REMARK                         _______ _______ _______ _____ _____    ______ ____
ROOT
ATOM      1  C   UNL     1      34.907 -16.617 -22.964  0.00  0.00    -0.019 C 
ATOM      2  C   UNL     1      35.605 -17.334 -21.993  0.00  0.00    +0.033 C 
ATOM      3  C   UNL     1      34.243 -17.292 -23.989  0.00  0.00    -0.004 C 
ATOM      4  C   UNL     1      35.642 -18.728 -22.048  0.00  0.00    +0.147 C 
ATOM      5  C   UNL     1      34.280 -18.685 -24.043  0.00  0.00    +0.003 C 
ATOM      6  C   UNL     1      34.978 -19.404 -23.072  0.00  0.00    +0.038 C 
ENDROOT
BRANCH   4   7
ATOM      7  O   UNL     1      36.325 -19.429 -21.103  0.00  0.00    -0.436 OA
BRANCH   7   9
ATOM      8  N   UNL     1      36.316 -21.069 -19.444  0.00  0.00    -0.210 NA
ATOM      9  C   UNL     1      35.608 -20.307 -20.307  0.00  0.00    +0.230 C 
ATOM     10  C   UNL     1      34.229 -20.355 -20.435  0.00  0.00    +0.058 C 
ATOM     11  C   UNL     1      34.225 -22.044 -18.722  0.00  0.00    +0.091 C 
ATOM     12  C   UNL     1      33.532 -21.243 -19.622  0.00  0.00    +0.010 C 
ATOM     13  C   UNL     1      35.604 -21.920 -18.671  0.00  0.00    +0.106 C 
BRANCH  11  17
ATOM     14  F   UNL     1      32.195 -22.683 -17.628  0.00  0.00    -0.166 F 
ATOM     15  F   UNL     1      33.483 -24.283 -18.326  0.00  0.00    -0.166 F 
ATOM     16  F   UNL     1      34.064 -23.099 -16.597  0.00  0.00    -0.166 F 
ATOM     17  C   UNL     1      33.507 -23.005 -17.841  0.00  0.00    +0.420 C 
ENDBRANCH  11  17
ENDBRANCH   7   9
ENDBRANCH   4   7
BRANCH   1  18
ATOM     18  C   UNL     1      34.868 -15.114 -22.908  0.00  0.00    +0.027 C 
BRANCH  18  21
ATOM     19  O   UNL     1      31.997 -11.307 -19.005  0.00  0.00    -0.226 OA
ATOM     20  N   UNL     1      32.007 -12.573 -20.957  0.00  0.00    -0.246 N 
ATOM     21  C   UNL     1      33.546 -14.606 -22.339  0.00  0.00    +0.008 C 
ATOM     22  C   UNL     1      33.645 -14.404 -20.818  0.00  0.00    +0.022 C 
ATOM     23  C   UNL     1      33.121 -13.298 -23.027  0.00  0.00    +0.022 C 
ATOM     24  C   UNL     1      32.356 -13.810 -20.253  0.00  0.00    +0.097 C 
ATOM     25  C   UNL     1      31.842 -12.739 -22.407  0.00  0.00    +0.097 C 
ATOM     26  C   UNL     1      31.856 -11.391 -20.225  0.00  0.00    +0.402 C 
BRANCH  26  27
ATOM     27  O   UNL     1      31.540 -10.272 -20.939  0.00  0.00    -0.466 OA
ATOM     28  H   UNL     1      31.911  -9.446 -20.702  0.00  0.00    +0.297 HD
ENDBRANCH  26  27
ENDBRANCH  18  21
ENDBRANCH   1  18
TORSDOF 6
ENDMDL
MODEL 3
REMARK VINA RESULT:     -11.3      4.987      8.637
REMARK  Name = 25243828
REMARK  6 active torsions:
REMARK  status: ('A' for Active; 'I' for Inactive)
REMARK    1  A    between atoms: C_1  and  C_18
REMARK    2  A    between atoms: C_4  and  O_7
REMARK    3  A    between atoms: O_7  and  C_9
REMARK    4  A    between atoms: C_11  and  C_17
REMARK    5  A    between atoms: C_18  and  C_21
REMARK    6  A    between atoms: C_26  and  O_27
REMARK                            x       y       z     vdW  Elec       q    Type
REMARK                         _______ _______ _______ _____ _____    ______ ____
ROOT
ATOM      1  C   UNL     1      35.251 -18.624 -22.075  0.00  0.00    -0.019 C 
ATOM      2  C   UNL     1      35.452 -17.251 -22.216  0.00  0.00    +0.033 C 
ATOM      3  C   UNL     1      34.576 -19.336 -23.067  0.00  0.00    -0.004 C 
ATOM      4  C   UNL     1      34.977 -16.590 -23.348  0.00  0.00    +0.147 C 
ATOM      5  C   UNL     1      34.101 -18.675 -24.200  0.00  0.00    +0.003 C 
ATOM      6  C   UNL     1      34.302 -17.301 -24.341  0.00  0.00    +0.038 C 
ENDROOT
BRANCH   4   7
ATOM      7  O   UNL     1      35.171 -15.250 -23.486  0.00  0.00    -0.436 OA
BRANCH   7   9
ATOM      8  N   UNL     1      33.813 -13.353 -23.454  0.00  0.00    -0.210 NA
ATOM      9  C   UNL     1      34.334 -14.402 -22.779  0.00  0.00    +0.230 C 
ATOM     10  C   UNL     1      34.080 -14.669 -21.444  0.00  0.00    +0.058 C 
ATOM     11  C   UNL     1      32.678 -12.714 -21.417  0.00  0.00    +0.091 C 
ATOM     12  C   UNL     1      33.234 -13.804 -20.757  0.00  0.00    +0.010 C 
ATOM     13  C   UNL     1      32.996 -12.534 -22.754  0.00  0.00    +0.106 C 
BRANCH  11  17
ATOM     14  F   UNL     1      30.451 -11.932 -21.027  0.00  0.00    -0.166 F 
ATOM     15  F   UNL     1      31.823 -11.876 -19.347  0.00  0.00    -0.166 F 
ATOM     16  F   UNL     1      32.052 -10.462 -20.983  0.00  0.00    -0.166 F 
ATOM     17  C   UNL     1      31.772 -11.770 -20.709  0.00  0.00    +0.420 C 
ENDBRANCH  11  17
ENDBRANCH   7   9
ENDBRANCH   4   7
BRANCH   1  18
ATOM     18  C   UNL     1      35.760 -19.339 -20.854  0.00  0.00    +0.027 C 
BRANCH  18  21
ATOM     19  O   UNL     1      33.734 -23.502 -16.787  0.00  0.00    -0.226 OA
ATOM     20  N   UNL     1      33.555 -22.428 -18.843  0.00  0.00    -0.246 N 
ATOM     21  C   UNL     1      35.005 -20.644 -20.609  0.00  0.00    +0.008 C 
ATOM     22  C   UNL     1      35.720 -21.500 -19.552  0.00  0.00    +0.022 C 
ATOM     23  C   UNL     1      33.555 -20.365 -20.183  0.00  0.00    +0.022 C 
ATOM     24  C   UNL     1      34.926 -22.766 -19.234  0.00  0.00    +0.097 C 
ATOM     25  C   UNL     1      32.817 -21.662 -19.857  0.00  0.00    +0.097 C 
ATOM     26  C   UNL     1      33.076 -22.851 -17.599  0.00  0.00    +0.402 C 
BRANCH  26  27
ATOM     27  O   UNL     1      31.796 -22.498 -17.290  0.00  0.00    -0.466 OA
ATOM     28  H   UNL     1      31.218 -23.126 -16.904  0.00  0.00    +0.297 HD
ENDBRANCH  26  27
ENDBRANCH  18  21
ENDBRANCH   1  18
TORSDOF 6
ENDMDL
MODEL 4
REMARK VINA RESULT:     -10.9      3.773      5.645
REMARK  Name = 25243828
REMARK  6 active torsions:
REMARK  status: ('A' for Active; 'I' for Inactive)
REMARK    1  A    between atoms: C_1  and  C_18
REMARK    2  A    between atoms: C_4  and  O_7
REMARK    3  A    between atoms: O_7  and  C_9
REMARK    4  A    between atoms: C_11  and  C_17
REMARK    5  A    between atoms: C_18  and  C_21
REMARK    6  A    between atoms: C_26  and  O_27
REMARK                            x       y       z     vdW  Elec       q    Type
REMARK                         _______ _______ _______ _____ _____    ______ ____
ROOT
ATOM      1  C   UNL     1      34.474 -21.895 -19.072  0.00  0.00    -0.019 C 
ATOM      2  C   UNL     1      35.400 -21.083 -19.727  0.00  0.00    +0.033 C 
ATOM      3  C   UNL     1      33.111 -21.748 -19.329  0.00  0.00    -0.004 C 
ATOM      4  C   UNL     1      34.962 -20.122 -20.639  0.00  0.00    +0.147 C 
ATOM      5  C   UNL     1      32.673 -20.787 -20.241  0.00  0.00    +0.003 C 
ATOM      6  C   UNL     1      33.599 -19.974 -20.897  0.00  0.00    +0.038 C 
ENDROOT
BRANCH   4   7
ATOM      7  O   UNL     1      35.864 -19.327 -21.277  0.00  0.00    -0.436 OA
BRANCH   7   9
ATOM      8  N   UNL     1      35.223 -17.130 -20.827  0.00  0.00    -0.210 NA
ATOM      9  C   UNL     1      35.424 -18.101 -21.746  0.00  0.00    +0.230 C 
ATOM     10  C   UNL     1      35.217 -17.937 -23.106  0.00  0.00    +0.058 C 
ATOM     11  C   UNL     1      34.561 -15.671 -22.637  0.00  0.00    +0.091 C 
ATOM     12  C   UNL     1      34.778 -16.694 -23.552  0.00  0.00    +0.010 C 
ATOM     13  C   UNL     1      34.796 -15.936 -21.298  0.00  0.00    +0.106 C 
BRANCH  11  17
ATOM     14  F   UNL     1      34.729 -13.290 -22.470  0.00  0.00    -0.166 F 
ATOM     15  F   UNL     1      34.254 -14.109 -24.422  0.00  0.00    -0.166 F 
ATOM     16  F   UNL     1      32.759 -14.132 -22.843  0.00  0.00    -0.166 F 
ATOM     17  C   UNL     1      34.089 -14.332 -23.083  0.00  0.00    +0.420 C 
ENDBRANCH  11  17
ENDBRANCH   7   9
ENDBRANCH   4   7
BRANCH   1  18
ATOM     18  C   UNL     1      34.945 -22.929 -18.087  0.00  0.00    +0.027 C 
BRANCH  18  21
ATOM     19  O   UNL     1      31.895 -25.702 -13.506  0.00  0.00    -0.226 OA
ATOM     20  N   UNL     1      33.232 -23.965 -14.286  0.00  0.00    -0.246 N 
ATOM     21  C   UNL     1      34.231 -22.794 -16.744  0.00  0.00    +0.008 C 
ATOM     22  C   UNL     1      32.957 -23.654 -16.711  0.00  0.00    +0.022 C 
ATOM     23  C   UNL     1      35.167 -23.177 -15.586  0.00  0.00    +0.022 C 
ATOM     24  C   UNL     1      32.284 -23.597 -15.341  0.00  0.00    +0.097 C 
ATOM     25  C   UNL     1      34.436 -23.123 -14.246  0.00  0.00    +0.097 C 
ATOM     26  C   UNL     1      32.926 -25.032 -13.435  0.00  0.00    +0.402 C 
BRANCH  26  27
ATOM     27  O   UNL     1      33.852 -25.331 -12.480  0.00  0.00    -0.466 OA
ATOM     28  H   UNL     1      34.617 -25.822 -12.708  0.00  0.00    +0.297 HD
ENDBRANCH  26  27
ENDBRANCH  18  21
ENDBRANCH   1  18
TORSDOF 6
ENDMDL
MODEL 5
REMARK VINA RESULT:     -10.7      4.438      7.628
REMARK  Name = 25243828
REMARK  6 active torsions:
REMARK  status: ('A' for Active; 'I' for Inactive)
REMARK    1  A    between atoms: C_1  and  C_18
REMARK    2  A    between atoms: C_4  and  O_7
REMARK    3  A    between atoms: O_7  and  C_9
REMARK    4  A    between atoms: C_11  and  C_17
REMARK    5  A    between atoms: C_18  and  C_21
REMARK    6  A    between atoms: C_26  and  O_27
REMARK                            x       y       z     vdW  Elec       q    Type
REMARK                         _______ _______ _______ _____ _____    ______ ____
ROOT
ATOM      1  C   UNL     1      36.670 -23.281 -15.075  0.00  0.00    -0.019 C 
ATOM      2  C   UNL     1      35.537 -23.163 -14.270  0.00  0.00    +0.033 C 
ATOM      3  C   UNL     1      37.468 -24.423 -14.994  0.00  0.00    -0.004 C 
ATOM      4  C   UNL     1      35.202 -24.187 -13.383  0.00  0.00    +0.147 C 
ATOM      5  C   UNL     1      37.133 -25.446 -14.107  0.00  0.00    +0.003 C 
ATOM      6  C   UNL     1      36.000 -25.329 -13.302  0.00  0.00    +0.038 C 
ENDROOT
BRANCH   4   7
ATOM      7  O   UNL     1      34.098 -24.072 -12.596  0.00  0.00    -0.436 OA
BRANCH   7   9
ATOM      8  N   UNL     1      32.109 -25.280 -12.764  0.00  0.00    -0.210 NA
ATOM      9  C   UNL     1      32.860 -24.241 -13.193  0.00  0.00    +0.230 C 
ATOM     10  C   UNL     1      32.463 -23.352 -14.179  0.00  0.00    +0.058 C 
ATOM     11  C   UNL     1      30.413 -24.599 -14.346  0.00  0.00    +0.091 C 
ATOM     12  C   UNL     1      31.214 -23.541 -14.762  0.00  0.00    +0.010 C 
ATOM     13  C   UNL     1      30.902 -25.432 -13.353  0.00  0.00    +0.106 C 
BRANCH  11  17
ATOM     14  F   UNL     1      28.286 -23.711 -14.987  0.00  0.00    -0.166 F 
ATOM     15  F   UNL     1      29.122 -25.268 -16.246  0.00  0.00    -0.166 F 
ATOM     16  F   UNL     1      28.342 -25.766 -14.278  0.00  0.00    -0.166 F 
ATOM     17  C   UNL     1      29.073 -24.829 -14.951  0.00  0.00    +0.420 C 
ENDBRANCH  11  17
ENDBRANCH   7   9
ENDBRANCH   4   7
BRANCH   1  18
ATOM     18  C   UNL     1      37.033 -22.178 -16.030  0.00  0.00    +0.027 C 
BRANCH  18  21
ATOM     19  O   UNL     1      32.423 -20.965 -19.935  0.00  0.00    -0.226 OA
ATOM     20  N   UNL     1      34.633 -21.576 -19.541  0.00  0.00    -0.246 N 
ATOM     21  C   UNL     1      36.417 -22.401 -17.409  0.00  0.00    +0.008 C 
ATOM     22  C   UNL     1      34.893 -22.574 -17.307  0.00  0.00    +0.022 C 
ATOM     23  C   UNL     1      36.764 -21.241 -18.357  0.00  0.00    +0.022 C 
ATOM     24  C   UNL     1      34.256 -22.708 -18.690  0.00  0.00    +0.097 C 
ATOM     25  C   UNL     1      36.083 -21.417 -19.714  0.00  0.00    +0.097 C 
ATOM     26  C   UNL     1      33.629 -20.782 -20.104  0.00  0.00    +0.402 C 
BRANCH  26  27
ATOM     27  O   UNL     1      34.043 -19.739 -20.879  0.00  0.00    -0.466 OA
ATOM     28  H   UNL     1      33.432 -19.081 -21.144  0.00  0.00    +0.297 HD
ENDBRANCH  26  27
ENDBRANCH  18  21
ENDBRANCH   1  18
TORSDOF 6
ENDMDL
MODEL 6
REMARK VINA RESULT:     -10.4     10.852     14.324
REMARK  Name = 25243828
REMARK  6 active torsions:
REMARK  status: ('A' for Active; 'I' for Inactive)
REMARK    1  A    between atoms: C_1  and  C_18
REMARK    2  A    between atoms: C_4  and  O_7
REMARK    3  A    between atoms: O_7  and  C_9
REMARK    4  A    between atoms: C_11  and  C_17
REMARK    5  A    between atoms: C_18  and  C_21
REMARK    6  A    between atoms: C_26  and  O_27
REMARK                            x       y       z     vdW  Elec       q    Type
REMARK                         _______ _______ _______ _____ _____    ______ ____
ROOT
ATOM      1  C   UNL     1      31.653 -11.233 -20.624  0.00  0.00    -0.019 C 
ATOM      2  C   UNL     1      31.534 -10.024 -21.307  0.00  0.00    +0.033 C 
ATOM      3  C   UNL     1      31.895 -11.238 -19.250  0.00  0.00    -0.004 C 
ATOM      4  C   UNL     1      31.659  -8.817 -20.618  0.00  0.00    +0.147 C 
ATOM      5  C   UNL     1      32.020 -10.032 -18.560  0.00  0.00    +0.003 C 
ATOM      6  C   UNL     1      31.902  -8.821 -19.244  0.00  0.00    +0.038 C 
ENDROOT
BRANCH   4   7
ATOM      7  O   UNL     1      31.546  -7.636 -21.284  0.00  0.00    -0.436 OA
BRANCH   7   9
ATOM      8  N   UNL     1      31.856  -7.267 -23.567  0.00  0.00    -0.210 NA
ATOM      9  C   UNL     1      32.411  -7.408 -22.342  0.00  0.00    +0.230 C 
ATOM     10  C   UNL     1      33.772  -7.337 -22.094  0.00  0.00    +0.058 C 
ATOM     11  C   UNL     1      34.084  -6.953 -24.448  0.00  0.00    +0.091 C 
ATOM     12  C   UNL     1      34.618  -7.104 -23.173  0.00  0.00    +0.010 C 
ATOM     13  C   UNL     1      32.709  -7.043 -24.591  0.00  0.00    +0.106 C 
BRANCH  11  17
ATOM     14  F   UNL     1      35.731  -7.781 -25.973  0.00  0.00    -0.166 F 
ATOM     15  F   UNL     1      34.282  -6.373 -26.760  0.00  0.00    -0.166 F 
ATOM     16  F   UNL     1      35.846  -5.683 -25.417  0.00  0.00    -0.166 F 
ATOM     17  C   UNL     1      34.964  -6.705 -25.623  0.00  0.00    +0.420 C 
ENDBRANCH  11  17
ENDBRANCH   7   9
ENDBRANCH   4   7
BRANCH   1  18
ATOM     18  C   UNL     1      31.520 -12.534 -21.366  0.00  0.00    +0.027 C 
BRANCH  18  21
ATOM     19  O   UNL     1      34.962 -17.354 -23.068  0.00  0.00    -0.226 OA
ATOM     20  N   UNL     1      34.489 -15.077 -23.147  0.00  0.00    -0.246 N 
ATOM     21  C   UNL     1      32.874 -13.046 -21.852  0.00  0.00    +0.008 C 
ATOM     22  C   UNL     1      33.249 -14.359 -21.146  0.00  0.00    +0.022 C 
ATOM     23  C   UNL     1      32.870 -13.239 -23.377  0.00  0.00    +0.022 C 
ATOM     24  C   UNL     1      34.559 -14.927 -21.691  0.00  0.00    +0.097 C 
ATOM     25  C   UNL     1      34.194 -13.828 -23.861  0.00  0.00    +0.097 C 
ATOM     26  C   UNL     1      34.708 -16.337 -23.713  0.00  0.00    +0.402 C 
BRANCH  26  27
ATOM     27  O   UNL     1      34.620 -16.413 -25.072  0.00  0.00    -0.466 OA
ATOM     28  H   UNL     1      35.399 -16.475 -25.589  0.00  0.00    +0.297 HD
ENDBRANCH  26  27
ENDBRANCH  18  21
ENDBRANCH   1  18
TORSDOF 6
ENDMDL
MODEL 7
REMARK VINA RESULT:     -10.3      5.033      9.417
REMARK  Name = 25243828
REMARK  6 active torsions:
REMARK  status: ('A' for Active; 'I' for Inactive)
REMARK    1  A    between atoms: C_1  and  C_18
REMARK    2  A    between atoms: C_4  and  O_7
REMARK    3  A    between atoms: O_7  and  C_9
REMARK    4  A    between atoms: C_11  and  C_17
REMARK    5  A    between atoms: C_18  and  C_21
REMARK    6  A    between atoms: C_26  and  O_27
REMARK                            x       y       z     vdW  Elec       q    Type
REMARK                         _______ _______ _______ _____ _____    ______ ____
ROOT
ATOM      1  C   UNL     1      34.615 -21.312 -19.525  0.00  0.00    -0.019 C 
ATOM      2  C   UNL     1      33.982 -22.123 -18.584  0.00  0.00    +0.033 C 
ATOM      3  C   UNL     1      35.994 -21.109 -19.457  0.00  0.00    -0.004 C 
ATOM      4  C   UNL     1      34.727 -22.731 -17.573  0.00  0.00    +0.147 C 
ATOM      5  C   UNL     1      36.739 -21.716 -18.446  0.00  0.00    +0.003 C 
ATOM      6  C   UNL     1      36.105 -22.528 -17.504  0.00  0.00    +0.038 C 
ENDROOT
BRANCH   4   7
ATOM      7  O   UNL     1      34.109 -23.521 -16.653  0.00  0.00    -0.436 OA
BRANCH   7   9
ATOM      8  N   UNL     1      35.249 -25.246 -15.573  0.00  0.00    -0.210 NA
ATOM      9  C   UNL     1      34.856 -23.953 -15.570  0.00  0.00    +0.230 C 
ATOM     10  C   UNL     1      35.158 -23.053 -14.560  0.00  0.00    +0.058 C 
ATOM     11  C   UNL     1      36.334 -24.836 -13.453  0.00  0.00    +0.091 C 
ATOM     12  C   UNL     1      35.913 -23.511 -13.484  0.00  0.00    +0.010 C 
ATOM     13  C   UNL     1      35.979 -25.656 -14.512  0.00  0.00    +0.106 C 
BRANCH  11  17
ATOM     14  F   UNL     1      36.866 -24.747 -11.122  0.00  0.00    -0.166 F 
ATOM     15  F   UNL     1      36.961 -26.692 -12.080  0.00  0.00    -0.166 F 
ATOM     16  F   UNL     1      38.484 -25.198 -12.503  0.00  0.00    -0.166 F 
ATOM     17  C   UNL     1      37.140 -25.356 -12.315  0.00  0.00    +0.420 C 
ENDBRANCH  11  17
ENDBRANCH   7   9
ENDBRANCH   4   7
BRANCH   1  18
ATOM     18  C   UNL     1      33.813 -20.654 -20.614  0.00  0.00    +0.027 C 
BRANCH  18  21
ATOM     19  O   UNL     1      34.135 -16.512 -25.166  0.00  0.00    -0.226 OA
ATOM     20  N   UNL     1      35.059 -17.534 -23.291  0.00  0.00    -0.246 N 
ATOM     21  C   UNL     1      34.695 -19.811 -21.532  0.00  0.00    +0.008 C 
ATOM     22  C   UNL     1      34.134 -19.791 -22.963  0.00  0.00    +0.022 C 
ATOM     23  C   UNL     1      34.836 -18.379 -20.990  0.00  0.00    +0.022 C 
ATOM     24  C   UNL     1      34.958 -18.877 -23.869  0.00  0.00    +0.097 C 
ATOM     25  C   UNL     1      35.649 -17.507 -21.946  0.00  0.00    +0.097 C 
ATOM     26  C   UNL     1      34.615 -16.436 -24.035  0.00  0.00    +0.402 C 
BRANCH  26  27
ATOM     27  O   UNL     1      34.727 -15.215 -23.438  0.00  0.00    -0.466 OA
ATOM     28  H   UNL     1      33.967 -14.796 -23.085  0.00  0.00    +0.297 HD
ENDBRANCH  26  27
ENDBRANCH  18  21
ENDBRANCH   1  18
TORSDOF 6
ENDMDL
MODEL 8
REMARK VINA RESULT:     -10.2      4.812      9.323
REMARK  Name = 25243828
REMARK  6 active torsions:
REMARK  status: ('A' for Active; 'I' for Inactive)
REMARK    1  A    between atoms: C_1  and  C_18
REMARK    2  A    between atoms: C_4  and  O_7
REMARK    3  A    between atoms: O_7  and  C_9
REMARK    4  A    between atoms: C_11  and  C_17
REMARK    5  A    between atoms: C_18  and  C_21
REMARK    6  A    between atoms: C_26  and  O_27
REMARK                            x       y       z     vdW  Elec       q    Type
REMARK                         _______ _______ _______ _____ _____    ______ ____
ROOT
ATOM      1  C   UNL     1      34.726 -20.868 -19.965  0.00  0.00    -0.019 C 
ATOM      2  C   UNL     1      34.295 -21.998 -19.270  0.00  0.00    +0.033 C 
ATOM      3  C   UNL     1      35.991 -20.334 -19.714  0.00  0.00    -0.004 C 
ATOM      4  C   UNL     1      35.129 -22.594 -18.324  0.00  0.00    +0.147 C 
ATOM      5  C   UNL     1      36.824 -20.931 -18.768  0.00  0.00    +0.003 C 
ATOM      6  C   UNL     1      36.393 -22.061 -18.073  0.00  0.00    +0.038 C 
ENDROOT
BRANCH   4   7
ATOM      7  O   UNL     1      34.708 -23.695 -17.644  0.00  0.00    -0.436 OA
BRANCH   7   9
ATOM      8  N   UNL     1      32.419 -23.324 -17.396  0.00  0.00    -0.210 NA
ATOM      9  C   UNL     1      33.613 -23.557 -16.807  0.00  0.00    +0.230 C 
ATOM     10  C   UNL     1      33.795 -23.665 -15.438  0.00  0.00    +0.058 C 
ATOM     11  C   UNL     1      31.434 -23.284 -15.189  0.00  0.00    +0.091 C 
ATOM     12  C   UNL     1      32.679 -23.525 -14.620  0.00  0.00    +0.010 C 
ATOM     13  C   UNL     1      31.357 -23.193 -16.569  0.00  0.00    +0.106 C 
BRANCH  11  17
ATOM     14  F   UNL     1      29.586 -21.928 -14.503  0.00  0.00    -0.166 F 
ATOM     15  F   UNL     1      29.259 -24.071 -14.577  0.00  0.00    -0.166 F 
ATOM     16  F   UNL     1      30.495 -23.215 -13.005  0.00  0.00    -0.166 F 
ATOM     17  C   UNL     1      30.221 -23.128 -14.340  0.00  0.00    +0.420 C 
ENDBRANCH  11  17
ENDBRANCH   7   9
ENDBRANCH   4   7
BRANCH   1  18
ATOM     18  C   UNL     1      33.828 -20.222 -20.984  0.00  0.00    +0.027 C 
BRANCH  18  21
ATOM     19  O   UNL     1      33.676 -16.051 -25.518  0.00  0.00    -0.226 OA
ATOM     20  N   UNL     1      34.743 -17.011 -23.687  0.00  0.00    -0.246 N 
ATOM     21  C   UNL     1      34.611 -19.315 -21.930  0.00  0.00    +0.008 C 
ATOM     22  C   UNL     1      33.995 -19.329 -23.338  0.00  0.00    +0.022 C 
ATOM     23  C   UNL     1      34.671 -17.878 -21.385  0.00  0.00    +0.022 C 
ATOM     24  C   UNL     1      34.716 -18.356 -24.269  0.00  0.00    +0.097 C 
ATOM     25  C   UNL     1      35.382 -16.947 -22.366  0.00  0.00    +0.097 C 
ATOM     26  C   UNL     1      34.193 -15.945 -24.406  0.00  0.00    +0.402 C 
BRANCH  26  27
ATOM     27  O   UNL     1      34.241 -14.721 -23.806  0.00  0.00    -0.466 OA
ATOM     28  H   UNL     1      33.552 -14.103 -23.950  0.00  0.00    +0.297 HD
ENDBRANCH  26  27
ENDBRANCH  18  21
ENDBRANCH   1  18
TORSDOF 6
ENDMDL
MODEL 9
REMARK VINA RESULT:     -10.1      5.158      9.469
REMARK  Name = 25243828
REMARK  6 active torsions:
REMARK  status: ('A' for Active; 'I' for Inactive)
REMARK    1  A    between atoms: C_1  and  C_18
REMARK    2  A    between atoms: C_4  and  O_7
REMARK    3  A    between atoms: O_7  and  C_9
REMARK    4  A    between atoms: C_11  and  C_17
REMARK    5  A    between atoms: C_18  and  C_21
REMARK    6  A    between atoms: C_26  and  O_27
REMARK                            x       y       z     vdW  Elec       q    Type
REMARK                         _______ _______ _______ _____ _____    ______ ____
ROOT
ATOM      1  C   UNL     1      35.951 -21.433 -19.444  0.00  0.00    -0.019 C 
ATOM      2  C   UNL     1      36.734 -21.334 -18.294  0.00  0.00    +0.033 C 
ATOM      3  C   UNL     1      34.751 -22.143 -19.413  0.00  0.00    -0.004 C 
ATOM      4  C   UNL     1      36.316 -21.946 -17.112  0.00  0.00    +0.147 C 
ATOM      5  C   UNL     1      34.333 -22.755 -18.231  0.00  0.00    +0.003 C 
ATOM      6  C   UNL     1      35.115 -22.656 -17.079  0.00  0.00    +0.038 C 
ENDROOT
BRANCH   4   7
ATOM      7  O   UNL     1      37.080 -21.852 -15.989  0.00  0.00    -0.436 OA
BRANCH   7   9
ATOM      8  N   UNL     1      38.229 -23.722 -15.199  0.00  0.00    -0.210 NA
ATOM      9  C   UNL     1      37.122 -22.949 -15.144  0.00  0.00    +0.230 C 
ATOM     10  C   UNL     1      36.048 -23.190 -14.303  0.00  0.00    +0.058 C 
ATOM     11  C   UNL     1      37.239 -25.116 -13.490  0.00  0.00    +0.091 C 
ATOM     12  C   UNL     1      36.116 -24.296 -13.462  0.00  0.00    +0.010 C 
ATOM     13  C   UNL     1      38.259 -24.789 -14.368  0.00  0.00    +0.106 C 
BRANCH  11  17
ATOM     14  F   UNL     1      36.495 -26.269 -11.530  0.00  0.00    -0.166 F 
ATOM     15  F   UNL     1      37.055 -27.487 -13.236  0.00  0.00    -0.166 F 
ATOM     16  F   UNL     1      38.589 -26.470 -12.077  0.00  0.00    -0.166 F 
ATOM     17  C   UNL     1      37.340 -26.307 -12.605  0.00  0.00    +0.420 C 
ENDBRANCH  11  17
ENDBRANCH   7   9
ENDBRANCH   4   7
BRANCH   1  18
ATOM     18  C   UNL     1      36.401 -20.776 -20.720  0.00  0.00    +0.027 C 
BRANCH  18  21
ATOM     19  O   UNL     1      35.394 -15.350 -23.461  0.00  0.00    -0.226 OA
ATOM     20  N   UNL     1      34.689 -17.495 -22.900  0.00  0.00    -0.246 N 
ATOM     21  C   UNL     1      35.386 -19.747 -21.211  0.00  0.00    +0.008 C 
ATOM     22  C   UNL     1      35.858 -18.318 -20.898  0.00  0.00    +0.022 C 
ATOM     23  C   UNL     1      35.130 -19.909 -22.719  0.00  0.00    +0.022 C 
ATOM     24  C   UNL     1      34.893 -17.278 -21.466  0.00  0.00    +0.097 C 
ATOM     25  C   UNL     1      34.177 -18.831 -23.234  0.00  0.00    +0.097 C 
ATOM     26  C   UNL     1      34.974 -16.458 -23.794  0.00  0.00    +0.402 C 
BRANCH  26  27
ATOM     27  O   UNL     1      34.772 -16.725 -25.117  0.00  0.00    -0.466 OA
ATOM     28  H   UNL     1      34.199 -17.421 -25.371  0.00  0.00    +0.297 HD
ENDBRANCH  26  27
ENDBRANCH  18  21
ENDBRANCH   1  18
TORSDOF 6
ENDMDL
