MODEL 1
REMARK VINA RESULT:     -12.2      0.000      0.000
REMARK  Name = 54576693
REMARK  3 active torsions:
REMARK  status: ('A' for Active; 'I' for Inactive)
REMARK    1  A    between atoms: N_2  and  C_19
REMARK    2  A    between atoms: N_4  and  C_14
REMARK    3  A    between atoms: C_19  and  C_24
REMARK                            x       y       z     vdW  Elec       q    Type
REMARK                         _______ _______ _______ _____ _____    ______ ____
ROOT
ATOM      1  O   UNL     1      31.983 -22.531 -17.785  0.00  0.00    -0.252 OA
ATOM      2  N   UNL     1      35.255 -20.299 -20.814  0.00  0.00    +0.392 N 
ATOM      3  N   UNL     1      33.890 -22.076 -19.012  0.00  0.00    -0.268 N 
ATOM      4  N   UNL     1      33.991 -23.492 -17.126  0.00  0.00    -0.266 N 
ATOM      5  C   UNL     1      33.916 -19.964 -20.313  0.00  0.00    -0.055 C 
ATOM      6  C   UNL     1      36.009 -21.030 -19.787  0.00  0.00    -0.055 C 
ATOM      7  C   UNL     1      35.292 -22.320 -19.378  0.00  0.00    +0.072 C 
ATOM      8  C   UNL     1      33.149 -21.234 -19.953  0.00  0.00    +0.072 C 
ATOM      9  C   UNL     1      33.196 -22.688 -17.945  0.00  0.00    +0.308 C 
ATOM     10  H   UNL     1      35.157 -20.898 -21.635  0.00  0.00    -0.079 HD
ATOM     11  H   UNL     1      34.761 -23.928 -17.558  0.00  0.00    +0.156 HD
ENDROOT
BRANCH   4  14
ATOM     12 CL   UNL     1      36.507 -23.554 -15.373  0.00  0.00    -0.081 Cl
ATOM     13  N   UNL     1      32.269 -24.218 -13.944  0.00  0.00    -0.241 NA
ATOM     14  C   UNL     1      33.813 -23.751 -15.745  0.00  0.00    +0.082 C 
ATOM     15  C   UNL     1      34.880 -23.803 -14.853  0.00  0.00    +0.074 C 
ATOM     16  C   UNL     1      32.539 -23.963 -15.243  0.00  0.00    +0.114 C 
ATOM     17  C   UNL     1      34.642 -24.063 -13.508  0.00  0.00    +0.033 C 
ATOM     18  C   UNL     1      33.330 -24.261 -13.108  0.00  0.00    +0.100 C 
ENDBRANCH   4  14
BRANCH   2  19
ATOM     19  C   UNL     1      35.972 -19.089 -21.214  0.00  0.00    -0.050 C 
BRANCH  19  24
ATOM     20  F   UNL     1      32.485 -14.409 -24.639  0.00  0.00    -0.125 F 
ATOM     21  F   UNL     1      34.384 -14.294 -25.721  0.00  0.00    -0.125 F 
ATOM     22  O   UNL     1      34.388 -15.040 -23.579  0.00  0.00    -0.395 OA
ATOM     23  O   UNL     1      33.436 -16.326 -25.388  0.00  0.00    -0.395 OA
ATOM     24  C   UNL     1      35.283 -18.380 -22.350  0.00  0.00    -0.040 C 
ATOM     25  C   UNL     1      35.203 -16.986 -22.349  0.00  0.00    +0.034 C 
ATOM     26  C   UNL     1      34.729 -19.129 -23.403  0.00  0.00    -0.003 C 
ATOM     27  C   UNL     1      34.563 -16.380 -23.411  0.00  0.00    +0.181 C 
ATOM     28  C   UNL     1      34.019 -17.114 -24.443  0.00  0.00    +0.182 C 
ATOM     29  C   UNL     1      34.087 -18.492 -24.468  0.00  0.00    +0.040 C 
ATOM     30  C   UNL     1      33.677 -15.029 -24.827  0.00  0.00    +0.589 C 
ENDBRANCH  19  24
ENDBRANCH   2  19
TORSDOF 3
ENDMDL
MODEL 2
REMARK VINA RESULT:     -12.1      5.053      9.507
REMARK  Name = 54576693
REMARK  3 active torsions:
REMARK  status: ('A' for Active; 'I' for Inactive)
REMARK    1  A    between atoms: N_2  and  C_19
REMARK    2  A    between atoms: N_4  and  C_14
REMARK    3  A    between atoms: C_19  and  C_24
REMARK                            x       y       z     vdW  Elec       q    Type
REMARK                         _______ _______ _______ _____ _____    ______ ____
ROOT
ATOM      1  O   UNL     1      37.198 -21.627 -17.234  0.00  0.00    -0.252 OA
ATOM      2  N   UNL     1      33.697 -24.027 -14.617  0.00  0.00    +0.392 N 
ATOM      3  N   UNL     1      35.369 -22.933 -16.684  0.00  0.00    -0.268 N 
ATOM      4  N   UNL     1      35.537 -21.948 -18.823  0.00  0.00    -0.266 N 
ATOM      5  C   UNL     1      34.811 -23.133 -14.275  0.00  0.00    -0.055 C 
ATOM      6  C   UNL     1      33.114 -23.635 -15.907  0.00  0.00    -0.055 C 
ATOM      7  C   UNL     1      34.155 -23.684 -17.030  0.00  0.00    +0.072 C 
ATOM      8  C   UNL     1      35.898 -23.204 -15.346  0.00  0.00    +0.072 C 
ATOM      9  C   UNL     1      36.116 -22.117 -17.564  0.00  0.00    +0.308 C 
ATOM     10  H   UNL     1      34.054 -24.980 -14.696  0.00  0.00    -0.079 HD
ATOM     11  H   UNL     1      34.985 -22.694 -19.153  0.00  0.00    +0.156 HD
ENDROOT
BRANCH   4  14
ATOM     12 CL   UNL     1      32.980 -20.952 -20.193  0.00  0.00    -0.081 Cl
ATOM     13  N   UNL     1      37.103 -19.155 -20.655  0.00  0.00    -0.241 NA
ATOM     14  C   UNL     1      35.654 -20.824 -19.677  0.00  0.00    +0.082 C 
ATOM     15  C   UNL     1      34.564 -20.284 -20.352  0.00  0.00    +0.074 C 
ATOM     16  C   UNL     1      36.890 -20.227 -19.862  0.00  0.00    +0.114 C 
ATOM     17  C   UNL     1      34.743 -19.180 -21.179  0.00  0.00    +0.033 C 
ATOM     18  C   UNL     1      36.020 -18.657 -21.295  0.00  0.00    +0.100 C 
ENDBRANCH   4  14
BRANCH   2  19
ATOM     19  C   UNL     1      32.681 -24.006 -13.566  0.00  0.00    -0.050 C 
BRANCH  19  24
ATOM     20  F   UNL     1      26.271 -22.426 -15.052  0.00  0.00    -0.125 F 
ATOM     21  F   UNL     1      27.096 -22.488 -17.078  0.00  0.00    -0.125 F 
ATOM     22  O   UNL     1      28.490 -22.060 -15.342  0.00  0.00    -0.395 OA
ATOM     23  O   UNL     1      27.489 -24.231 -15.682  0.00  0.00    -0.395 OA
ATOM     24  C   UNL     1      31.289 -24.103 -14.132  0.00  0.00    -0.040 C 
ATOM     25  C   UNL     1      30.589 -22.938 -14.455  0.00  0.00    +0.034 C 
ATOM     26  C   UNL     1      30.706 -25.367 -14.330  0.00  0.00    -0.003 C 
ATOM     27  C   UNL     1      29.317 -23.077 -14.971  0.00  0.00    +0.181 C 
ATOM     28  C   UNL     1      28.746 -24.316 -15.166  0.00  0.00    +0.182 C 
ATOM     29  C   UNL     1      29.416 -25.481 -14.855  0.00  0.00    +0.040 C 
ATOM     30  C   UNL     1      27.347 -22.808 -15.784  0.00  0.00    +0.589 C 
ENDBRANCH  19  24
ENDBRANCH   2  19
TORSDOF 3
ENDMDL
MODEL 3
REMARK VINA RESULT:     -11.1      5.902     10.901
REMARK  Name = 54576693
REMARK  3 active torsions:
REMARK  status: ('A' for Active; 'I' for Inactive)
REMARK    1  A    between atoms: N_2  and  C_19
REMARK    2  A    between atoms: N_4  and  C_14
REMARK    3  A    between atoms: C_19  and  C_24
REMARK                            x       y       z     vdW  Elec       q    Type
REMARK                         _______ _______ _______ _____ _____    ______ ____
ROOT
ATOM      1  O   UNL     1      37.166 -19.940 -19.642  0.00  0.00    -0.252 OA
ATOM      2  N   UNL     1      34.428 -23.313 -17.194  0.00  0.00    +0.392 N 
ATOM      3  N   UNL     1      35.622 -21.597 -19.167  0.00  0.00    -0.268 N 
ATOM      4  N   UNL     1      35.344 -20.207 -21.056  0.00  0.00    -0.266 N 
ATOM      5  C   UNL     1      35.455 -22.338 -16.806  0.00  0.00    -0.055 C 
ATOM      6  C   UNL     1      33.616 -22.778 -18.294  0.00  0.00    -0.055 C 
ATOM      7  C   UNL     1      34.477 -22.448 -19.517  0.00  0.00    +0.072 C 
ATOM      8  C   UNL     1      36.373 -22.032 -17.988  0.00  0.00    +0.072 C 
ATOM      9  C   UNL     1      36.119 -20.521 -19.938  0.00  0.00    +0.308 C 
ATOM     10  H   UNL     1      34.890 -24.165 -17.513  0.00  0.00    -0.079 HD
ATOM     11  H   UNL     1      34.851 -20.953 -21.468  0.00  0.00    +0.156 HD
ENDROOT
BRANCH   4  14
ATOM     12 CL   UNL     1      34.814 -20.148 -24.076  0.00  0.00    -0.081 Cl
ATOM     13  N   UNL     1      35.145 -16.537 -21.375  0.00  0.00    -0.241 NA
ATOM     14  C   UNL     1      35.188 -18.937 -21.662  0.00  0.00    +0.082 C 
ATOM     15  C   UNL     1      34.944 -18.786 -23.024  0.00  0.00    +0.074 C 
ATOM     16  C   UNL     1      35.278 -17.791 -20.889  0.00  0.00    +0.114 C 
ATOM     17  C   UNL     1      34.802 -17.511 -23.561  0.00  0.00    +0.033 C 
ATOM     18  C   UNL     1      34.909 -16.429 -22.702  0.00  0.00    +0.100 C 
ENDBRANCH   4  14
BRANCH   2  19
ATOM     19  C   UNL     1      33.583 -23.652 -16.050  0.00  0.00    -0.050 C 
BRANCH  19  24
ATOM     20  F   UNL     1      36.698 -23.893 -10.047  0.00  0.00    -0.125 F 
ATOM     21  F   UNL     1      35.257 -25.515  -9.761  0.00  0.00    -0.125 F 
ATOM     22  O   UNL     1      34.777 -23.875 -11.251  0.00  0.00    -0.395 OA
ATOM     23  O   UNL     1      36.524 -25.496 -11.641  0.00  0.00    -0.395 OA
ATOM     24  C   UNL     1      34.393 -24.168 -14.889  0.00  0.00    -0.040 C 
ATOM     25  C   UNL     1      34.125 -23.706 -13.599  0.00  0.00    +0.034 C 
ATOM     26  C   UNL     1      35.409 -25.112 -15.116  0.00  0.00    -0.003 C 
ATOM     27  C   UNL     1      34.892 -24.208 -12.567  0.00  0.00    +0.181 C 
ATOM     28  C   UNL     1      35.889 -25.133 -12.789  0.00  0.00    +0.182 C 
ATOM     29  C   UNL     1      36.172 -25.605 -14.055  0.00  0.00    +0.040 C 
ATOM     30  C   UNL     1      35.812 -24.695 -10.688  0.00  0.00    +0.589 C 
ENDBRANCH  19  24
ENDBRANCH   2  19
TORSDOF 3
ENDMDL
MODEL 4
REMARK VINA RESULT:     -11.1      4.263      6.768
REMARK  Name = 54576693
REMARK  3 active torsions:
REMARK  status: ('A' for Active; 'I' for Inactive)
REMARK    1  A    between atoms: N_2  and  C_19
REMARK    2  A    between atoms: N_4  and  C_14
REMARK    3  A    between atoms: C_19  and  C_24
REMARK                            x       y       z     vdW  Elec       q    Type
REMARK                         _______ _______ _______ _____ _____    ______ ____
ROOT
ATOM      1  O   UNL     1      35.198 -19.399 -23.396  0.00  0.00    -0.252 OA
ATOM      2  N   UNL     1      33.987 -14.584 -23.866  0.00  0.00    +0.392 N 
ATOM      3  N   UNL     1      34.880 -17.154 -22.936  0.00  0.00    -0.268 N 
ATOM      4  N   UNL     1      34.984 -18.732 -21.183  0.00  0.00    -0.266 N 
ATOM      5  C   UNL     1      33.880 -15.765 -24.731  0.00  0.00    -0.055 C 
ATOM      6  C   UNL     1      33.792 -14.969 -22.462  0.00  0.00    -0.055 C 
ATOM      7  C   UNL     1      34.825 -16.008 -22.017  0.00  0.00    +0.072 C 
ATOM      8  C   UNL     1      34.938 -16.799 -24.355  0.00  0.00    +0.072 C 
ATOM      9  C   UNL     1      35.025 -18.508 -22.561  0.00  0.00    +0.308 C 
ATOM     10  H   UNL     1      34.921 -14.187 -23.968  0.00  0.00    -0.079 HD
ATOM     11  H   UNL     1      35.313 -18.000 -20.612  0.00  0.00    +0.156 HD
ENDROOT
BRANCH   4  14
ATOM     12 CL   UNL     1      37.090 -20.513 -19.840  0.00  0.00    -0.081 Cl
ATOM     13  N   UNL     1      32.631 -21.260 -19.885  0.00  0.00    -0.241 NA
ATOM     14  C   UNL     1      34.522 -19.893 -20.515  0.00  0.00    +0.082 C 
ATOM     15  C   UNL     1      35.384 -20.775 -19.871  0.00  0.00    +0.074 C 
ATOM     16  C   UNL     1      33.167 -20.179 -20.493  0.00  0.00    +0.114 C 
ATOM     17  C   UNL     1      34.870 -21.900 -19.234  0.00  0.00    +0.033 C 
ATOM     18  C   UNL     1      33.498 -22.094 -19.269  0.00  0.00    +0.100 C 
ENDBRANCH   4  14
BRANCH   2  19
ATOM     19  C   UNL     1      33.013 -13.568 -24.260  0.00  0.00    -0.050 C 
BRANCH  19  24
ATOM     20  F   UNL     1      33.253  -8.316 -20.000  0.00  0.00    -0.125 F 
ATOM     21  F   UNL     1      31.274  -7.973 -20.870  0.00  0.00    -0.125 F 
ATOM     22  O   UNL     1      32.810  -9.135 -22.067  0.00  0.00    -0.395 OA
ATOM     23  O   UNL     1      31.778 -10.036 -20.078  0.00  0.00    -0.395 OA
ATOM     24  C   UNL     1      32.669 -12.649 -23.118  0.00  0.00    -0.040 C 
ATOM     25  C   UNL     1      32.947 -11.284 -23.220  0.00  0.00    +0.034 C 
ATOM     26  C   UNL     1      32.068 -13.173 -21.960  0.00  0.00    -0.003 C 
ATOM     27  C   UNL     1      32.614 -10.481 -22.148  0.00  0.00    +0.181 C 
ATOM     28  C   UNL     1      32.025 -10.995 -21.013  0.00  0.00    +0.182 C 
ATOM     29  C   UNL     1      31.739 -12.339 -20.889  0.00  0.00    +0.040 C 
ATOM     30  C   UNL     1      32.279  -8.877 -20.758  0.00  0.00    +0.589 C 
ENDBRANCH  19  24
ENDBRANCH   2  19
TORSDOF 3
ENDMDL
MODEL 5
REMARK VINA RESULT:     -11.0      5.681     10.681
REMARK  Name = 54576693
REMARK  3 active torsions:
REMARK  status: ('A' for Active; 'I' for Inactive)
REMARK    1  A    between atoms: N_2  and  C_19
REMARK    2  A    between atoms: N_4  and  C_14
REMARK    3  A    between atoms: C_19  and  C_24
REMARK                            x       y       z     vdW  Elec       q    Type
REMARK                         _______ _______ _______ _____ _____    ______ ____
ROOT
ATOM      1  O   UNL     1      32.980 -13.315 -25.098  0.00  0.00    -0.252 OA
ATOM      2  N   UNL     1      35.006 -17.208 -22.730  0.00  0.00    +0.392 N 
ATOM      3  N   UNL     1      33.636 -14.780 -23.432  0.00  0.00    -0.268 N 
ATOM      4  N   UNL     1      33.152 -12.526 -22.922  0.00  0.00    -0.266 N 
ATOM      5  C   UNL     1      34.973 -16.751 -24.125  0.00  0.00    -0.055 C 
ATOM      6  C   UNL     1      35.039 -16.055 -21.822  0.00  0.00    -0.055 C 
ATOM      7  C   UNL     1      33.819 -15.150 -22.022  0.00  0.00    +0.072 C 
ATOM      8  C   UNL     1      33.734 -15.895 -24.376  0.00  0.00    +0.072 C 
ATOM      9  C   UNL     1      33.242 -13.510 -23.909  0.00  0.00    +0.308 C 
ATOM     10  H   UNL     1      34.160 -17.747 -22.542  0.00  0.00    -0.079 HD
ATOM     11  H   UNL     1      32.911 -12.836 -22.018  0.00  0.00    +0.156 HD
ENDROOT
BRANCH   4  14
ATOM     12 CL   UNL     1      30.845 -10.654 -22.157  0.00  0.00    -0.081 Cl
ATOM     13  N   UNL     1      34.884  -9.371 -23.735  0.00  0.00    -0.241 NA
ATOM     14  C   UNL     1      33.367 -11.135 -23.075  0.00  0.00    +0.082 C 
ATOM     15  C   UNL     1      32.395 -10.191 -22.761  0.00  0.00    +0.074 C 
ATOM     16  C   UNL     1      34.584 -10.676 -23.554  0.00  0.00    +0.114 C 
ATOM     17  C   UNL     1      32.666  -8.837 -22.934  0.00  0.00    +0.033 C 
ATOM     18  C   UNL     1      33.914  -8.483 -23.419  0.00  0.00    +0.100 C 
ENDBRANCH   4  14
BRANCH   2  19
ATOM     19  C   UNL     1      36.161 -18.075 -22.501  0.00  0.00    -0.050 C 
BRANCH  19  24
ATOM     20  F   UNL     1      32.797 -21.859 -18.012  0.00  0.00    -0.125 F 
ATOM     21  F   UNL     1      33.307 -23.412 -19.468  0.00  0.00    -0.125 F 
ATOM     22  O   UNL     1      33.175 -21.258 -20.165  0.00  0.00    -0.395 OA
ATOM     23  O   UNL     1      34.944 -22.035 -18.717  0.00  0.00    -0.395 OA
ATOM     24  C   UNL     1      35.869 -19.137 -21.474  0.00  0.00    -0.040 C 
ATOM     25  C   UNL     1      34.580 -19.663 -21.368  0.00  0.00    +0.034 C 
ATOM     26  C   UNL     1      36.899 -19.589 -20.631  0.00  0.00    -0.003 C 
ATOM     27  C   UNL     1      34.360 -20.634 -20.413  0.00  0.00    +0.181 C 
ATOM     28  C   UNL     1      35.370 -21.078 -19.586  0.00  0.00    +0.182 C 
ATOM     29  C   UNL     1      36.652 -20.574 -19.671  0.00  0.00    +0.040 C 
ATOM     30  C   UNL     1      33.564 -22.133 -19.096  0.00  0.00    +0.589 C 
ENDBRANCH  19  24
ENDBRANCH   2  19
TORSDOF 3
ENDMDL
MODEL 6
REMARK VINA RESULT:     -10.9      5.460      8.145
REMARK  Name = 54576693
REMARK  3 active torsions:
REMARK  status: ('A' for Active; 'I' for Inactive)
REMARK    1  A    between atoms: N_2  and  C_19
REMARK    2  A    between atoms: N_4  and  C_14
REMARK    3  A    between atoms: C_19  and  C_24
REMARK                            x       y       z     vdW  Elec       q    Type
REMARK                         _______ _______ _______ _____ _____    ______ ____
ROOT
ATOM      1  O   UNL     1      34.971 -17.707 -23.706  0.00  0.00    -0.252 OA
ATOM      2  N   UNL     1      33.079 -13.207 -22.689  0.00  0.00    +0.392 N 
ATOM      3  N   UNL     1      34.508 -15.701 -22.650  0.00  0.00    -0.268 N 
ATOM      4  N   UNL     1      35.282 -17.555 -21.411  0.00  0.00    -0.266 N 
ATOM      5  C   UNL     1      32.892 -14.187 -23.767  0.00  0.00    -0.055 C 
ATOM      6  C   UNL     1      33.321 -13.898 -21.416  0.00  0.00    -0.055 C 
ATOM      7  C   UNL     1      34.559 -14.797 -21.494  0.00  0.00    +0.072 C 
ATOM      8  C   UNL     1      34.135 -15.061 -23.913  0.00  0.00    +0.072 C 
ATOM      9  C   UNL     1      34.920 -17.053 -22.662  0.00  0.00    +0.308 C 
ATOM     10  H   UNL     1      33.892 -12.631 -22.908  0.00  0.00    -0.079 HD
ATOM     11  H   UNL     1      35.658 -16.907 -20.773  0.00  0.00    +0.156 HD
ENDROOT
BRANCH   4  14
ATOM     12 CL   UNL     1      37.887 -19.106 -20.944  0.00  0.00    -0.081 Cl
ATOM     13  N   UNL     1      33.705 -20.706 -20.317  0.00  0.00    -0.241 NA
ATOM     14  C   UNL     1      35.169 -18.893 -20.958  0.00  0.00    +0.082 C 
ATOM     15  C   UNL     1      36.280 -19.693 -20.712  0.00  0.00    +0.074 C 
ATOM     16  C   UNL     1      33.915 -19.443 -20.746  0.00  0.00    +0.114 C 
ATOM     17  C   UNL     1      36.104 -21.000 -20.270  0.00  0.00    +0.033 C 
ATOM     18  C   UNL     1      34.808 -21.454 -20.089  0.00  0.00    +0.100 C 
ENDBRANCH   4  14
BRANCH   2  19
ATOM     19  C   UNL     1      31.913 -12.330 -22.584  0.00  0.00    -0.050 C 
BRANCH  19  24
ATOM     20  F   UNL     1      31.578  -5.773 -20.948  0.00  0.00    -0.125 F 
ATOM     21  F   UNL     1      33.204  -6.384 -19.617  0.00  0.00    -0.125 F 
ATOM     22  O   UNL     1      31.706  -7.943 -20.303  0.00  0.00    -0.395 OA
ATOM     23  O   UNL     1      33.313  -6.952 -21.809  0.00  0.00    -0.395 OA
ATOM     24  C   UNL     1      32.311 -10.889 -22.405  0.00  0.00    -0.040 C 
ATOM     25  C   UNL     1      31.749 -10.139 -21.370  0.00  0.00    +0.034 C 
ATOM     26  C   UNL     1      33.247 -10.313 -23.282  0.00  0.00    -0.003 C 
ATOM     27  C   UNL     1      32.144  -8.823 -21.245  0.00  0.00    +0.181 C 
ATOM     28  C   UNL     1      33.062  -8.257 -22.105  0.00  0.00    +0.182 C 
ATOM     29  C   UNL     1      33.631  -8.978 -23.134  0.00  0.00    +0.040 C 
ATOM     30  C   UNL     1      32.451  -6.774 -20.676  0.00  0.00    +0.589 C 
ENDBRANCH  19  24
ENDBRANCH   2  19
TORSDOF 3
ENDMDL
MODEL 7
REMARK VINA RESULT:     -10.7      7.384     12.117
REMARK  Name = 54576693
REMARK  3 active torsions:
REMARK  status: ('A' for Active; 'I' for Inactive)
REMARK    1  A    between atoms: N_2  and  C_19
REMARK    2  A    between atoms: N_4  and  C_14
REMARK    3  A    between atoms: C_19  and  C_24
REMARK                            x       y       z     vdW  Elec       q    Type
REMARK                         _______ _______ _______ _____ _____    ______ ____
ROOT
ATOM      1  O   UNL     1      31.355  -9.870 -21.284  0.00  0.00    -0.252 OA
ATOM      2  N   UNL     1      33.546 -13.662 -23.667  0.00  0.00    +0.392 N 
ATOM      3  N   UNL     1      32.896 -11.139 -22.454  0.00  0.00    -0.268 N 
ATOM      4  N   UNL     1      32.957  -8.781 -22.562  0.00  0.00    -0.266 N 
ATOM      5  C   UNL     1      32.235 -13.457 -23.039  0.00  0.00    -0.055 C 
ATOM      6  C   UNL     1      34.017 -12.410 -24.273  0.00  0.00    -0.055 C 
ATOM      7  C   UNL     1      34.133 -11.293 -23.232  0.00  0.00    +0.072 C 
ATOM      8  C   UNL     1      32.328 -12.391 -21.950  0.00  0.00    +0.072 C 
ATOM      9  C   UNL     1      32.321  -9.913 -22.049  0.00  0.00    +0.308 C 
ATOM     10  H   UNL     1      34.213 -13.948 -22.949  0.00  0.00    -0.079 HD
ATOM     11  H   UNL     1      33.922  -8.866 -22.739  0.00  0.00    +0.156 HD
ENDROOT
BRANCH   4  14
ATOM     12 CL   UNL     1      32.688  -6.778 -20.256  0.00  0.00    -0.081 Cl
ATOM     13  N   UNL     1      31.374  -6.089 -24.526  0.00  0.00    -0.241 NA
ATOM     14  C   UNL     1      32.370  -7.526 -22.858  0.00  0.00    +0.082 C 
ATOM     15  C   UNL     1      32.195  -6.540 -21.892  0.00  0.00    +0.074 C 
ATOM     16  C   UNL     1      31.946  -7.253 -24.148  0.00  0.00    +0.114 C 
ATOM     17  C   UNL     1      31.610  -5.327 -22.244  0.00  0.00    +0.033 C 
ATOM     18  C   UNL     1      31.221  -5.153 -23.562  0.00  0.00    +0.100 C 
ENDBRANCH   4  14
BRANCH   2  19
ATOM     19  C   UNL     1      33.474 -14.724 -24.671  0.00  0.00    -0.050 C 
BRANCH  19  24
ATOM     20  F   UNL     1      37.283 -19.198 -21.316  0.00  0.00    -0.125 F 
ATOM     21  F   UNL     1      35.372 -19.534 -20.303  0.00  0.00    -0.125 F 
ATOM     22  O   UNL     1      35.752 -17.526 -21.286  0.00  0.00    -0.395 OA
ATOM     23  O   UNL     1      35.427 -19.546 -22.569  0.00  0.00    -0.395 OA
ATOM     24  C   UNL     1      33.986 -16.035 -24.137  0.00  0.00    -0.040 C 
ATOM     25  C   UNL     1      34.643 -16.072 -22.904  0.00  0.00    +0.034 C 
ATOM     26  C   UNL     1      33.796 -17.211 -24.884  0.00  0.00    -0.003 C 
ATOM     27  C   UNL     1      35.094 -17.297 -22.456  0.00  0.00    +0.181 C 
ATOM     28  C   UNL     1      34.908 -18.450 -23.188  0.00  0.00    +0.182 C 
ATOM     29  C   UNL     1      34.262 -18.439 -24.408  0.00  0.00    +0.040 C 
ATOM     30  C   UNL     1      35.952 -18.945 -21.378  0.00  0.00    +0.589 C 
ENDBRANCH  19  24
ENDBRANCH   2  19
TORSDOF 3
ENDMDL
MODEL 8
REMARK VINA RESULT:     -10.7      5.806     10.719
REMARK  Name = 54576693
REMARK  3 active torsions:
REMARK  status: ('A' for Active; 'I' for Inactive)
REMARK    1  A    between atoms: N_2  and  C_19
REMARK    2  A    between atoms: N_4  and  C_14
REMARK    3  A    between atoms: C_19  and  C_24
REMARK                            x       y       z     vdW  Elec       q    Type
REMARK                         _______ _______ _______ _____ _____    ______ ____
ROOT
ATOM      1  O   UNL     1      37.169 -19.920 -19.742  0.00  0.00    -0.252 OA
ATOM      2  N   UNL     1      34.447 -23.211 -17.167  0.00  0.00    +0.392 N 
ATOM      3  N   UNL     1      35.615 -21.546 -19.199  0.00  0.00    -0.268 N 
ATOM      4  N   UNL     1      35.309 -20.186 -21.105  0.00  0.00    -0.266 N 
ATOM      5  C   UNL     1      35.497 -22.244 -16.822  0.00  0.00    -0.055 C 
ATOM      6  C   UNL     1      33.615 -22.684 -18.257  0.00  0.00    -0.055 C 
ATOM      7  C   UNL     1      34.450 -22.387 -19.506  0.00  0.00    +0.072 C 
ATOM      8  C   UNL     1      36.388 -21.972 -18.031  0.00  0.00    +0.072 C 
ATOM      9  C   UNL     1      36.107 -20.491 -20.001  0.00  0.00    +0.308 C 
ATOM     10  H   UNL     1      34.889 -24.075 -17.483  0.00  0.00    -0.079 HD
ATOM     11  H   UNL     1      34.796 -20.932 -21.491  0.00  0.00    +0.156 HD
ENDROOT
BRANCH   4  14
ATOM     12 CL   UNL     1      34.779 -20.169 -24.126  0.00  0.00    -0.081 Cl
ATOM     13  N   UNL     1      35.117 -16.520 -21.477  0.00  0.00    -0.241 NA
ATOM     14  C   UNL     1      35.155 -18.924 -21.730  0.00  0.00    +0.082 C 
ATOM     15  C   UNL     1      34.912 -18.792 -23.093  0.00  0.00    +0.074 C 
ATOM     16  C   UNL     1      35.248 -17.767 -20.973  0.00  0.00    +0.114 C 
ATOM     17  C   UNL     1      34.772 -17.525 -23.649  0.00  0.00    +0.033 C 
ATOM     18  C   UNL     1      34.881 -16.431 -22.806  0.00  0.00    +0.100 C 
ENDBRANCH   4  14
BRANCH   2  19
ATOM     19  C   UNL     1      33.626 -23.518 -15.997  0.00  0.00    -0.050 C 
BRANCH  19  24
ATOM     20  F   UNL     1      38.573 -26.445 -12.426  0.00  0.00    -0.125 F 
ATOM     21  F   UNL     1      38.970 -24.352 -11.927  0.00  0.00    -0.125 F 
ATOM     22  O   UNL     1      37.897 -24.829 -13.866  0.00  0.00    -0.395 OA
ATOM     23  O   UNL     1      36.859 -25.147 -11.709  0.00  0.00    -0.395 OA
ATOM     24  C   UNL     1      34.464 -23.956 -14.825  0.00  0.00    -0.040 C 
ATOM     25  C   UNL     1      35.833 -24.172 -14.994  0.00  0.00    +0.034 C 
ATOM     26  C   UNL     1      33.859 -24.140 -13.569  0.00  0.00    -0.003 C 
ATOM     27  C   UNL     1      36.560 -24.571 -13.891  0.00  0.00    +0.181 C 
ATOM     28  C   UNL     1      35.967 -24.753 -12.660  0.00  0.00    +0.182 C 
ATOM     29  C   UNL     1      34.617 -24.545 -12.467  0.00  0.00    +0.040 C 
ATOM     30  C   UNL     1      38.063 -25.190 -12.487  0.00  0.00    +0.589 C 
ENDBRANCH  19  24
ENDBRANCH   2  19
TORSDOF 3
ENDMDL
MODEL 9
REMARK VINA RESULT:     -10.7      5.289      8.059
REMARK  Name = 54576693
REMARK  3 active torsions:
REMARK  status: ('A' for Active; 'I' for Inactive)
REMARK    1  A    between atoms: N_2  and  C_19
REMARK    2  A    between atoms: N_4  and  C_14
REMARK    3  A    between atoms: C_19  and  C_24
REMARK                            x       y       z     vdW  Elec       q    Type
REMARK                         _______ _______ _______ _____ _____    ______ ____
ROOT
ATOM      1  O   UNL     1      34.951 -17.530 -23.656  0.00  0.00    -0.252 OA
ATOM      2  N   UNL     1      33.019 -13.098 -22.436  0.00  0.00    +0.392 N 
ATOM      3  N   UNL     1      34.485 -15.570 -22.520  0.00  0.00    -0.268 N 
ATOM      4  N   UNL     1      35.314 -17.455 -21.365  0.00  0.00    -0.266 N 
ATOM      5  C   UNL     1      32.821 -14.042 -23.544  0.00  0.00    -0.055 C 
ATOM      6  C   UNL     1      33.302 -13.830 -21.195  0.00  0.00    -0.055 C 
ATOM      7  C   UNL     1      34.550 -14.707 -21.333  0.00  0.00    +0.072 C 
ATOM      8  C   UNL     1      34.072 -14.892 -23.750  0.00  0.00    +0.072 C 
ATOM      9  C   UNL     1      34.915 -16.914 -22.589  0.00  0.00    +0.308 C 
ATOM     10  H   UNL     1      33.819 -12.503 -22.653  0.00  0.00    -0.079 HD
ATOM     11  H   UNL     1      35.696 -16.824 -20.713  0.00  0.00    +0.156 HD
ENDROOT
BRANCH   4  14
ATOM     12 CL   UNL     1      37.947 -19.004 -21.087  0.00  0.00    -0.081 Cl
ATOM     13  N   UNL     1      33.810 -20.656 -20.313  0.00  0.00    -0.241 NA
ATOM     14  C   UNL     1      35.231 -18.809 -20.957  0.00  0.00    +0.082 C 
ATOM     15  C   UNL     1      36.357 -19.610 -20.798  0.00  0.00    +0.074 C 
ATOM     16  C   UNL     1      33.992 -19.375 -20.704  0.00  0.00    +0.114 C 
ATOM     17  C   UNL     1      36.210 -20.934 -20.396  0.00  0.00    +0.033 C 
ATOM     18  C   UNL     1      34.927 -21.404 -20.168  0.00  0.00    +0.100 C 
ENDBRANCH   4  14
BRANCH   2  19
ATOM     19  C   UNL     1      31.844 -12.243 -22.273  0.00  0.00    -0.050 C 
BRANCH  19  24
ATOM     20  F   UNL     1      35.222  -6.465 -23.264  0.00  0.00    -0.125 F 
ATOM     21  F   UNL     1      33.326  -5.932 -24.219  0.00  0.00    -0.125 F 
ATOM     22  O   UNL     1      33.903  -8.120 -24.077  0.00  0.00    -0.395 OA
ATOM     23  O   UNL     1      33.290  -6.824 -22.135  0.00  0.00    -0.395 OA
ATOM     24  C   UNL     1      32.217 -10.787 -22.202  0.00  0.00    -0.040 C 
ATOM     25  C   UNL     1      32.912 -10.197 -23.261  0.00  0.00    +0.034 C 
ATOM     26  C   UNL     1      31.860 -10.032 -21.071  0.00  0.00    -0.003 C 
ATOM     27  C   UNL     1      33.231  -8.859 -23.152  0.00  0.00    +0.181 C 
ATOM     28  C   UNL     1      32.881  -8.119 -22.043  0.00  0.00    +0.182 C 
ATOM     29  C   UNL     1      32.194  -8.678 -20.985  0.00  0.00    +0.040 C 
ATOM     30  C   UNL     1      33.930  -6.845 -23.418  0.00  0.00    +0.589 C 
ENDBRANCH  19  24
ENDBRANCH   2  19
TORSDOF 3
ENDMDL
