MODEL 1
REMARK VINA RESULT:     -11.4      0.000      0.000
REMARK  Name = 24995524
REMARK  4 active torsions:
REMARK  status: ('A' for Active; 'I' for Inactive)
REMARK    1  A    between atoms: N_5  and  C_13
REMARK    2  A    between atoms: C_6  and  C_19
REMARK    3  A    between atoms: C_19  and  C_20
REMARK    4  A    between atoms: C_20  and  N_22
REMARK                            x       y       z     vdW  Elec       q    Type
REMARK                         _______ _______ _______ _____ _____    ______ ____
ROOT
ATOM      1  S   UNL     1      36.346 -20.927 -19.494  0.00  0.00    -0.056 S 
ATOM      2  O   UNL     1      35.196 -23.666 -15.892  0.00  0.00    -0.252 OA
ATOM      3  N   UNL     1      34.389 -22.194 -18.379  0.00  0.00    -0.223 NA
ATOM      4  N   UNL     1      36.540 -22.357 -17.307  0.00  0.00    -0.248 N 
ATOM      5  N   UNL     1      37.471 -23.384 -15.427  0.00  0.00    -0.268 N 
ATOM      6  C   UNL     1      34.802 -20.830 -20.234  0.00  0.00    +0.031 C 
ATOM      7  C   UNL     1      33.891 -21.563 -19.502  0.00  0.00    +0.103 C 
ATOM      8  C   UNL     1      35.672 -21.929 -18.275  0.00  0.00    +0.166 C 
ATOM      9  C   UNL     1      36.293 -23.192 -16.168  0.00  0.00    +0.310 C 
ATOM     10  H   UNL     1      37.469 -22.047 -17.407  0.00  0.00    +0.158 HD
ATOM     11  H   UNL     1      38.277 -22.938 -15.775  0.00  0.00    +0.156 HD
ENDROOT
BRANCH   5  13
ATOM     12 CL   UNL     1      36.272 -24.095 -10.486  0.00  0.00    -0.082 Cl
ATOM     13  C   UNL     1      37.642 -24.140 -14.244  0.00  0.00    +0.052 C 
ATOM     14  C   UNL     1      36.952 -23.786 -13.085  0.00  0.00    +0.026 C 
ATOM     15  C   UNL     1      38.500 -25.241 -14.237  0.00  0.00    +0.015 C 
ATOM     16  C   UNL     1      37.122 -24.532 -11.918  0.00  0.00    +0.059 C 
ATOM     17  C   UNL     1      38.669 -25.986 -13.071  0.00  0.00    +0.002 C 
ATOM     18  C   UNL     1      37.980 -25.632 -11.912  0.00  0.00    +0.011 C 
ENDBRANCH   5  13
BRANCH   6  19
ATOM     19  C   UNL     1      34.604 -20.026 -21.496  0.00  0.00    +0.056 C 
BRANCH  19  20
ATOM     20  C   UNL     1      35.702 -18.988 -21.723  0.00  0.00    +0.093 C 
BRANCH  20  22
ATOM     21  S   UNL     1      34.196 -15.637 -24.559  0.00  0.00    -0.101 S 
ATOM     22  N   UNL     1      35.229 -17.913 -22.543  0.00  0.00    -0.320 N 
ATOM     23  N   UNL     1      34.925 -16.445 -20.695  0.00  0.00    -0.233 NA
ATOM     24  N   UNL     1      34.098 -14.185 -20.957  0.00  0.00    -0.247 NA
ATOM     25  C   UNL     1      34.849 -16.662 -22.023  0.00  0.00    +0.118 C 
ATOM     26  C   UNL     1      34.395 -15.644 -22.854  0.00  0.00    +0.145 C 
ATOM     27  C   UNL     1      34.028 -14.421 -22.295  0.00  0.00    +0.073 C 
ATOM     28  C   UNL     1      33.587 -13.493 -23.285  0.00  0.00    +0.022 C 
ATOM     29  C   UNL     1      33.629 -14.025 -24.554  0.00  0.00    +0.033 C 
ATOM     30  C   UNL     1      34.549 -15.233 -20.247  0.00  0.00    +0.251 C 
ATOM     31  H   UNL     1      35.167 -18.056 -23.515  0.00  0.00    +0.148 HD
ENDBRANCH  20  22
ENDBRANCH  19  20
ENDBRANCH   6  19
TORSDOF 4
ENDMDL
MODEL 2
REMARK VINA RESULT:     -11.4      1.198      1.643
REMARK  Name = 24995524
REMARK  4 active torsions:
REMARK  status: ('A' for Active; 'I' for Inactive)
REMARK    1  A    between atoms: N_5  and  C_13
REMARK    2  A    between atoms: C_6  and  C_19
REMARK    3  A    between atoms: C_19  and  C_20
REMARK    4  A    between atoms: C_20  and  N_22
REMARK                            x       y       z     vdW  Elec       q    Type
REMARK                         _______ _______ _______ _____ _____    ______ ____
ROOT
ATOM      1  S   UNL     1      36.588 -20.826 -19.457  0.00  0.00    -0.056 S 
ATOM      2  O   UNL     1      35.262 -23.648 -15.982  0.00  0.00    -0.252 OA
ATOM      3  N   UNL     1      34.575 -22.107 -18.463  0.00  0.00    -0.223 NA
ATOM      4  N   UNL     1      36.676 -22.314 -17.302  0.00  0.00    -0.248 N 
ATOM      5  N   UNL     1      37.517 -23.397 -15.411  0.00  0.00    -0.268 N 
ATOM      6  C   UNL     1      35.079 -20.698 -20.262  0.00  0.00    +0.031 C 
ATOM      7  C   UNL     1      34.132 -21.442 -19.590  0.00  0.00    +0.103 C 
ATOM      8  C   UNL     1      35.854 -21.855 -18.296  0.00  0.00    +0.166 C 
ATOM      9  C   UNL     1      36.374 -23.176 -16.198  0.00  0.00    +0.310 C 
ATOM     10  H   UNL     1      37.610 -22.008 -17.353  0.00  0.00    +0.158 HD
ATOM     11  H   UNL     1      38.340 -22.948 -15.711  0.00  0.00    +0.156 HD
ENDROOT
BRANCH   5  13
ATOM     12 CL   UNL     1      36.137 -24.195 -10.530  0.00  0.00    -0.082 Cl
ATOM     13  C   UNL     1      37.629 -24.185 -14.242  0.00  0.00    +0.052 C 
ATOM     14  C   UNL     1      36.910 -23.841 -13.097  0.00  0.00    +0.026 C 
ATOM     15  C   UNL     1      38.460 -25.306 -14.234  0.00  0.00    +0.015 C 
ATOM     16  C   UNL     1      37.024 -24.619 -11.944  0.00  0.00    +0.059 C 
ATOM     17  C   UNL     1      38.573 -26.082 -13.082  0.00  0.00    +0.002 C 
ATOM     18  C   UNL     1      37.854 -25.739 -11.937  0.00  0.00    +0.011 C 
ENDBRANCH   5  13
BRANCH   6  19
ATOM     19  C   UNL     1      34.942 -19.859 -21.509  0.00  0.00    +0.056 C 
BRANCH  19  20
ATOM     20  C   UNL     1      36.014 -18.776 -21.623  0.00  0.00    +0.093 C 
BRANCH  20  22
ATOM     21  S   UNL     1      34.195 -14.554 -20.983  0.00  0.00    -0.101 S 
ATOM     22  N   UNL     1      35.439 -17.471 -21.493  0.00  0.00    -0.320 N 
ATOM     23  N   UNL     1      34.932 -17.305 -23.812  0.00  0.00    -0.233 NA
ATOM     24  N   UNL     1      33.861 -15.357 -24.769  0.00  0.00    -0.247 NA
ATOM     25  C   UNL     1      34.908 -16.755 -22.582  0.00  0.00    +0.118 C 
ATOM     26  C   UNL     1      34.358 -15.489 -22.413  0.00  0.00    +0.145 C 
ATOM     27  C   UNL     1      33.844 -14.816 -23.521  0.00  0.00    +0.073 C 
ATOM     28  C   UNL     1      33.322 -13.535 -23.171  0.00  0.00    +0.022 C 
ATOM     29  C   UNL     1      33.449 -13.270 -21.827  0.00  0.00    +0.033 C 
ATOM     30  C   UNL     1      34.413 -16.580 -24.820  0.00  0.00    +0.251 C 
ATOM     31  H   UNL     1      35.414 -17.055 -20.601  0.00  0.00    +0.148 HD
ENDBRANCH  20  22
ENDBRANCH  19  20
ENDBRANCH   6  19
TORSDOF 4
ENDMDL
MODEL 3
REMARK VINA RESULT:     -11.2      3.649      4.332
REMARK  Name = 24995524
REMARK  4 active torsions:
REMARK  status: ('A' for Active; 'I' for Inactive)
REMARK    1  A    between atoms: N_5  and  C_13
REMARK    2  A    between atoms: C_6  and  C_19
REMARK    3  A    between atoms: C_19  and  C_20
REMARK    4  A    between atoms: C_20  and  N_22
REMARK                            x       y       z     vdW  Elec       q    Type
REMARK                         _______ _______ _______ _____ _____    ______ ____
ROOT
ATOM      1  S   UNL     1      33.059 -20.512 -20.606  0.00  0.00    -0.056 S 
ATOM      2  O   UNL     1      34.051 -23.157 -16.890  0.00  0.00    -0.252 OA
ATOM      3  N   UNL     1      34.990 -21.590 -19.269  0.00  0.00    -0.223 NA
ATOM      4  N   UNL     1      32.757 -21.973 -18.452  0.00  0.00    -0.248 N 
ATOM      5  N   UNL     1      31.721 -23.106 -16.692  0.00  0.00    -0.268 N 
ATOM      6  C   UNL     1      34.660 -20.256 -21.163  0.00  0.00    +0.031 C 
ATOM      7  C   UNL     1      35.549 -20.903 -20.330  0.00  0.00    +0.103 C 
ATOM      8  C   UNL     1      33.683 -21.452 -19.314  0.00  0.00    +0.166 C 
ATOM      9  C   UNL     1      32.952 -22.791 -17.291  0.00  0.00    +0.310 C 
ATOM     10  H   UNL     1      31.819 -21.754 -18.659  0.00  0.00    +0.158 HD
ATOM     11  H   UNL     1      30.920 -22.738 -17.131  0.00  0.00    +0.156 HD
ENDROOT
BRANCH   5  13
ATOM     12 CL   UNL     1      28.570 -26.182 -14.051  0.00  0.00    -0.082 Cl
ATOM     13  C   UNL     1      31.491 -23.887 -15.535  0.00  0.00    +0.052 C 
ATOM     14  C   UNL     1      30.285 -24.570 -15.383  0.00  0.00    +0.026 C 
ATOM     15  C   UNL     1      32.472 -23.973 -14.546  0.00  0.00    +0.015 C 
ATOM     16  C   UNL     1      30.060 -25.339 -14.240  0.00  0.00    +0.059 C 
ATOM     17  C   UNL     1      32.246 -24.741 -13.405  0.00  0.00    +0.002 C 
ATOM     18  C   UNL     1      31.040 -25.425 -13.252  0.00  0.00    +0.011 C 
ENDBRANCH   5  13
BRANCH   6  19
ATOM     19  C   UNL     1      34.921 -19.427 -22.397  0.00  0.00    +0.056 C 
BRANCH  19  20
ATOM     20  C   UNL     1      35.942 -18.314 -22.167  0.00  0.00    +0.093 C 
BRANCH  20  22
ATOM     21  S   UNL     1      33.889 -14.353 -20.890  0.00  0.00    -0.101 S 
ATOM     22  N   UNL     1      35.291 -17.082 -21.839  0.00  0.00    -0.320 N 
ATOM     23  N   UNL     1      34.650 -16.655 -24.090  0.00  0.00    -0.233 NA
ATOM     24  N   UNL     1      33.403 -14.681 -24.731  0.00  0.00    -0.247 NA
ATOM     25  C   UNL     1      34.656 -16.271 -22.798  0.00  0.00    +0.118 C 
ATOM     26  C   UNL     1      34.035 -15.081 -22.438  0.00  0.00    +0.145 C 
ATOM     27  C   UNL     1      33.419 -14.309 -23.422  0.00  0.00    +0.073 C 
ATOM     28  C   UNL     1      32.833 -13.125 -22.883  0.00  0.00    +0.022 C 
ATOM     29  C   UNL     1      33.016 -13.027 -21.522  0.00  0.00    +0.033 C 
ATOM     30  C   UNL     1      34.030 -15.845 -24.968  0.00  0.00    +0.251 C 
ATOM     31  H   UNL     1      35.288 -16.788 -20.899  0.00  0.00    +0.148 HD
ENDBRANCH  20  22
ENDBRANCH  19  20
ENDBRANCH   6  19
TORSDOF 4
ENDMDL
MODEL 4
REMARK VINA RESULT:     -11.1      3.408      3.924
REMARK  Name = 24995524
REMARK  4 active torsions:
REMARK  status: ('A' for Active; 'I' for Inactive)
REMARK    1  A    between atoms: N_5  and  C_13
REMARK    2  A    between atoms: C_6  and  C_19
REMARK    3  A    between atoms: C_19  and  C_20
REMARK    4  A    between atoms: C_20  and  N_22
REMARK                            x       y       z     vdW  Elec       q    Type
REMARK                         _______ _______ _______ _____ _____    ______ ____
ROOT
ATOM      1  S   UNL     1      33.161 -20.549 -20.565  0.00  0.00    -0.056 S 
ATOM      2  O   UNL     1      34.146 -23.315 -16.935  0.00  0.00    -0.252 OA
ATOM      3  N   UNL     1      35.074 -21.787 -19.344  0.00  0.00    -0.223 NA
ATOM      4  N   UNL     1      32.864 -22.016 -18.414  0.00  0.00    -0.248 N 
ATOM      5  N   UNL     1      31.840 -23.095 -16.614  0.00  0.00    -0.268 N 
ATOM      6  C   UNL     1      34.747 -20.405 -21.203  0.00  0.00    +0.031 C 
ATOM      7  C   UNL     1      35.627 -21.128 -20.426  0.00  0.00    +0.103 C 
ATOM      8  C   UNL     1      33.781 -21.553 -19.318  0.00  0.00    +0.166 C 
ATOM      9  C   UNL     1      33.058 -22.863 -17.274  0.00  0.00    +0.310 C 
ATOM     10  H   UNL     1      31.936 -21.725 -18.569  0.00  0.00    +0.158 HD
ATOM     11  H   UNL     1      31.047 -22.662 -17.006  0.00  0.00    +0.156 HD
ENDROOT
BRANCH   5  13
ATOM     12 CL   UNL     1      28.695 -26.164 -13.957  0.00  0.00    -0.082 Cl
ATOM     13  C   UNL     1      31.613 -23.873 -15.455  0.00  0.00    +0.052 C 
ATOM     14  C   UNL     1      30.407 -24.556 -15.297  0.00  0.00    +0.026 C 
ATOM     15  C   UNL     1      32.597 -23.959 -14.469  0.00  0.00    +0.015 C 
ATOM     16  C   UNL     1      30.184 -25.322 -14.153  0.00  0.00    +0.059 C 
ATOM     17  C   UNL     1      32.374 -24.725 -13.325  0.00  0.00    +0.002 C 
ATOM     18  C   UNL     1      31.168 -25.407 -13.168  0.00  0.00    +0.011 C 
ENDBRANCH   5  13
BRANCH   6  19
ATOM     19  C   UNL     1      35.004 -19.579 -22.441  0.00  0.00    +0.056 C 
BRANCH  19  20
ATOM     20  C   UNL     1      35.831 -18.325 -22.163  0.00  0.00    +0.093 C 
BRANCH  20  22
ATOM     21  S   UNL     1      34.139 -14.763 -24.609  0.00  0.00    -0.101 S 
ATOM     22  N   UNL     1      35.296 -17.194 -22.858  0.00  0.00    -0.320 N 
ATOM     23  N   UNL     1      34.796 -16.016 -20.852  0.00  0.00    -0.233 NA
ATOM     24  N   UNL     1      33.782 -13.818 -20.858  0.00  0.00    -0.247 NA
ATOM     25  C   UNL     1      34.787 -16.059 -22.199  0.00  0.00    +0.118 C 
ATOM     26  C   UNL     1      34.276 -14.981 -22.912  0.00  0.00    +0.145 C 
ATOM     27  C   UNL     1      33.781 -13.878 -22.217  0.00  0.00    +0.073 C 
ATOM     28  C   UNL     1      33.296 -12.866 -23.098  0.00  0.00    +0.022 C 
ATOM     29  C   UNL     1      33.432 -13.219 -24.422  0.00  0.00    +0.033 C 
ATOM     30  C   UNL     1      34.298 -14.910 -20.270  0.00  0.00    +0.251 C 
ATOM     31  H   UNL     1      35.282 -17.211 -23.843  0.00  0.00    +0.148 HD
ENDBRANCH  20  22
ENDBRANCH  19  20
ENDBRANCH   6  19
TORSDOF 4
ENDMDL
MODEL 5
REMARK VINA RESULT:     -11.0      4.890     11.031
REMARK  Name = 24995524
REMARK  4 active torsions:
REMARK  status: ('A' for Active; 'I' for Inactive)
REMARK    1  A    between atoms: N_5  and  C_13
REMARK    2  A    between atoms: C_6  and  C_19
REMARK    3  A    between atoms: C_19  and  C_20
REMARK    4  A    between atoms: C_20  and  N_22
REMARK                            x       y       z     vdW  Elec       q    Type
REMARK                         _______ _______ _______ _____ _____    ______ ____
ROOT
ATOM      1  S   UNL     1      33.579 -23.888 -16.064  0.00  0.00    -0.056 S 
ATOM      2  O   UNL     1      32.624 -20.909 -19.529  0.00  0.00    -0.252 OA
ATOM      3  N   UNL     1      31.665 -22.649 -17.280  0.00  0.00    -0.223 NA
ATOM      4  N   UNL     1      33.900 -22.255 -18.088  0.00  0.00    -0.248 N 
ATOM      5  N   UNL     1      34.949 -21.005 -19.758  0.00  0.00    -0.268 N 
ATOM      6  C   UNL     1      31.976 -24.148 -15.512  0.00  0.00    +0.031 C 
ATOM      7  C   UNL     1      31.098 -23.410 -16.277  0.00  0.00    +0.103 C 
ATOM      8  C   UNL     1      32.968 -22.823 -17.262  0.00  0.00    +0.166 C 
ATOM      9  C   UNL     1      33.716 -21.337 -19.173  0.00  0.00    +0.310 C 
ATOM     10  H   UNL     1      34.833 -22.515 -17.910  0.00  0.00    +0.158 HD
ATOM     11  H   UNL     1      35.744 -21.430 -19.361  0.00  0.00    +0.156 HD
ENDROOT
BRANCH   5  13
ATOM     12 CL   UNL     1      33.478 -19.246 -24.352  0.00  0.00    -0.082 Cl
ATOM     13  C   UNL     1      35.189 -20.135 -20.847  0.00  0.00    +0.052 C 
ATOM     14  C   UNL     1      34.316 -20.121 -21.935  0.00  0.00    +0.026 C 
ATOM     15  C   UNL     1      36.300 -19.290 -20.833  0.00  0.00    +0.015 C 
ATOM     16  C   UNL     1      34.555 -19.263 -23.009  0.00  0.00    +0.059 C 
ATOM     17  C   UNL     1      36.538 -18.433 -21.907  0.00  0.00    +0.002 C 
ATOM     18  C   UNL     1      35.665 -18.419 -22.994  0.00  0.00    +0.011 C 
ENDBRANCH   5  13
BRANCH   6  19
ATOM     19  C   UNL     1      31.704 -25.075 -14.352  0.00  0.00    +0.056 C 
BRANCH  19  20
ATOM     20  C   UNL     1      32.653 -24.856 -13.175  0.00  0.00    +0.093 C 
BRANCH  20  22
ATOM     21  S   UNL     1      36.916 -26.135 -14.489  0.00  0.00    -0.101 S 
ATOM     22  N   UNL     1      33.992 -25.229 -13.519  0.00  0.00    -0.320 N 
ATOM     23  N   UNL     1      34.883 -24.506 -11.435  0.00  0.00    -0.233 NA
ATOM     24  N   UNL     1      37.237 -24.681 -10.900  0.00  0.00    -0.247 NA
ATOM     25  C   UNL     1      35.085 -25.051 -12.651  0.00  0.00    +0.118 C 
ATOM     26  C   UNL     1      36.370 -25.427 -13.024  0.00  0.00    +0.145 C 
ATOM     27  C   UNL     1      37.423 -25.230 -12.131  0.00  0.00    +0.073 C 
ATOM     28  C   UNL     1      38.669 -25.669 -12.671  0.00  0.00    +0.022 C 
ATOM     29  C   UNL     1      38.534 -26.181 -13.942  0.00  0.00    +0.033 C 
ATOM     30  C   UNL     1      35.960 -24.355 -10.642  0.00  0.00    +0.251 C 
ATOM     31  H   UNL     1      34.155 -25.628 -14.404  0.00  0.00    +0.148 HD
ENDBRANCH  20  22
ENDBRANCH  19  20
ENDBRANCH   6  19
TORSDOF 4
ENDMDL
MODEL 6
REMARK VINA RESULT:     -10.5      1.923      2.495
REMARK  Name = 24995524
REMARK  4 active torsions:
REMARK  status: ('A' for Active; 'I' for Inactive)
REMARK    1  A    between atoms: N_5  and  C_13
REMARK    2  A    between atoms: C_6  and  C_19
REMARK    3  A    between atoms: C_19  and  C_20
REMARK    4  A    between atoms: C_20  and  N_22
REMARK                            x       y       z     vdW  Elec       q    Type
REMARK                         _______ _______ _______ _____ _____    ______ ____
ROOT
ATOM      1  S   UNL     1      34.279 -21.400 -19.832  0.00  0.00    -0.056 S 
ATOM      2  O   UNL     1      37.068 -22.381 -16.219  0.00  0.00    -0.252 OA
ATOM      3  N   UNL     1      36.616 -20.957 -18.821  0.00  0.00    -0.223 NA
ATOM      4  N   UNL     1      35.152 -22.411 -17.577  0.00  0.00    -0.248 N 
ATOM      5  N   UNL     1      35.197 -23.637 -15.590  0.00  0.00    -0.268 N 
ATOM      6  C   UNL     1      35.345 -20.369 -20.694  0.00  0.00    +0.031 C 
ATOM      7  C   UNL     1      36.534 -20.253 -20.006  0.00  0.00    +0.103 C 
ATOM      8  C   UNL     1      35.485 -21.599 -18.628  0.00  0.00    +0.166 C 
ATOM      9  C   UNL     1      35.926 -22.776 -16.428  0.00  0.00    +0.310 C 
ATOM     10  H   UNL     1      34.249 -22.801 -17.617  0.00  0.00    +0.158 HD
ATOM     11  H   UNL     1      34.289 -23.866 -15.892  0.00  0.00    +0.156 HD
ENDROOT
BRANCH   5  13
ATOM     12 CL   UNL     1      38.814 -26.134 -12.935  0.00  0.00    -0.082 Cl
ATOM     13  C   UNL     1      35.609 -24.215 -14.367  0.00  0.00    +0.052 C 
ATOM     14  C   UNL     1      36.863 -24.818 -14.267  0.00  0.00    +0.026 C 
ATOM     15  C   UNL     1      34.761 -24.181 -13.259  0.00  0.00    +0.015 C 
ATOM     16  C   UNL     1      37.267 -25.388 -13.059  0.00  0.00    +0.059 C 
ATOM     17  C   UNL     1      35.165 -24.751 -12.053  0.00  0.00    +0.002 C 
ATOM     18  C   UNL     1      36.419 -25.354 -11.953  0.00  0.00    +0.011 C 
ENDBRANCH   5  13
BRANCH   6  19
ATOM     19  C   UNL     1      34.920 -19.747 -22.003  0.00  0.00    +0.056 C 
BRANCH  19  20
ATOM     20  C   UNL     1      35.832 -18.604 -22.446  0.00  0.00    +0.093 C 
BRANCH  20  22
ATOM     21  S   UNL     1      34.183 -14.544 -20.917  0.00  0.00    -0.101 S 
ATOM     22  N   UNL     1      35.301 -17.338 -22.038  0.00  0.00    -0.320 N 
ATOM     23  N   UNL     1      34.533 -16.793 -24.223  0.00  0.00    -0.233 NA
ATOM     24  N   UNL     1      33.397 -14.714 -24.718  0.00  0.00    -0.247 NA
ATOM     25  C   UNL     1      34.662 -16.452 -22.926  0.00  0.00    +0.118 C 
ATOM     26  C   UNL     1      34.160 -15.232 -22.489  0.00  0.00    +0.145 C 
ATOM     27  C   UNL     1      33.535 -14.386 -23.405  0.00  0.00    +0.073 C 
ATOM     28  C   UNL     1      33.081 -13.180 -22.792  0.00  0.00    +0.022 C 
ATOM     29  C   UNL     1      33.369 -13.138 -21.446  0.00  0.00    +0.033 C 
ATOM     30  C   UNL     1      33.915 -15.913 -25.032  0.00  0.00    +0.251 C 
ATOM     31  H   UNL     1      35.389 -17.074 -21.093  0.00  0.00    +0.148 HD
ENDBRANCH  20  22
ENDBRANCH  19  20
ENDBRANCH   6  19
TORSDOF 4
ENDMDL
MODEL 7
REMARK VINA RESULT:     -10.0      6.712     13.123
REMARK  Name = 24995524
REMARK  4 active torsions:
REMARK  status: ('A' for Active; 'I' for Inactive)
REMARK    1  A    between atoms: N_5  and  C_13
REMARK    2  A    between atoms: C_6  and  C_19
REMARK    3  A    between atoms: C_19  and  C_20
REMARK    4  A    between atoms: C_20  and  N_22
REMARK                            x       y       z     vdW  Elec       q    Type
REMARK                         _______ _______ _______ _____ _____    ______ ____
ROOT
ATOM      1  S   UNL     1      34.193 -14.553 -22.773  0.00  0.00    -0.056 S 
ATOM      2  O   UNL     1      32.484 -10.478 -24.279  0.00  0.00    -0.252 OA
ATOM      3  N   UNL     1      33.126 -13.361 -24.804  0.00  0.00    -0.223 NA
ATOM      4  N   UNL     1      33.454 -12.039 -22.816  0.00  0.00    -0.248 N 
ATOM      5  N   UNL     1      33.077  -9.847 -22.106  0.00  0.00    -0.268 N 
ATOM      6  C   UNL     1      33.947 -15.468 -24.203  0.00  0.00    +0.031 C 
ATOM      7  C   UNL     1      33.373 -14.670 -25.170  0.00  0.00    +0.103 C 
ATOM      8  C   UNL     1      33.518 -13.186 -23.561  0.00  0.00    +0.166 C 
ATOM      9  C   UNL     1      32.953 -10.746 -23.178  0.00  0.00    +0.310 C 
ATOM     10  H   UNL     1      33.802 -12.114 -21.898  0.00  0.00    +0.158 HD
ATOM     11  H   UNL     1      33.475 -10.210 -21.282  0.00  0.00    +0.156 HD
ENDROOT
BRANCH   5  13
ATOM     12 CL   UNL     1      33.400  -5.160 -24.179  0.00  0.00    -0.082 Cl
ATOM     13  C   UNL     1      32.700  -8.484 -22.066  0.00  0.00    +0.052 C 
ATOM     14  C   UNL     1      33.180  -7.599 -23.030  0.00  0.00    +0.026 C 
ATOM     15  C   UNL     1      31.848  -8.026 -21.060  0.00  0.00    +0.015 C 
ATOM     16  C   UNL     1      32.807  -6.254 -22.988  0.00  0.00    +0.059 C 
ATOM     17  C   UNL     1      31.477  -6.683 -21.018  0.00  0.00    +0.002 C 
ATOM     18  C   UNL     1      31.956  -5.797 -21.983  0.00  0.00    +0.011 C 
ENDBRANCH   5  13
BRANCH   6  19
ATOM     19  C   UNL     1      34.346 -16.923 -24.262  0.00  0.00    +0.056 C 
BRANCH  19  20
ATOM     20  C   UNL     1      35.244 -17.345 -23.101  0.00  0.00    +0.093 C 
BRANCH  20  22
ATOM     21  S   UNL     1      32.986 -20.533 -20.596  0.00  0.00    -0.101 S 
ATOM     22  N   UNL     1      34.607 -18.345 -22.298  0.00  0.00    -0.320 N 
ATOM     23  N   UNL     1      36.632 -18.972 -21.216  0.00  0.00    -0.233 NA
ATOM     24  N   UNL     1      36.719 -20.712 -19.536  0.00  0.00    -0.247 NA
ATOM     25  C   UNL     1      35.304 -19.142 -21.370  0.00  0.00    +0.118 C 
ATOM     26  C   UNL     1      34.647 -20.103 -20.609  0.00  0.00    +0.145 C 
ATOM     27  C   UNL     1      35.378 -20.871 -19.703  0.00  0.00    +0.073 C 
ATOM     28  C   UNL     1      34.553 -21.805 -19.009  0.00  0.00    +0.022 C 
ATOM     29  C   UNL     1      33.235 -21.726 -19.398  0.00  0.00    +0.033 C 
ATOM     30  C   UNL     1      37.252 -19.759 -20.318  0.00  0.00    +0.251 C 
ATOM     31  H   UNL     1      33.637 -18.482 -22.400  0.00  0.00    +0.148 HD
ENDBRANCH  20  22
ENDBRANCH  19  20
ENDBRANCH   6  19
TORSDOF 4
ENDMDL
MODEL 8
REMARK VINA RESULT:      -9.9      5.984     12.529
REMARK  Name = 24995524
REMARK  4 active torsions:
REMARK  status: ('A' for Active; 'I' for Inactive)
REMARK    1  A    between atoms: N_5  and  C_13
REMARK    2  A    between atoms: C_6  and  C_19
REMARK    3  A    between atoms: C_19  and  C_20
REMARK    4  A    between atoms: C_20  and  N_22
REMARK                            x       y       z     vdW  Elec       q    Type
REMARK                         _______ _______ _______ _____ _____    ______ ____
ROOT
ATOM      1  S   UNL     1      34.940 -16.345 -22.233  0.00  0.00    -0.056 S 
ATOM      2  O   UNL     1      33.409 -12.786 -24.839  0.00  0.00    -0.252 OA
ATOM      3  N   UNL     1      34.086 -15.699 -24.585  0.00  0.00    -0.223 NA
ATOM      4  N   UNL     1      34.221 -13.930 -22.955  0.00  0.00    -0.248 N 
ATOM      5  N   UNL     1      33.787 -11.639 -22.836  0.00  0.00    -0.268 N 
ATOM      6  C   UNL     1      34.832 -17.582 -23.416  0.00  0.00    +0.031 C 
ATOM      7  C   UNL     1      34.361 -17.052 -24.599  0.00  0.00    +0.103 C 
ATOM      8  C   UNL     1      34.353 -15.222 -23.390  0.00  0.00    +0.166 C 
ATOM      9  C   UNL     1      33.765 -12.773 -23.665  0.00  0.00    +0.310 C 
ATOM     10  H   UNL     1      34.476 -13.775 -22.016  0.00  0.00    +0.158 HD
ATOM     11  H   UNL     1      34.099 -11.785 -21.914  0.00  0.00    +0.156 HD
ENDROOT
BRANCH   5  13
ATOM     12 CL   UNL     1      35.232  -6.897 -24.174  0.00  0.00    -0.082 Cl
ATOM     13  C   UNL     1      33.414 -10.314 -23.163  0.00  0.00    +0.052 C 
ATOM     14  C   UNL     1      34.393  -9.370 -23.472  0.00  0.00    +0.026 C 
ATOM     15  C   UNL     1      32.067  -9.952 -23.177  0.00  0.00    +0.015 C 
ATOM     16  C   UNL     1      34.024  -8.064 -23.794  0.00  0.00    +0.059 C 
ATOM     17  C   UNL     1      31.698  -8.647 -23.498  0.00  0.00    +0.002 C 
ATOM     18  C   UNL     1      32.677  -7.703 -23.807  0.00  0.00    +0.011 C 
ENDBRANCH   5  13
BRANCH   6  19
ATOM     19  C   UNL     1      35.228 -19.000 -23.083  0.00  0.00    +0.056 C 
BRANCH  19  20
ATOM     20  C   UNL     1      35.758 -19.155 -21.658  0.00  0.00    +0.093 C 
BRANCH  20  22
ATOM     21  S   UNL     1      32.718 -21.670 -19.214  0.00  0.00    -0.101 S 
ATOM     22  N   UNL     1      34.872 -19.955 -20.866  0.00  0.00    -0.320 N 
ATOM     23  N   UNL     1      36.631 -20.831 -19.524  0.00  0.00    -0.233 NA
ATOM     24  N   UNL     1      36.232 -22.407 -17.731  0.00  0.00    -0.247 NA
ATOM     25  C   UNL     1      35.316 -20.779 -19.815  0.00  0.00    +0.118 C 
ATOM     26  C   UNL     1      34.423 -21.540 -19.070  0.00  0.00    +0.145 C 
ATOM     27  C   UNL     1      34.909 -22.343 -18.038  0.00  0.00    +0.073 C 
ATOM     28  C   UNL     1      33.862 -23.054 -17.379  0.00  0.00    +0.022 C 
ATOM     29  C   UNL     1      32.625 -22.780 -17.918  0.00  0.00    +0.033 C 
ATOM     30  C   UNL     1      37.005 -21.634 -18.511  0.00  0.00    +0.251 C 
ATOM     31  H   UNL     1      33.909 -19.928 -21.067  0.00  0.00    +0.148 HD
ENDBRANCH  20  22
ENDBRANCH  19  20
ENDBRANCH   6  19
TORSDOF 4
ENDMDL
MODEL 9
REMARK VINA RESULT:      -9.8      4.423     10.765
REMARK  Name = 24995524
REMARK  4 active torsions:
REMARK  status: ('A' for Active; 'I' for Inactive)
REMARK    1  A    between atoms: N_5  and  C_13
REMARK    2  A    between atoms: C_6  and  C_19
REMARK    3  A    between atoms: C_19  and  C_20
REMARK    4  A    between atoms: C_20  and  N_22
REMARK                            x       y       z     vdW  Elec       q    Type
REMARK                         _______ _______ _______ _____ _____    ______ ____
ROOT
ATOM      1  S   UNL     1      34.093 -23.454 -17.240  0.00  0.00    -0.056 S 
ATOM      2  O   UNL     1      32.378 -20.323 -20.249  0.00  0.00    -0.252 OA
ATOM      3  N   UNL     1      31.956 -22.169 -17.921  0.00  0.00    -0.223 NA
ATOM      4  N   UNL     1      33.946 -21.727 -19.206  0.00  0.00    -0.248 N 
ATOM      5  N   UNL     1      34.587 -20.396 -21.014  0.00  0.00    -0.268 N 
ATOM      6  C   UNL     1      32.660 -23.747 -16.344  0.00  0.00    +0.031 C 
ATOM      7  C   UNL     1      31.633 -22.978 -16.850  0.00  0.00    +0.103 C 
ATOM      8  C   UNL     1      33.227 -22.337 -18.213  0.00  0.00    +0.166 C 
ATOM      9  C   UNL     1      33.521 -20.761 -20.175  0.00  0.00    +0.310 C 
ATOM     10  H   UNL     1      34.893 -21.990 -19.261  0.00  0.00    +0.158 HD
ATOM     11  H   UNL     1      35.449 -20.835 -20.832  0.00  0.00    +0.156 HD
ENDROOT
BRANCH   5  13
ATOM     12 CL   UNL     1      35.185 -15.560 -22.632  0.00  0.00    -0.082 Cl
ATOM     13  C   UNL     1      34.573 -19.475 -22.088  0.00  0.00    +0.052 C 
ATOM     14  C   UNL     1      34.854 -18.129 -21.857  0.00  0.00    +0.026 C 
ATOM     15  C   UNL     1      34.278 -19.915 -23.379  0.00  0.00    +0.015 C 
ATOM     16  C   UNL     1      34.839 -17.222 -22.917  0.00  0.00    +0.059 C 
ATOM     17  C   UNL     1      34.263 -19.008 -24.438  0.00  0.00    +0.002 C 
ATOM     18  C   UNL     1      34.544 -17.662 -24.207  0.00  0.00    +0.011 C 
ENDBRANCH   5  13
BRANCH   6  19
ATOM     19  C   UNL     1      32.659 -24.728 -15.197  0.00  0.00    +0.056 C 
BRANCH  19  20
ATOM     20  C   UNL     1      33.481 -24.252 -14.001  0.00  0.00    +0.093 C 
BRANCH  20  22
ATOM     21  S   UNL     1      37.341 -26.795 -13.580  0.00  0.00    -0.101 S 
ATOM     22  N   UNL     1      34.708 -24.984 -13.898  0.00  0.00    -0.320 N 
ATOM     23  N   UNL     1      36.005 -23.225 -14.839  0.00  0.00    -0.233 NA
ATOM     24  N   UNL     1      38.397 -23.406 -15.158  0.00  0.00    -0.247 NA
ATOM     25  C   UNL     1      35.948 -24.466 -14.316  0.00  0.00    +0.118 C 
ATOM     26  C   UNL     1      37.116 -25.210 -14.199  0.00  0.00    +0.145 C 
ATOM     27  C   UNL     1      38.322 -24.656 -14.627  0.00  0.00    +0.073 C 
ATOM     28  C   UNL     1      39.417 -25.551 -14.436  0.00  0.00    +0.022 C 
ATOM     29  C   UNL     1      39.023 -26.745 -13.877  0.00  0.00    +0.033 C 
ATOM     30  C   UNL     1      37.213 -22.775 -15.224  0.00  0.00    +0.251 C 
ATOM     31  H   UNL     1      34.682 -25.893 -13.519  0.00  0.00    +0.148 HD
ENDBRANCH  20  22
ENDBRANCH  19  20
ENDBRANCH   6  19
TORSDOF 4
ENDMDL
