MODEL 1
REMARK VINA RESULT:     -12.6      0.000      0.000
REMARK  Name = 24779676
REMARK  4 active torsions:
REMARK  status: ('A' for Active; 'I' for Inactive)
REMARK    1  A    between atoms: N_2  and  C_22
REMARK    2  A    between atoms: N_3  and  C_14
REMARK    3  A    between atoms: C_10  and  C_21
REMARK    4  A    between atoms: C_22  and  C_24
REMARK                            x       y       z     vdW  Elec       q    Type
REMARK                         _______ _______ _______ _____ _____    ______ ____
ROOT
ATOM      1  N   UNL     1      32.377 -24.614 -13.837  0.00  0.00    -0.123 N 
ATOM      2  N   UNL     1      34.172 -23.163 -17.107  0.00  0.00    -0.254 N 
ATOM      3  N   UNL     1      34.422 -24.778 -12.668  0.00  0.00    -0.274 N 
ATOM      4  N   UNL     1      34.304 -23.969 -14.892  0.00  0.00    -0.295 NA
ATOM      5  N   UNL     1      32.216 -23.817 -16.044  0.00  0.00    -0.314 NA
ATOM      6  N   UNL     1      31.671 -25.092 -12.797  0.00  0.00    -0.170 NA
ATOM      7  C   UNL     1      33.752 -24.441 -13.812  0.00  0.00    +0.279 C 
ATOM      8  C   UNL     1      31.624 -24.307 -14.933  0.00  0.00    +0.219 C 
ATOM      9  C   UNL     1      33.521 -23.660 -16.003  0.00  0.00    +0.203 C 
ATOM     10  C   UNL     1      30.327 -24.609 -14.583  0.00  0.00    +0.203 C 
ATOM     11  C   UNL     1      30.417 -25.087 -13.260  0.00  0.00    +0.116 C 
ATOM     12  H   UNL     1      35.150 -23.047 -17.073  0.00  0.00    +0.161 HD
ATOM     13  H   UNL     1      33.878 -25.125 -11.924  0.00  0.00    +0.156 HD
ENDROOT
BRANCH   3  14
ATOM     14  C   UNL     1      35.797 -24.683 -12.441  0.00  0.00    +0.051 C 
ATOM     15  C   UNL     1      36.314 -23.595 -11.740  0.00  0.00    +0.015 C 
ATOM     16  C   UNL     1      36.652 -25.677 -12.918  0.00  0.00    +0.015 C 
ATOM     17  C   UNL     1      37.688 -23.501 -11.513  0.00  0.00    +0.001 C 
ATOM     18  C   UNL     1      38.025 -25.583 -12.691  0.00  0.00    +0.001 C 
ATOM     19  C   UNL     1      38.543 -24.495 -11.989  0.00  0.00    +0.000 C 
ENDBRANCH   3  14
BRANCH  10  21
ATOM     20  N   UNL     1      28.226 -24.341 -16.059  0.00  0.00    -0.195 NA
ATOM     21  C   UNL     1      29.171 -24.462 -15.395  0.00  0.00    +0.087 C 
ENDBRANCH  10  21
BRANCH   2  22
ATOM     22  C   UNL     1      33.477 -22.811 -18.305  0.00  0.00    +0.125 C 
BRANCH  22  24
ATOM     23 CL   UNL     1      36.661 -18.837 -21.505  0.00  0.00    -0.082 Cl
ATOM     24  C   UNL     1      34.273 -21.817 -19.104  0.00  0.00    -0.002 C 
ATOM     25  C   UNL     1      35.663 -21.783 -18.991  0.00  0.00    -0.002 C 
ATOM     26  C   UNL     1      33.621 -20.929 -19.961  0.00  0.00    -0.002 C 
ATOM     27  C   UNL     1      36.401 -20.862 -19.733  0.00  0.00    +0.011 C 
ATOM     28  C   UNL     1      34.360 -20.008 -20.703  0.00  0.00    +0.011 C 
ATOM     29  C   UNL     1      35.750 -19.974 -20.589  0.00  0.00    +0.058 C 
ENDBRANCH  22  24
ENDBRANCH   2  22
TORSDOF 4
ENDMDL
MODEL 2
REMARK VINA RESULT:     -11.8      1.503      5.515
REMARK  Name = 24779676
REMARK  4 active torsions:
REMARK  status: ('A' for Active; 'I' for Inactive)
REMARK    1  A    between atoms: N_2  and  C_22
REMARK    2  A    between atoms: N_3  and  C_14
REMARK    3  A    between atoms: C_10  and  C_21
REMARK    4  A    between atoms: C_22  and  C_24
REMARK                            x       y       z     vdW  Elec       q    Type
REMARK                         _______ _______ _______ _____ _____    ______ ____
ROOT
ATOM      1  N   UNL     1      33.696 -24.152 -14.161  0.00  0.00    -0.123 N 
ATOM      2  N   UNL     1      34.191 -22.741 -17.874  0.00  0.00    -0.254 N 
ATOM      3  N   UNL     1      31.343 -24.104 -14.351  0.00  0.00    -0.274 N 
ATOM      4  N   UNL     1      32.764 -23.419 -16.119  0.00  0.00    -0.295 NA
ATOM      5  N   UNL     1      35.142 -23.481 -15.891  0.00  0.00    -0.314 NA
ATOM      6  N   UNL     1      33.649 -24.629 -12.904  0.00  0.00    -0.170 NA
ATOM      7  C   UNL     1      32.568 -23.878 -14.917  0.00  0.00    +0.279 C 
ATOM      8  C   UNL     1      34.960 -23.957 -14.639  0.00  0.00    +0.219 C 
ATOM      9  C   UNL     1      34.060 -23.225 -16.594  0.00  0.00    +0.203 C 
ATOM     10  C   UNL     1      35.801 -24.334 -13.617  0.00  0.00    +0.203 C 
ATOM     11  C   UNL     1      34.940 -24.738 -12.577  0.00  0.00    +0.116 C 
ATOM     12  H   UNL     1      33.379 -22.551 -18.397  0.00  0.00    +0.161 HD
ATOM     13  H   UNL     1      31.341 -24.453 -13.430  0.00  0.00    +0.156 HD
ENDROOT
BRANCH   3  14
ATOM     14  C   UNL     1      30.095 -23.891 -14.938  0.00  0.00    +0.051 C 
ATOM     15  C   UNL     1      29.435 -22.676 -14.755  0.00  0.00    +0.015 C 
ATOM     16  C   UNL     1      29.507 -24.895 -15.708  0.00  0.00    +0.015 C 
ATOM     17  C   UNL     1      28.187 -22.465 -15.343  0.00  0.00    +0.001 C 
ATOM     18  C   UNL     1      28.260 -24.683 -16.297  0.00  0.00    +0.001 C 
ATOM     19  C   UNL     1      27.600 -23.468 -16.113  0.00  0.00    +0.000 C 
ENDBRANCH   3  14
BRANCH  10  21
ATOM     20  N   UNL     1      38.382 -24.294 -13.647  0.00  0.00    -0.195 NA
ATOM     21  C   UNL     1      37.221 -24.312 -13.634  0.00  0.00    +0.087 C 
ENDBRANCH  10  21
BRANCH   2  22
ATOM     22  C   UNL     1      35.468 -22.502 -18.469  0.00  0.00    +0.125 C 
BRANCH  22  24
ATOM     23 CL   UNL     1      35.160 -17.924 -22.357  0.00  0.00    -0.082 Cl
ATOM     24  C   UNL     1      35.390 -21.359 -19.441  0.00  0.00    -0.002 C 
ATOM     25  C   UNL     1      34.158 -20.972 -19.969  0.00  0.00    -0.002 C 
ATOM     26  C   UNL     1      36.552 -20.681 -19.815  0.00  0.00    -0.002 C 
ATOM     27  C   UNL     1      34.087 -19.911 -20.871  0.00  0.00    +0.011 C 
ATOM     28  C   UNL     1      36.480 -19.620 -20.717  0.00  0.00    +0.011 C 
ATOM     29  C   UNL     1      35.248 -19.235 -21.244  0.00  0.00    +0.058 C 
ENDBRANCH  22  24
ENDBRANCH   2  22
TORSDOF 4
ENDMDL
MODEL 3
REMARK VINA RESULT:     -11.3      1.934      5.393
REMARK  Name = 24779676
REMARK  4 active torsions:
REMARK  status: ('A' for Active; 'I' for Inactive)
REMARK    1  A    between atoms: N_2  and  C_22
REMARK    2  A    between atoms: N_3  and  C_14
REMARK    3  A    between atoms: C_10  and  C_21
REMARK    4  A    between atoms: C_22  and  C_24
REMARK                            x       y       z     vdW  Elec       q    Type
REMARK                         _______ _______ _______ _____ _____    ______ ____
ROOT
ATOM      1  N   UNL     1      35.894 -24.899 -13.961  0.00  0.00    -0.123 N 
ATOM      2  N   UNL     1      35.607 -22.471 -17.131  0.00  0.00    -0.254 N 
ATOM      3  N   UNL     1      33.555 -24.915 -13.638  0.00  0.00    -0.274 N 
ATOM      4  N   UNL     1      34.577 -23.688 -15.389  0.00  0.00    -0.295 NA
ATOM      5  N   UNL     1      36.947 -23.695 -15.686  0.00  0.00    -0.314 NA
ATOM      6  N   UNL     1      36.108 -25.714 -12.914  0.00  0.00    -0.170 NA
ATOM      7  C   UNL     1      34.634 -24.478 -14.356  0.00  0.00    +0.279 C 
ATOM      8  C   UNL     1      37.029 -24.515 -14.614  0.00  0.00    +0.219 C 
ATOM      9  C   UNL     1      35.745 -23.304 -16.046  0.00  0.00    +0.203 C 
ATOM     10  C   UNL     1      38.064 -25.124 -13.942  0.00  0.00    +0.203 C 
ATOM     11  C   UNL     1      37.438 -25.848 -12.907  0.00  0.00    +0.116 C 
ATOM     12  H   UNL     1      34.704 -22.180 -17.397  0.00  0.00    +0.161 HD
ATOM     13  H   UNL     1      33.744 -25.510 -12.877  0.00  0.00    +0.156 HD
ENDROOT
BRANCH   3  14
ATOM     14  C   UNL     1      32.213 -24.606 -13.868  0.00  0.00    +0.051 C 
ATOM     15  C   UNL     1      31.838 -23.292 -14.150  0.00  0.00    +0.015 C 
ATOM     16  C   UNL     1      31.247 -25.612 -13.815  0.00  0.00    +0.015 C 
ATOM     17  C   UNL     1      30.496 -22.985 -14.380  0.00  0.00    +0.001 C 
ATOM     18  C   UNL     1      29.906 -25.304 -14.046  0.00  0.00    +0.001 C 
ATOM     19  C   UNL     1      29.531 -23.990 -14.328  0.00  0.00    +0.000 C 
ENDBRANCH   3  14
BRANCH  10  21
ATOM     20  N   UNL     1      40.580 -24.952 -14.492  0.00  0.00    -0.195 NA
ATOM     21  C   UNL     1      39.448 -25.029 -14.244  0.00  0.00    +0.087 C 
ENDBRANCH  10  21
BRANCH   2  22
ATOM     22  C   UNL     1      36.731 -22.011 -17.883  0.00  0.00    +0.125 C 
BRANCH  22  24
ATOM     23 CL   UNL     1      34.924 -18.645 -22.528  0.00  0.00    -0.082 Cl
ATOM     24  C   UNL     1      36.280 -21.169 -19.043  0.00  0.00    -0.002 C 
ATOM     25  C   UNL     1      37.163 -20.268 -19.638  0.00  0.00    -0.002 C 
ATOM     26  C   UNL     1      34.976 -21.290 -19.528  0.00  0.00    -0.002 C 
ATOM     27  C   UNL     1      36.744 -19.487 -20.715  0.00  0.00    +0.011 C 
ATOM     28  C   UNL     1      34.558 -20.510 -20.605  0.00  0.00    +0.011 C 
ATOM     29  C   UNL     1      35.441 -19.609 -21.199  0.00  0.00    +0.058 C 
ENDBRANCH  22  24
ENDBRANCH   2  22
TORSDOF 4
ENDMDL
MODEL 4
REMARK VINA RESULT:     -10.4      2.642      6.809
REMARK  Name = 24779676
REMARK  4 active torsions:
REMARK  status: ('A' for Active; 'I' for Inactive)
REMARK    1  A    between atoms: N_2  and  C_22
REMARK    2  A    between atoms: N_3  and  C_14
REMARK    3  A    between atoms: C_10  and  C_21
REMARK    4  A    between atoms: C_22  and  C_24
REMARK                            x       y       z     vdW  Elec       q    Type
REMARK                         _______ _______ _______ _____ _____    ______ ____
ROOT
ATOM      1  N   UNL     1      31.854 -23.298 -16.275  0.00  0.00    -0.123 N 
ATOM      2  N   UNL     1      35.549 -23.223 -14.736  0.00  0.00    -0.254 N 
ATOM      3  N   UNL     1      32.557 -22.239 -18.265  0.00  0.00    -0.274 N 
ATOM      4  N   UNL     1      34.060 -22.729 -16.501  0.00  0.00    -0.295 NA
ATOM      5  N   UNL     1      33.313 -23.801 -14.500  0.00  0.00    -0.314 NA
ATOM      6  N   UNL     1      30.578 -23.377 -16.692  0.00  0.00    -0.170 NA
ATOM      7  C   UNL     1      32.872 -22.738 -17.031  0.00  0.00    +0.279 C 
ATOM      8  C   UNL     1      32.071 -23.820 -15.033  0.00  0.00    +0.219 C 
ATOM      9  C   UNL     1      34.267 -23.266 -15.231  0.00  0.00    +0.203 C 
ATOM     10  C   UNL     1      30.844 -24.273 -14.605  0.00  0.00    +0.203 C 
ATOM     11  C   UNL     1      29.965 -23.975 -15.666  0.00  0.00    +0.116 C 
ATOM     12  H   UNL     1      36.260 -22.822 -15.286  0.00  0.00    +0.161 HD
ATOM     13  H   UNL     1      31.614 -22.312 -18.542  0.00  0.00    +0.156 HD
ENDROOT
BRANCH   3  14
ATOM     14  C   UNL     1      33.428 -21.637 -19.175  0.00  0.00    +0.051 C 
ATOM     15  C   UNL     1      32.944 -20.702 -20.090  0.00  0.00    +0.015 C 
ATOM     16  C   UNL     1      34.782 -21.971 -19.168  0.00  0.00    +0.015 C 
ATOM     17  C   UNL     1      33.816 -20.100 -20.998  0.00  0.00    +0.001 C 
ATOM     18  C   UNL     1      35.654 -21.368 -20.076  0.00  0.00    +0.001 C 
ATOM     19  C   UNL     1      35.170 -20.433 -20.991  0.00  0.00    +0.000 C 
ENDBRANCH   3  14
BRANCH  10  21
ATOM     20  N   UNL     1      30.318 -25.413 -12.350  0.00  0.00    -0.195 NA
ATOM     21  C   UNL     1      30.555 -24.900 -13.364  0.00  0.00    +0.087 C 
ENDBRANCH  10  21
BRANCH   2  22
ATOM     22  C   UNL     1      35.882 -23.742 -13.447  0.00  0.00    +0.125 C 
BRANCH  22  24
ATOM     23 CL   UNL     1      41.013 -26.870 -13.701  0.00  0.00    -0.082 Cl
ATOM     24  C   UNL     1      37.165 -24.524 -13.510  0.00  0.00    -0.002 C 
ATOM     25  C   UNL     1      37.523 -25.365 -12.456  0.00  0.00    -0.002 C 
ATOM     26  C   UNL     1      37.998 -24.409 -14.624  0.00  0.00    -0.002 C 
ATOM     27  C   UNL     1      38.713 -26.090 -12.515  0.00  0.00    +0.011 C 
ATOM     28  C   UNL     1      39.187 -25.135 -14.682  0.00  0.00    +0.011 C 
ATOM     29  C   UNL     1      39.544 -25.975 -13.628  0.00  0.00    +0.058 C 
ENDBRANCH  22  24
ENDBRANCH   2  22
TORSDOF 4
ENDMDL
MODEL 5
REMARK VINA RESULT:     -10.0      3.051      7.444
REMARK  Name = 24779676
REMARK  4 active torsions:
REMARK  status: ('A' for Active; 'I' for Inactive)
REMARK    1  A    between atoms: N_2  and  C_22
REMARK    2  A    between atoms: N_3  and  C_14
REMARK    3  A    between atoms: C_10  and  C_21
REMARK    4  A    between atoms: C_22  and  C_24
REMARK                            x       y       z     vdW  Elec       q    Type
REMARK                         _______ _______ _______ _____ _____    ______ ____
ROOT
ATOM      1  N   UNL     1      36.585 -23.261 -15.881  0.00  0.00    -0.123 N 
ATOM      2  N   UNL     1      32.613 -23.606 -16.237  0.00  0.00    -0.254 N 
ATOM      3  N   UNL     1      36.739 -21.910 -17.811  0.00  0.00    -0.274 N 
ATOM      4  N   UNL     1      34.669 -22.757 -17.028  0.00  0.00    -0.295 NA
ATOM      5  N   UNL     1      34.551 -24.122 -15.071  0.00  0.00    -0.314 NA
ATOM      6  N   UNL     1      37.911 -23.213 -15.663  0.00  0.00    -0.170 NA
ATOM      7  C   UNL     1      35.961 -22.623 -16.941  0.00  0.00    +0.279 C 
ATOM      8  C   UNL     1      35.893 -23.997 -14.963  0.00  0.00    +0.219 C 
ATOM      9  C   UNL     1      33.976 -23.511 -16.083  0.00  0.00    +0.203 C 
ATOM     10  C   UNL     1      36.838 -24.466 -14.080  0.00  0.00    +0.203 C 
ATOM     11  C   UNL     1      38.060 -23.952 -14.560  0.00  0.00    +0.116 C 
ATOM     12  H   UNL     1      32.185 -23.147 -16.996  0.00  0.00    +0.161 HD
ATOM     13  H   UNL     1      37.706 -21.893 -17.625  0.00  0.00    +0.156 HD
ENDROOT
BRANCH   3  14
ATOM     14  C   UNL     1      36.309 -21.202 -18.935  0.00  0.00    +0.051 C 
ATOM     15  C   UNL     1      35.031 -21.420 -19.449  0.00  0.00    +0.015 C 
ATOM     16  C   UNL     1      37.158 -20.278 -19.544  0.00  0.00    +0.015 C 
ATOM     17  C   UNL     1      34.602 -20.712 -20.573  0.00  0.00    +0.001 C 
ATOM     18  C   UNL     1      36.728 -19.570 -20.667  0.00  0.00    +0.001 C 
ATOM     19  C   UNL     1      35.450 -19.788 -21.181  0.00  0.00    +0.000 C 
ENDBRANCH   3  14
BRANCH  10  21
ATOM     20  N   UNL     1      36.419 -25.954 -12.012  0.00  0.00    -0.195 NA
ATOM     21  C   UNL     1      36.608 -25.285 -12.942  0.00  0.00    +0.087 C 
ENDBRANCH  10  21
BRANCH   2  22
ATOM     22  C   UNL     1      31.796 -24.351 -15.331  0.00  0.00    +0.125 C 
BRANCH  22  24
ATOM     23 CL   UNL     1      26.116 -22.384 -15.514  0.00  0.00    -0.082 Cl
ATOM     24  C   UNL     1      30.376 -23.860 -15.376  0.00  0.00    -0.002 C 
ATOM     25  C   UNL     1      30.015 -22.704 -14.683  0.00  0.00    -0.002 C 
ATOM     26  C   UNL     1      29.419 -24.558 -16.113  0.00  0.00    -0.002 C 
ATOM     27  C   UNL     1      28.697 -22.248 -14.725  0.00  0.00    +0.011 C 
ATOM     28  C   UNL     1      28.102 -24.102 -16.156  0.00  0.00    +0.011 C 
ATOM     29  C   UNL     1      27.741 -22.947 -15.462  0.00  0.00    +0.058 C 
ENDBRANCH  22  24
ENDBRANCH   2  22
TORSDOF 4
ENDMDL
