MODEL 1
REMARK VINA RESULT:     -11.9      0.000      0.000
REMARK  Name = 444746
REMARK  6 active torsions:
REMARK  status: ('A' for Active; 'I' for Inactive)
REMARK    1  A    between atoms: C_1  and  C_9
REMARK    2  A    between atoms: C_1  and  N_13
REMARK    3  A    between atoms: C_1  and  C_27
REMARK    4  A    between atoms: C_4  and  O_10
REMARK    5  A    between atoms: C_14  and  C_18
REMARK    6  A    between atoms: C_27  and  C_29
REMARK                            x       y       z     vdW  Elec       q    Type
REMARK                         _______ _______ _______ _____ _____    ______ ____
ROOT
ATOM      1  C   UNL     1      35.094 -22.910 -15.506  0.00  0.00    +0.153 C 
ENDROOT
BRANCH   1   9
ATOM      2  O   UNL     1      37.286 -23.502 -16.183  0.00  0.00    -0.273 OA
ATOM      3  N   UNL     1      36.770 -23.832 -13.942  0.00  0.00    -0.278 N 
ATOM      4  C   UNL     1      37.106 -25.655 -11.722  0.00  0.00    +0.114 C 
ATOM      5  C   UNL     1      38.046 -25.679 -12.929  0.00  0.00    +0.051 C 
ATOM      6  C   UNL     1      35.729 -25.126 -12.120  0.00  0.00    +0.051 C 
ATOM      7  C   UNL     1      38.112 -24.313 -13.604  0.00  0.00    +0.096 C 
ATOM      8  C   UNL     1      35.834 -23.769 -12.811  0.00  0.00    +0.096 C 
ATOM      9  C   UNL     1      36.483 -23.439 -15.249  0.00  0.00    +0.244 C 
BRANCH   4  10
ATOM     10  O   UNL     1      36.959 -26.969 -11.199  0.00  0.00    -0.384 OA
ATOM     11  H   UNL     1      36.023 -27.137 -11.007  0.00  0.00    +0.210 HD
ENDBRANCH   4  10
ENDBRANCH   1   9
BRANCH   1  13
ATOM     12  O   UNL     1      34.421 -23.639 -18.145  0.00  0.00    -0.269 OA
ATOM     13  N   UNL     1      35.258 -22.089 -16.670  0.00  0.00    -0.294 N 
ATOM     14  C   UNL     1      34.900 -22.520 -17.952  0.00  0.00    +0.260 C 
ATOM     15  H   UNL     1      35.638 -21.187 -16.564  0.00  0.00    +0.150 HD
BRANCH  14  18
ATOM     16 CL   UNL     1      34.896 -17.667 -23.887  0.00  0.00    -0.082 Cl
ATOM     17  N   UNL     1      36.272 -20.922 -19.235  0.00  0.00    -0.309 N 
ATOM     18  C   UNL     1      35.099 -21.553 -19.039  0.00  0.00    +0.102 C 
ATOM     19  C   UNL     1      34.188 -21.166 -19.959  0.00  0.00    +0.020 C 
ATOM     20  C   UNL     1      34.842 -20.219 -20.797  0.00  0.00    +0.016 C 
ATOM     21  C   UNL     1      36.148 -20.084 -20.321  0.00  0.00    +0.048 C 
ATOM     22  C   UNL     1      34.447 -19.461 -21.917  0.00  0.00    +0.013 C 
ATOM     23  C   UNL     1      37.083 -19.226 -20.911  0.00  0.00    +0.015 C 
ATOM     24  C   UNL     1      35.371 -18.597 -22.518  0.00  0.00    +0.058 C 
ATOM     25  C   UNL     1      36.667 -18.484 -22.021  0.00  0.00    +0.013 C 
ATOM     26  H   UNL     1      37.085 -21.040 -18.692  0.00  0.00    +0.152 HD
ENDBRANCH  14  18
ENDBRANCH   1  13
BRANCH   1  27
ATOM     27  C   UNL     1      34.122 -24.064 -15.716  0.00  0.00    +0.055 C 
BRANCH  27  29
ATOM     28  F   UNL     1      28.834 -22.639 -14.453  0.00  0.00    -0.204 F 
ATOM     29  C   UNL     1      32.703 -23.681 -15.377  0.00  0.00    -0.020 C 
ATOM     30  C   UNL     1      32.327 -23.572 -14.048  0.00  0.00    -0.002 C 
ATOM     31  C   UNL     1      31.799 -23.447 -16.402  0.00  0.00    -0.002 C 
ATOM     32  C   UNL     1      31.015 -23.220 -13.734  0.00  0.00    +0.029 C 
ATOM     33  C   UNL     1      30.486 -23.093 -16.088  0.00  0.00    +0.029 C 
ATOM     34  C   UNL     1      30.094 -22.980 -14.754  0.00  0.00    +0.140 C 
ENDBRANCH  27  29
ENDBRANCH   1  27
TORSDOF 6
ENDMDL
MODEL 2
REMARK VINA RESULT:     -11.5     11.480     16.300
REMARK  Name = 444746
REMARK  6 active torsions:
REMARK  status: ('A' for Active; 'I' for Inactive)
REMARK    1  A    between atoms: C_1  and  C_9
REMARK    2  A    between atoms: C_1  and  N_13
REMARK    3  A    between atoms: C_1  and  C_27
REMARK    4  A    between atoms: C_4  and  O_10
REMARK    5  A    between atoms: C_14  and  C_18
REMARK    6  A    between atoms: C_27  and  C_29
REMARK                            x       y       z     vdW  Elec       q    Type
REMARK                         _______ _______ _______ _____ _____    ______ ____
ROOT
ATOM      1  C   UNL     1      33.135  -9.268 -23.077  0.00  0.00    +0.153 C 
ENDROOT
BRANCH   1   9
ATOM      2  O   UNL     1      35.433  -8.793 -23.408  0.00  0.00    -0.273 OA
ATOM      3  N   UNL     1      33.929  -7.571 -24.688  0.00  0.00    -0.278 N 
ATOM      4  C   UNL     1      33.371  -4.933 -25.734  0.00  0.00    +0.114 C 
ATOM      5  C   UNL     1      34.777  -5.337 -25.287  0.00  0.00    +0.051 C 
ATOM      6  C   UNL     1      32.312  -5.733 -24.976  0.00  0.00    +0.051 C 
ATOM      7  C   UNL     1      34.980  -6.844 -25.404  0.00  0.00    +0.096 C 
ATOM      8  C   UNL     1      32.558  -7.234 -25.098  0.00  0.00    +0.096 C 
ATOM      9  C   UNL     1      34.273  -8.529 -23.735  0.00  0.00    +0.244 C 
BRANCH   4  10
ATOM     10  O   UNL     1      33.165  -3.548 -25.484  0.00  0.00    -0.384 OA
ATOM     11  H   UNL     1      32.819  -3.123 -26.285  0.00  0.00    +0.210 HD
ENDBRANCH   4  10
ENDBRANCH   1   9
BRANCH   1  13
ATOM     12  O   UNL     1      31.557 -11.491 -22.359  0.00  0.00    -0.269 OA
ATOM     13  N   UNL     1      33.538 -10.641 -23.154  0.00  0.00    -0.294 N 
ATOM     14  C   UNL     1      32.697 -11.695 -22.778  0.00  0.00    +0.260 C 
ATOM     15  H   UNL     1      34.441 -10.853 -23.483  0.00  0.00    +0.150 HD
BRANCH  14  18
ATOM     16 CL   UNL     1      35.893 -18.662 -22.618  0.00  0.00    -0.082 Cl
ATOM     17  N   UNL     1      33.100 -13.746 -24.088  0.00  0.00    -0.309 N 
ATOM     18  C   UNL     1      33.241 -13.049 -22.944  0.00  0.00    +0.102 C 
ATOM     19  C   UNL     1      33.928 -13.766 -22.029  0.00  0.00    +0.020 C 
ATOM     20  C   UNL     1      34.242 -15.010 -22.647  0.00  0.00    +0.016 C 
ATOM     21  C   UNL     1      33.711 -14.971 -23.938  0.00  0.00    +0.048 C 
ATOM     22  C   UNL     1      34.928 -16.168 -22.231  0.00  0.00    +0.013 C 
ATOM     23  C   UNL     1      33.832 -16.036 -24.837  0.00  0.00    +0.015 C 
ATOM     24  C   UNL     1      35.056 -17.242 -23.119  0.00  0.00    +0.058 C 
ATOM     25  C   UNL     1      34.517 -17.174 -24.401  0.00  0.00    +0.013 C 
ATOM     26  H   UNL     1      32.637 -13.432 -24.898  0.00  0.00    +0.152 HD
ENDBRANCH  14  18
ENDBRANCH   1  13
BRANCH   1  27
ATOM     27  C   UNL     1      32.943  -8.775 -21.649  0.00  0.00    +0.055 C 
BRANCH  27  29
ATOM     28  F   UNL     1      30.670  -3.638 -21.469  0.00  0.00    -0.204 F 
ATOM     29  C   UNL     1      32.333  -7.397 -21.600  0.00  0.00    -0.020 C 
ATOM     30  C   UNL     1      30.968  -7.250 -21.790  0.00  0.00    -0.002 C 
ATOM     31  C   UNL     1      33.149  -6.299 -21.368  0.00  0.00    -0.002 C 
ATOM     32  C   UNL     1      30.404  -5.975 -21.747  0.00  0.00    +0.029 C 
ATOM     33  C   UNL     1      32.585  -5.024 -21.323  0.00  0.00    +0.029 C 
ATOM     34  C   UNL     1      31.212  -4.862 -21.513  0.00  0.00    +0.140 C 
ENDBRANCH  27  29
ENDBRANCH   1  27
TORSDOF 6
ENDMDL
MODEL 3
REMARK VINA RESULT:     -11.4      2.877      4.782
REMARK  Name = 444746
REMARK  6 active torsions:
REMARK  status: ('A' for Active; 'I' for Inactive)
REMARK    1  A    between atoms: C_1  and  C_9
REMARK    2  A    between atoms: C_1  and  N_13
REMARK    3  A    between atoms: C_1  and  C_27
REMARK    4  A    between atoms: C_4  and  O_10
REMARK    5  A    between atoms: C_14  and  C_18
REMARK    6  A    between atoms: C_27  and  C_29
REMARK                            x       y       z     vdW  Elec       q    Type
REMARK                         _______ _______ _______ _____ _____    ______ ____
ROOT
ATOM      1  C   UNL     1      33.943 -23.633 -16.403  0.00  0.00    +0.153 C 
ENDROOT
BRANCH   1   9
ATOM      2  O   UNL     1      31.872 -22.644 -16.993  0.00  0.00    -0.273 OA
ATOM      3  N   UNL     1      31.787 -24.395 -15.468  0.00  0.00    -0.278 N 
ATOM      4  C   UNL     1      30.510 -25.301 -13.036  0.00  0.00    +0.114 C 
ATOM      5  C   UNL     1      29.880 -24.220 -13.918  0.00  0.00    +0.051 C 
ATOM      6  C   UNL     1      32.030 -25.306 -13.191  0.00  0.00    +0.051 C 
ATOM      7  C   UNL     1      30.325 -24.366 -15.370  0.00  0.00    +0.096 C 
ATOM      8  C   UNL     1      32.439 -25.431 -14.656  0.00  0.00    +0.096 C 
ATOM      9  C   UNL     1      32.442 -23.507 -16.321  0.00  0.00    +0.244 C 
BRANCH   4  10
ATOM     10  O   UNL     1      30.189 -25.058 -11.673  0.00  0.00    -0.384 OA
ATOM     11  H   UNL     1      30.097 -24.103 -11.527  0.00  0.00    +0.210 HD
ENDBRANCH   4  10
ENDBRANCH   1   9
BRANCH   1  13
ATOM     12  O   UNL     1      34.058 -23.935 -19.204  0.00  0.00    -0.269 OA
ATOM     13  N   UNL     1      34.314 -22.614 -17.341  0.00  0.00    -0.294 N 
ATOM     14  C   UNL     1      34.348 -22.839 -18.722  0.00  0.00    +0.260 C 
ATOM     15  H   UNL     1      34.554 -21.722 -17.002  0.00  0.00    +0.150 HD
BRANCH  14  18
ATOM     16 CL   UNL     1      35.215 -16.782 -23.342  0.00  0.00    -0.082 Cl
ATOM     17  N   UNL     1      35.981 -21.231 -19.635  0.00  0.00    -0.309 N 
ATOM     18  C   UNL     1      34.716 -21.688 -19.557  0.00  0.00    +0.102 C 
ATOM     19  C   UNL     1      33.892 -20.947 -20.330  0.00  0.00    +0.020 C 
ATOM     20  C   UNL     1      34.704 -19.950 -20.941  0.00  0.00    +0.016 C 
ATOM     21  C   UNL     1      36.010 -20.151 -20.488  0.00  0.00    +0.048 C 
ATOM     22  C   UNL     1      34.453 -18.893 -21.838  0.00  0.00    +0.013 C 
ATOM     23  C   UNL     1      37.081 -19.344 -20.888  0.00  0.00    +0.015 C 
ATOM     24  C   UNL     1      35.514 -18.077 -22.247  0.00  0.00    +0.058 C 
ATOM     25  C   UNL     1      36.806 -18.302 -21.778  0.00  0.00    +0.013 C 
ATOM     26  H   UNL     1      36.757 -21.608 -19.161  0.00  0.00    +0.152 HD
ENDBRANCH  14  18
ENDBRANCH   1  13
BRANCH   1  27
ATOM     27  C   UNL     1      34.563 -23.438 -15.026  0.00  0.00    +0.055 C 
BRANCH  27  29
ATOM     28  F   UNL     1      39.283 -26.423 -14.388  0.00  0.00    -0.204 F 
ATOM     29  C   UNL     1      35.830 -24.239 -14.855  0.00  0.00    -0.020 C 
ATOM     30  C   UNL     1      37.053 -23.589 -14.872  0.00  0.00    -0.002 C 
ATOM     31  C   UNL     1      35.748 -25.613 -14.684  0.00  0.00    -0.002 C 
ATOM     32  C   UNL     1      38.225 -24.329 -14.715  0.00  0.00    +0.029 C 
ATOM     33  C   UNL     1      36.919 -26.354 -14.525  0.00  0.00    +0.029 C 
ATOM     34  C   UNL     1      38.158 -25.712 -14.542  0.00  0.00    +0.140 C 
ENDBRANCH  27  29
ENDBRANCH   1  27
TORSDOF 6
ENDMDL
MODEL 4
REMARK VINA RESULT:     -11.2      1.308      1.435
REMARK  Name = 444746
REMARK  6 active torsions:
REMARK  status: ('A' for Active; 'I' for Inactive)
REMARK    1  A    between atoms: C_1  and  C_9
REMARK    2  A    between atoms: C_1  and  N_13
REMARK    3  A    between atoms: C_1  and  C_27
REMARK    4  A    between atoms: C_4  and  O_10
REMARK    5  A    between atoms: C_14  and  C_18
REMARK    6  A    between atoms: C_27  and  C_29
REMARK                            x       y       z     vdW  Elec       q    Type
REMARK                         _______ _______ _______ _____ _____    ______ ____
ROOT
ATOM      1  C   UNL     1      33.968 -24.020 -15.227  0.00  0.00    +0.153 C 
ENDROOT
BRANCH   1   9
ATOM      2  O   UNL     1      35.197 -25.990 -15.704  0.00  0.00    -0.273 OA
ATOM      3  N   UNL     1      36.170 -24.498 -14.212  0.00  0.00    -0.278 N 
ATOM      4  C   UNL     1      37.668 -24.321 -11.744  0.00  0.00    +0.114 C 
ATOM      5  C   UNL     1      37.641 -25.605 -12.575  0.00  0.00    +0.051 C 
ATOM      6  C   UNL     1      36.394 -23.506 -11.967  0.00  0.00    +0.051 C 
ATOM      7  C   UNL     1      37.383 -25.303 -14.048  0.00  0.00    +0.096 C 
ATOM      8  C   UNL     1      36.156 -23.241 -13.451  0.00  0.00    +0.096 C 
ATOM      9  C   UNL     1      35.163 -24.929 -15.075  0.00  0.00    +0.244 C 
BRANCH   4  10
ATOM     10  O   UNL     1      37.772 -24.642 -10.363  0.00  0.00    -0.384 OA
ATOM     11  H   UNL     1      38.631 -24.343 -10.025  0.00  0.00    +0.210 HD
ENDBRANCH   4  10
ENDBRANCH   1   9
BRANCH   1  13
ATOM     12  O   UNL     1      33.515 -24.356 -17.989  0.00  0.00    -0.269 OA
ATOM     13  N   UNL     1      34.369 -23.109 -16.258  0.00  0.00    -0.294 N 
ATOM     14  C   UNL     1      34.108 -23.344 -17.613  0.00  0.00    +0.260 C 
ATOM     15  H   UNL     1      34.846 -22.286 -16.005  0.00  0.00    +0.150 HD
BRANCH  14  18
ATOM     16 CL   UNL     1      35.388 -17.862 -22.818  0.00  0.00    -0.082 Cl
ATOM     17  N   UNL     1      35.832 -21.887 -18.607  0.00  0.00    -0.309 N 
ATOM     18  C   UNL     1      34.552 -22.302 -18.548  0.00  0.00    +0.102 C 
ATOM     19  C   UNL     1      33.791 -21.633 -19.442  0.00  0.00    +0.020 C 
ATOM     20  C   UNL     1      34.662 -20.730 -20.113  0.00  0.00    +0.016 C 
ATOM     21  C   UNL     1      35.936 -20.909 -19.571  0.00  0.00    +0.048 C 
ATOM     22  C   UNL     1      34.488 -19.773 -21.134  0.00  0.00    +0.013 C 
ATOM     23  C   UNL     1      37.050 -20.178 -19.999  0.00  0.00    +0.015 C 
ATOM     24  C   UNL     1      35.592 -19.033 -21.572  0.00  0.00    +0.058 C 
ATOM     25  C   UNL     1      36.852 -19.235 -21.012  0.00  0.00    +0.013 C 
ATOM     26  H   UNL     1      36.572 -22.227 -18.053  0.00  0.00    +0.152 HD
ENDBRANCH  14  18
ENDBRANCH   1  13
BRANCH   1  27
ATOM     27  C   UNL     1      32.732 -24.834 -15.588  0.00  0.00    +0.055 C 
BRANCH  27  29
ATOM     28  F   UNL     1      27.973 -22.019 -14.576  0.00  0.00    -0.204 F 
ATOM     29  C   UNL     1      31.455 -24.078 -15.317  0.00  0.00    -0.020 C 
ATOM     30  C   UNL     1      31.429 -23.127 -14.310  0.00  0.00    -0.002 C 
ATOM     31  C   UNL     1      30.329 -24.350 -16.079  0.00  0.00    -0.002 C 
ATOM     32  C   UNL     1      30.248 -22.429 -14.057  0.00  0.00    +0.029 C 
ATOM     33  C   UNL     1      29.148 -23.651 -15.828  0.00  0.00    +0.029 C 
ATOM     34  C   UNL     1      29.107 -22.691 -14.816  0.00  0.00    +0.140 C 
ENDBRANCH  27  29
ENDBRANCH   1  27
TORSDOF 6
ENDMDL
MODEL 5
REMARK VINA RESULT:     -10.2      3.068      5.848
REMARK  Name = 444746
REMARK  6 active torsions:
REMARK  status: ('A' for Active; 'I' for Inactive)
REMARK    1  A    between atoms: C_1  and  C_9
REMARK    2  A    between atoms: C_1  and  N_13
REMARK    3  A    between atoms: C_1  and  C_27
REMARK    4  A    between atoms: C_4  and  O_10
REMARK    5  A    between atoms: C_14  and  C_18
REMARK    6  A    between atoms: C_27  and  C_29
REMARK                            x       y       z     vdW  Elec       q    Type
REMARK                         _______ _______ _______ _____ _____    ______ ____
ROOT
ATOM      1  C   UNL     1      33.095 -24.071 -14.378  0.00  0.00    +0.153 C 
ENDROOT
BRANCH   1   9
ATOM      2  O   UNL     1      31.701 -23.130 -12.709  0.00  0.00    -0.273 OA
ATOM      3  N   UNL     1      30.890 -23.078 -14.884  0.00  0.00    -0.278 N 
ATOM      4  C   UNL     1      28.507 -23.427 -16.487  0.00  0.00    +0.114 C 
ATOM      5  C   UNL     1      28.429 -23.130 -14.989  0.00  0.00    +0.051 C 
ATOM      6  C   UNL     1      29.813 -24.145 -16.828  0.00  0.00    +0.051 C 
ATOM      7  C   UNL     1      29.662 -22.369 -14.513  0.00  0.00    +0.096 C 
ATOM      8  C   UNL     1      31.023 -23.368 -16.319  0.00  0.00    +0.096 C 
ATOM      9  C   UNL     1      31.837 -23.384 -13.908  0.00  0.00    +0.244 C 
BRANCH   4  10
ATOM     10  O   UNL     1      27.416 -24.253 -16.873  0.00  0.00    -0.384 OA
ATOM     11  H   UNL     1      27.664 -25.185 -16.770  0.00  0.00    +0.210 HD
ENDBRANCH   4  10
ENDBRANCH   1   9
BRANCH   1  13
ATOM     12  O   UNL     1      33.820 -24.978 -16.947  0.00  0.00    -0.269 OA
ATOM     13  N   UNL     1      33.542 -23.246 -15.463  0.00  0.00    -0.294 N 
ATOM     14  C   UNL     1      33.886 -23.770 -16.714  0.00  0.00    +0.260 C 
ATOM     15  H   UNL     1      33.611 -22.274 -15.323  0.00  0.00    +0.150 HD
BRANCH  14  18
ATOM     16 CL   UNL     1      37.038 -18.845 -21.673  0.00  0.00    -0.082 Cl
ATOM     17  N   UNL     1      33.412 -22.208 -18.562  0.00  0.00    -0.309 N 
ATOM     18  C   UNL     1      34.295 -22.795 -17.733  0.00  0.00    +0.102 C 
ATOM     19  C   UNL     1      35.550 -22.362 -17.986  0.00  0.00    +0.020 C 
ATOM     20  C   UNL     1      35.444 -21.430 -19.057  0.00  0.00    +0.016 C 
ATOM     21  C   UNL     1      34.092 -21.351 -19.399  0.00  0.00    +0.048 C 
ATOM     22  C   UNL     1      36.370 -20.643 -19.770  0.00  0.00    +0.013 C 
ATOM     23  C   UNL     1      33.618 -20.522 -20.422  0.00  0.00    +0.015 C 
ATOM     24  C   UNL     1      35.912 -19.810 -20.796  0.00  0.00    +0.058 C 
ATOM     25  C   UNL     1      34.557 -19.752 -21.115  0.00  0.00    +0.013 C 
ATOM     26  H   UNL     1      32.439 -22.363 -18.568  0.00  0.00    +0.152 HD
ENDBRANCH  14  18
ENDBRANCH   1  13
BRANCH   1  27
ATOM     27  C   UNL     1      34.100 -24.164 -13.238  0.00  0.00    +0.055 C 
BRANCH  27  29
ATOM     28  F   UNL     1      39.116 -26.007 -14.981  0.00  0.00    -0.204 F 
ATOM     29  C   UNL     1      35.446 -24.659 -13.706  0.00  0.00    -0.020 C 
ATOM     30  C   UNL     1      35.555 -25.932 -14.241  0.00  0.00    -0.002 C 
ATOM     31  C   UNL     1      36.553 -23.830 -13.593  0.00  0.00    -0.002 C 
ATOM     32  C   UNL     1      36.799 -26.391 -14.672  0.00  0.00    +0.029 C 
ATOM     33  C   UNL     1      37.798 -24.287 -14.025  0.00  0.00    +0.029 C 
ATOM     34  C   UNL     1      37.921 -25.568 -14.565  0.00  0.00    +0.140 C 
ENDBRANCH  27  29
ENDBRANCH   1  27
TORSDOF 6
ENDMDL
MODEL 6
REMARK VINA RESULT:     -10.2      9.642     14.295
REMARK  Name = 444746
REMARK  6 active torsions:
REMARK  status: ('A' for Active; 'I' for Inactive)
REMARK    1  A    between atoms: C_1  and  C_9
REMARK    2  A    between atoms: C_1  and  N_13
REMARK    3  A    between atoms: C_1  and  C_27
REMARK    4  A    between atoms: C_4  and  O_10
REMARK    5  A    between atoms: C_14  and  C_18
REMARK    6  A    between atoms: C_27  and  C_29
REMARK                            x       y       z     vdW  Elec       q    Type
REMARK                         _______ _______ _______ _____ _____    ______ ____
ROOT
ATOM      1  C   UNL     1      32.371 -10.874 -23.657  0.00  0.00    +0.153 C 
ENDROOT
BRANCH   1   9
ATOM      2  O   UNL     1      34.536 -10.357 -22.844  0.00  0.00    -0.273 OA
ATOM      3  N   UNL     1      33.347  -8.609 -23.806  0.00  0.00    -0.278 N 
ATOM      4  C   UNL     1      32.722  -5.797 -23.540  0.00  0.00    +0.114 C 
ATOM      5  C   UNL     1      33.953  -6.412 -22.871  0.00  0.00    +0.051 C 
ATOM      6  C   UNL     1      31.626  -6.847 -23.723  0.00  0.00    +0.051 C 
ATOM      7  C   UNL     1      34.435  -7.644 -23.630  0.00  0.00    +0.096 C 
ATOM      8  C   UNL     1      32.149  -8.073 -24.465  0.00  0.00    +0.096 C 
ATOM      9  C   UNL     1      33.519  -9.931 -23.397  0.00  0.00    +0.244 C 
BRANCH   4  10
ATOM     10  O   UNL     1      32.214  -4.739 -22.738  0.00  0.00    -0.384 OA
ATOM     11  H   UNL     1      31.789  -4.077 -23.307  0.00  0.00    +0.210 HD
ENDBRANCH   4  10
ENDBRANCH   1   9
BRANCH   1  13
ATOM     12  O   UNL     1      33.129 -12.911 -25.453  0.00  0.00    -0.269 OA
ATOM     13  N   UNL     1      32.902 -12.156 -23.294  0.00  0.00    -0.294 N 
ATOM     14  C   UNL     1      33.257 -13.119 -24.245  0.00  0.00    +0.260 C 
ATOM     15  H   UNL     1      33.021 -12.367 -22.340  0.00  0.00    +0.150 HD
BRANCH  14  18
ATOM     16 CL   UNL     1      36.364 -19.097 -20.586  0.00  0.00    -0.082 Cl
ATOM     17  N   UNL     1      33.855 -15.503 -24.448  0.00  0.00    -0.309 N 
ATOM     18  C   UNL     1      33.816 -14.372 -23.720  0.00  0.00    +0.102 C 
ATOM     19  C   UNL     1      34.347 -14.574 -22.494  0.00  0.00    +0.020 C 
ATOM     20  C   UNL     1      34.750 -15.938 -22.451  0.00  0.00    +0.016 C 
ATOM     21  C   UNL     1      34.430 -16.499 -23.690  0.00  0.00    +0.048 C 
ATOM     22  C   UNL     1      35.358 -16.753 -21.475  0.00  0.00    +0.013 C 
ATOM     23  C   UNL     1      34.688 -17.838 -24.003  0.00  0.00    +0.015 C 
ATOM     24  C   UNL     1      35.621 -18.095 -21.773  0.00  0.00    +0.058 C 
ATOM     25  C   UNL     1      35.291 -18.626 -23.018  0.00  0.00    +0.013 C 
ATOM     26  H   UNL     1      33.527 -15.604 -25.371  0.00  0.00    +0.152 HD
ENDBRANCH  14  18
ENDBRANCH   1  13
BRANCH   1  27
ATOM     27  C   UNL     1      31.159 -10.468 -22.829  0.00  0.00    +0.055 C 
BRANCH  27  29
ATOM     28  F   UNL     1      32.329 -10.221 -17.337  0.00  0.00    -0.204 F 
ATOM     29  C   UNL     1      31.473 -10.402 -21.355  0.00  0.00    -0.020 C 
ATOM     30  C   UNL     1      31.612 -11.578 -20.636  0.00  0.00    -0.002 C 
ATOM     31  C   UNL     1      31.618  -9.164 -20.746  0.00  0.00    -0.002 C 
ATOM     32  C   UNL     1      31.901 -11.517 -19.273  0.00  0.00    +0.029 C 
ATOM     33  C   UNL     1      31.908  -9.103 -19.382  0.00  0.00    +0.029 C 
ATOM     34  C   UNL     1      32.049 -10.279 -18.646  0.00  0.00    +0.140 C 
ENDBRANCH  27  29
ENDBRANCH   1  27
TORSDOF 6
ENDMDL
MODEL 7
REMARK VINA RESULT:      -9.9      3.049      5.954
REMARK  Name = 444746
REMARK  6 active torsions:
REMARK  status: ('A' for Active; 'I' for Inactive)
REMARK    1  A    between atoms: C_1  and  C_9
REMARK    2  A    between atoms: C_1  and  N_13
REMARK    3  A    between atoms: C_1  and  C_27
REMARK    4  A    between atoms: C_4  and  O_10
REMARK    5  A    between atoms: C_14  and  C_18
REMARK    6  A    between atoms: C_27  and  C_29
REMARK                            x       y       z     vdW  Elec       q    Type
REMARK                         _______ _______ _______ _____ _____    ______ ____
ROOT
ATOM      1  C   UNL     1      33.276 -24.760 -13.895  0.00  0.00    +0.153 C 
ENDROOT
BRANCH   1   9
ATOM      2  O   UNL     1      31.609 -26.430 -13.678  0.00  0.00    -0.273 OA
ATOM      3  N   UNL     1      30.864 -24.278 -14.134  0.00  0.00    -0.278 N 
ATOM      4  C   UNL     1      28.950 -22.758 -15.680  0.00  0.00    +0.114 C 
ATOM      5  C   UNL     1      28.744 -24.246 -15.388  0.00  0.00    +0.051 C 
ATOM      6  C   UNL     1      30.438 -22.409 -15.683  0.00  0.00    +0.051 C 
ATOM      7  C   UNL     1      29.449 -24.656 -14.099  0.00  0.00    +0.096 C 
ATOM      8  C   UNL     1      31.115 -22.853 -14.390  0.00  0.00    +0.096 C 
ATOM      9  C   UNL     1      31.845 -25.238 -13.890  0.00  0.00    +0.244 C 
BRANCH   4  10
ATOM     10  O   UNL     1      28.401 -22.436 -16.951  0.00  0.00    -0.384 OA
ATOM     11  H   UNL     1      29.058 -22.615 -17.642  0.00  0.00    +0.210 HD
ENDBRANCH   4  10
ENDBRANCH   1   9
BRANCH   1  13
ATOM     12  O   UNL     1      35.372 -24.759 -15.780  0.00  0.00    -0.269 OA
ATOM     13  N   UNL     1      33.349 -23.936 -15.066  0.00  0.00    -0.294 N 
ATOM     14  C   UNL     1      34.425 -23.991 -15.958  0.00  0.00    +0.260 C 
ATOM     15  H   UNL     1      32.615 -23.306 -15.249  0.00  0.00    +0.150 HD
BRANCH  14  18
ATOM     16 CL   UNL     1      35.077 -19.380 -22.050  0.00  0.00    -0.082 Cl
ATOM     17  N   UNL     1      33.164 -22.726 -17.659  0.00  0.00    -0.309 N 
ATOM     18  C   UNL     1      34.341 -23.107 -17.129  0.00  0.00    +0.102 C 
ATOM     19  C   UNL     1      35.372 -22.569 -17.817  0.00  0.00    +0.020 C 
ATOM     20  C   UNL     1      34.796 -21.791 -18.860  0.00  0.00    +0.016 C 
ATOM     21  C   UNL     1      33.409 -21.907 -18.739  0.00  0.00    +0.048 C 
ATOM     22  C   UNL     1      35.321 -20.998 -19.899  0.00  0.00    +0.013 C 
ATOM     23  C   UNL     1      32.518 -21.266 -19.607  0.00  0.00    +0.015 C 
ATOM     24  C   UNL     1      34.443 -20.352 -20.777  0.00  0.00    +0.058 C 
ATOM     25  C   UNL     1      33.064 -20.485 -20.630  0.00  0.00    +0.013 C 
ATOM     26  H   UNL     1      32.274 -22.989 -17.330  0.00  0.00    +0.152 HD
ENDBRANCH  14  18
ENDBRANCH   1  13
BRANCH   1  27
ATOM     27  C   UNL     1      33.583 -24.007 -12.608  0.00  0.00    +0.055 C 
BRANCH  27  29
ATOM     28  F   UNL     1      39.039 -24.235 -11.273  0.00  0.00    -0.204 F 
ATOM     29  C   UNL     1      35.047 -24.068 -12.249  0.00  0.00    -0.020 C 
ATOM     30  C   UNL     1      35.955 -23.304 -12.965  0.00  0.00    -0.002 C 
ATOM     31  C   UNL     1      35.460 -24.889 -11.210  0.00  0.00    -0.002 C 
ATOM     32  C   UNL     1      37.309 -23.361 -12.635  0.00  0.00    +0.029 C 
ATOM     33  C   UNL     1      36.814 -24.945 -10.879  0.00  0.00    +0.029 C 
ATOM     34  C   UNL     1      37.739 -24.182 -11.592  0.00  0.00    +0.140 C 
ENDBRANCH  27  29
ENDBRANCH   1  27
TORSDOF 6
ENDMDL
MODEL 8
REMARK VINA RESULT:      -9.9     10.231     14.942
REMARK  Name = 444746
REMARK  6 active torsions:
REMARK  status: ('A' for Active; 'I' for Inactive)
REMARK    1  A    between atoms: C_1  and  C_9
REMARK    2  A    between atoms: C_1  and  N_13
REMARK    3  A    between atoms: C_1  and  C_27
REMARK    4  A    between atoms: C_4  and  O_10
REMARK    5  A    between atoms: C_14  and  C_18
REMARK    6  A    between atoms: C_27  and  C_29
REMARK                            x       y       z     vdW  Elec       q    Type
REMARK                         _______ _______ _______ _____ _____    ______ ____
ROOT
ATOM      1  C   UNL     1      32.341  -9.991 -23.657  0.00  0.00    +0.153 C 
ENDROOT
BRANCH   1   9
ATOM      2  O   UNL     1      34.578  -9.456 -23.087  0.00  0.00    -0.273 OA
ATOM      3  N   UNL     1      33.440  -7.900 -24.383  0.00  0.00    -0.278 N 
ATOM      4  C   UNL     1      33.001  -5.066 -24.765  0.00  0.00    +0.114 C 
ATOM      5  C   UNL     1      34.231  -5.595 -24.023  0.00  0.00    +0.051 C 
ATOM      6  C   UNL     1      31.835  -6.047 -24.644  0.00  0.00    +0.051 C 
ATOM      7  C   UNL     1      34.592  -7.001 -24.489  0.00  0.00    +0.096 C 
ATOM      8  C   UNL     1      32.238  -7.448 -25.097  0.00  0.00    +0.096 C 
ATOM      9  C   UNL     1      33.557  -9.098 -23.679  0.00  0.00    +0.244 C 
BRANCH   4  10
ATOM     10  O   UNL     1      32.607  -3.816 -24.215  0.00  0.00    -0.384 OA
ATOM     11  H   UNL     1      31.734  -3.905 -23.801  0.00  0.00    +0.210 HD
ENDBRANCH   4  10
ENDBRANCH   1   9
BRANCH   1  13
ATOM     12  O   UNL     1      32.823 -12.322 -25.168  0.00  0.00    -0.269 OA
ATOM     13  N   UNL     1      32.845 -11.231 -23.145  0.00  0.00    -0.294 N 
ATOM     14  C   UNL     1      33.059 -12.349 -23.959  0.00  0.00    +0.260 C 
ATOM     15  H   UNL     1      33.047 -11.300 -22.184  0.00  0.00    +0.150 HD
BRANCH  14  18
ATOM     16 CL   UNL     1      36.114 -18.935 -21.492  0.00  0.00    -0.082 Cl
ATOM     17  N   UNL     1      33.664 -13.651 -21.953  0.00  0.00    -0.309 N 
ATOM     18  C   UNL     1      33.609 -13.538 -23.294  0.00  0.00    +0.102 C 
ATOM     19  C   UNL     1      34.118 -14.639 -23.888  0.00  0.00    +0.020 C 
ATOM     20  C   UNL     1      34.523 -15.510 -22.838  0.00  0.00    +0.016 C 
ATOM     21  C   UNL     1      34.227 -14.866 -21.634  0.00  0.00    +0.048 C 
ATOM     22  C   UNL     1      35.116 -16.788 -22.795  0.00  0.00    +0.013 C 
ATOM     23  C   UNL     1      34.494 -15.438 -20.386  0.00  0.00    +0.015 C 
ATOM     24  C   UNL     1      35.390 -17.373 -21.553  0.00  0.00    +0.058 C 
ATOM     25  C   UNL     1      35.082 -16.707 -20.369  0.00  0.00    +0.013 C 
ATOM     26  H   UNL     1      33.352 -12.977 -21.307  0.00  0.00    +0.152 HD
ENDBRANCH  14  18
ENDBRANCH   1  13
BRANCH   1  27
ATOM     27  C   UNL     1      31.253  -9.376 -22.786  0.00  0.00    +0.055 C 
BRANCH  27  29
ATOM     28  F   UNL     1      32.076 -10.421 -17.324  0.00  0.00    -0.204 F 
ATOM     29  C   UNL     1      31.474  -9.656 -21.320  0.00  0.00    -0.020 C 
ATOM     30  C   UNL     1      31.967  -8.652 -20.502  0.00  0.00    -0.002 C 
ATOM     31  C   UNL     1      31.180 -10.915 -20.816  0.00  0.00    -0.002 C 
ATOM     32  C   UNL     1      32.172  -8.911 -19.147  0.00  0.00    +0.029 C 
ATOM     33  C   UNL     1      31.384 -11.174 -19.461  0.00  0.00    +0.029 C 
ATOM     34  C   UNL     1      31.881 -10.172 -18.626  0.00  0.00    +0.140 C 
ENDBRANCH  27  29
ENDBRANCH   1  27
TORSDOF 6
ENDMDL
MODEL 9
REMARK VINA RESULT:      -9.7      2.374      4.230
REMARK  Name = 444746
REMARK  6 active torsions:
REMARK  status: ('A' for Active; 'I' for Inactive)
REMARK    1  A    between atoms: C_1  and  C_9
REMARK    2  A    between atoms: C_1  and  N_13
REMARK    3  A    between atoms: C_1  and  C_27
REMARK    4  A    between atoms: C_4  and  O_10
REMARK    5  A    between atoms: C_14  and  C_18
REMARK    6  A    between atoms: C_27  and  C_29
REMARK                            x       y       z     vdW  Elec       q    Type
REMARK                         _______ _______ _______ _____ _____    ______ ____
ROOT
ATOM      1  C   UNL     1      35.006 -23.721 -15.903  0.00  0.00    +0.153 C 
ENDROOT
BRANCH   1   9
ATOM      2  O   UNL     1      34.731 -22.008 -14.289  0.00  0.00    -0.273 OA
ATOM      3  N   UNL     1      32.866 -23.318 -14.735  0.00  0.00    -0.278 N 
ATOM      4  C   UNL     1      30.613 -24.652 -13.506  0.00  0.00    +0.114 C 
ATOM      5  C   UNL     1      31.347 -23.508 -12.805  0.00  0.00    +0.051 C 
ATOM      6  C   UNL     1      31.548 -25.384 -14.469  0.00  0.00    +0.051 C 
ATOM      7  C   UNL     1      32.002 -22.572 -13.816  0.00  0.00    +0.096 C 
ATOM      8  C   UNL     1      32.202 -24.416 -15.451  0.00  0.00    +0.096 C 
ATOM      9  C   UNL     1      34.196 -22.934 -14.903  0.00  0.00    +0.244 C 
BRANCH   4  10
ATOM     10  O   UNL     1      30.132 -25.579 -12.541  0.00  0.00    -0.384 OA
ATOM     11  H   UNL     1      29.285 -25.947 -12.840  0.00  0.00    +0.210 HD
ENDBRANCH   4  10
ENDBRANCH   1   9
BRANCH   1  13
ATOM     12  O   UNL     1      33.580 -23.644 -18.334  0.00  0.00    -0.269 OA
ATOM     13  N   UNL     1      35.220 -22.788 -16.970  0.00  0.00    -0.294 N 
ATOM     14  C   UNL     1      34.470 -22.812 -18.151  0.00  0.00    +0.260 C 
ATOM     15  H   UNL     1      35.921 -22.105 -16.869  0.00  0.00    +0.150 HD
BRANCH  14  18
ATOM     16 CL   UNL     1      35.073 -17.468 -23.616  0.00  0.00    -0.082 Cl
ATOM     17  N   UNL     1      36.009 -21.219 -19.236  0.00  0.00    -0.309 N 
ATOM     18  C   UNL     1      34.785 -21.771 -19.139  0.00  0.00    +0.102 C 
ATOM     19  C   UNL     1      33.944 -21.233 -20.050  0.00  0.00    +0.020 C 
ATOM     20  C   UNL     1      34.701 -20.271 -20.775  0.00  0.00    +0.016 C 
ATOM     21  C   UNL     1      35.993 -20.281 -20.244  0.00  0.00    +0.048 C 
ATOM     22  C   UNL     1      34.411 -19.388 -21.834  0.00  0.00    +0.013 C 
ATOM     23  C   UNL     1      37.013 -19.451 -20.722  0.00  0.00    +0.015 C 
ATOM     24  C   UNL     1      35.420 -18.550 -22.322  0.00  0.00    +0.058 C 
ATOM     25  C   UNL     1      36.700 -18.584 -21.773  0.00  0.00    +0.013 C 
ATOM     26  H   UNL     1      36.788 -21.448 -18.679  0.00  0.00    +0.152 HD
ENDBRANCH  14  18
ENDBRANCH   1  13
BRANCH   1  27
ATOM     27  C   UNL     1      36.298 -24.211 -15.263  0.00  0.00    +0.055 C 
BRANCH  27  29
ATOM     28  F   UNL     1      35.983 -24.300  -9.652  0.00  0.00    -0.204 F 
ATOM     29  C   UNL     1      36.214 -24.235 -13.757  0.00  0.00    -0.020 C 
ATOM     30  C   UNL     1      35.251 -25.020 -13.143  0.00  0.00    -0.002 C 
ATOM     31  C   UNL     1      37.100 -23.471 -13.014  0.00  0.00    -0.002 C 
ATOM     32  C   UNL     1      35.171 -25.041 -11.750  0.00  0.00    +0.029 C 
ATOM     33  C   UNL     1      37.022 -23.493 -11.621  0.00  0.00    +0.029 C 
ATOM     34  C   UNL     1      36.057 -24.278 -10.989  0.00  0.00    +0.140 C 
ENDBRANCH  27  29
ENDBRANCH   1  27
TORSDOF 6
ENDMDL
