MODEL 1
REMARK VINA RESULT:     -11.7      0.000      0.000
REMARK  Name = 2765355
REMARK  2 active torsions:
REMARK  status: ('A' for Active; 'I' for Inactive)
REMARK    1  A    between atoms: C_4  and  C_20
REMARK    2  A    between atoms: C_6  and  C_13
REMARK                            x       y       z     vdW  Elec       q    Type
REMARK                         _______ _______ _______ _____ _____    ______ ____
ROOT
ATOM      1  O   UNL     1      36.639 -22.785 -16.864  0.00  0.00    -0.353 OA
ATOM      2  N   UNL     1      36.609 -23.524 -15.689  0.00  0.00    -0.077 NA
ATOM      3  C   UNL     1      34.507 -23.160 -16.449  0.00  0.00    +0.058 A 
ATOM      4  C   UNL     1      35.376 -22.570 -17.315  0.00  0.00    +0.177 A 
ATOM      5  C   UNL     1      35.313 -23.764 -15.419  0.00  0.00    +0.123 A 
ATOM      6  C   UNL     1      32.547 -23.876 -15.479  0.00  0.00    +0.031 C 
ATOM      7  C   UNL     1      33.124 -23.170 -16.553  0.00  0.00    +0.007 C 
ATOM      8  C   UNL     1      34.713 -24.463 -14.357  0.00  0.00    +0.023 C 
ATOM      9  C   UNL     1      33.302 -24.493 -14.431  0.00  0.00    +0.004 C 
ENDROOT
BRANCH   6  13
ATOM     10  N   UNL     1      30.635 -25.006 -14.687  0.00  0.00    -0.338 NA
ATOM     11  N   UNL     1      28.403 -24.301 -15.260  0.00  0.00    -0.170 NA
ATOM     12  N   UNL     1      28.762 -26.162 -13.876  0.00  0.00    -0.293 N 
ATOM     13  C   UNL     1      31.102 -23.985 -15.432  0.00  0.00    +0.146 C 
ATOM     14  C   UNL     1      30.303 -23.093 -16.110  0.00  0.00    +0.055 C 
ATOM     15  C   UNL     1      28.944 -23.302 -15.987  0.00  0.00    +0.114 C 
ATOM     16  C   UNL     1      29.293 -25.104 -14.646  0.00  0.00    +0.141 C 
ATOM     17  H   UNL     1      29.367 -26.780 -13.404  0.00  0.00    +0.155 HD
ATOM     18  H   UNL     1      27.787 -26.281 -13.810  0.00  0.00    +0.155 HD
ENDBRANCH   6  13
BRANCH   4  20
ATOM     19 CL   UNL     1      34.961 -19.424 -22.352  0.00  0.00    -0.082 Cl
ATOM     20  C   UNL     1      35.277 -21.812 -18.530  0.00  0.00    +0.037 C 
ATOM     21  C   UNL     1      36.425 -21.283 -19.126  0.00  0.00    +0.004 C 
ATOM     22  C   UNL     1      34.030 -21.597 -19.126  0.00  0.00    +0.004 C 
ATOM     23  C   UNL     1      36.328 -20.546 -20.307  0.00  0.00    +0.011 C 
ATOM     24  C   UNL     1      33.933 -20.860 -20.306  0.00  0.00    +0.011 C 
ATOM     25  C   UNL     1      35.081 -20.334 -20.896  0.00  0.00    +0.058 C 
ENDBRANCH   4  20
TORSDOF 2
ENDMDL
MODEL 2
REMARK VINA RESULT:     -11.6      2.083      5.165
REMARK  Name = 2765355
REMARK  2 active torsions:
REMARK  status: ('A' for Active; 'I' for Inactive)
REMARK    1  A    between atoms: C_4  and  C_20
REMARK    2  A    between atoms: C_6  and  C_13
REMARK                            x       y       z     vdW  Elec       q    Type
REMARK                         _______ _______ _______ _____ _____    ______ ____
ROOT
ATOM      1  O   UNL     1      31.583 -22.910 -17.367  0.00  0.00    -0.353 OA
ATOM      2  N   UNL     1      31.140 -23.595 -16.244  0.00  0.00    -0.077 NA
ATOM      3  C   UNL     1      33.387 -23.334 -16.175  0.00  0.00    +0.058 A 
ATOM      4  C   UNL     1      32.932 -22.756 -17.321  0.00  0.00    +0.177 A 
ATOM      5  C   UNL     1      32.229 -23.862 -15.501  0.00  0.00    +0.123 A 
ATOM      6  C   UNL     1      34.810 -24.063 -14.520  0.00  0.00    +0.031 C 
ATOM      7  C   UNL     1      34.708 -23.391 -15.754  0.00  0.00    +0.007 C 
ATOM      8  C   UNL     1      32.358 -24.530 -14.271  0.00  0.00    +0.023 C 
ATOM      9  C   UNL     1      33.692 -24.607 -13.811  0.00  0.00    +0.004 C 
ENDROOT
BRANCH   6  13
ATOM     10  N   UNL     1      37.059 -24.729 -14.755  0.00  0.00    -0.338 NA
ATOM     11  N   UNL     1      38.644 -24.548 -12.948  0.00  0.00    -0.170 NA
ATOM     12  N   UNL     1      39.289 -25.407 -15.035  0.00  0.00    -0.293 N 
ATOM     13  C   UNL     1      36.127 -24.213 -13.932  0.00  0.00    +0.146 C 
ATOM     14  C   UNL     1      36.364 -23.845 -12.627  0.00  0.00    +0.055 C 
ATOM     15  C   UNL     1      37.657 -24.037 -12.183  0.00  0.00    +0.114 C 
ATOM     16  C   UNL     1      38.280 -24.868 -14.205  0.00  0.00    +0.141 C 
ATOM     17  H   UNL     1      39.079 -25.658 -15.964  0.00  0.00    +0.155 HD
ATOM     18  H   UNL     1      40.200 -25.530 -14.685  0.00  0.00    +0.155 HD
ENDBRANCH   6  13
BRANCH   4  20
ATOM     19 CL   UNL     1      35.334 -19.863 -21.936  0.00  0.00    -0.082 Cl
ATOM     20  C   UNL     1      33.511 -22.060 -18.434  0.00  0.00    +0.037 C 
ATOM     21  C   UNL     1      34.874 -22.191 -18.715  0.00  0.00    +0.004 C 
ATOM     22  C   UNL     1      32.716 -21.243 -19.245  0.00  0.00    +0.004 C 
ATOM     23  C   UNL     1      35.438 -21.514 -19.797  0.00  0.00    +0.011 C 
ATOM     24  C   UNL     1      33.279 -20.566 -20.326  0.00  0.00    +0.011 C 
ATOM     25  C   UNL     1      34.640 -20.700 -20.602  0.00  0.00    +0.058 C 
ENDBRANCH   4  20
TORSDOF 2
ENDMDL
MODEL 3
REMARK VINA RESULT:     -10.7     11.077     13.789
REMARK  Name = 2765355
REMARK  2 active torsions:
REMARK  status: ('A' for Active; 'I' for Inactive)
REMARK    1  A    between atoms: C_4  and  C_20
REMARK    2  A    between atoms: C_6  and  C_13
REMARK                            x       y       z     vdW  Elec       q    Type
REMARK                         _______ _______ _______ _____ _____    ______ ____
ROOT
ATOM      1  O   UNL     1      31.549  -9.438 -20.496  0.00  0.00    -0.353 OA
ATOM      2  N   UNL     1      31.421 -10.559 -19.686  0.00  0.00    -0.077 NA
ATOM      3  C   UNL     1      32.258 -11.137 -21.709  0.00  0.00    +0.058 A 
ATOM      4  C   UNL     1      32.051  -9.791 -21.708  0.00  0.00    +0.177 A 
ATOM      5  C   UNL     1      31.852 -11.608 -20.410  0.00  0.00    +0.123 A 
ATOM      6  C   UNL     1      32.843 -13.250 -22.407  0.00  0.00    +0.031 C 
ATOM      7  C   UNL     1      32.763 -11.888 -22.760  0.00  0.00    +0.007 C 
ATOM      8  C   UNL     1      31.940 -12.972 -20.083  0.00  0.00    +0.023 C 
ATOM      9  C   UNL     1      32.451 -13.769 -21.132  0.00  0.00    +0.004 C 
ENDROOT
BRANCH   6  13
ATOM     10  N   UNL     1      34.114 -15.174 -22.895  0.00  0.00    -0.338 NA
ATOM     11  N   UNL     1      34.372 -16.002 -25.143  0.00  0.00    -0.170 NA
ATOM     12  N   UNL     1      35.390 -17.095 -23.333  0.00  0.00    -0.293 N 
ATOM     13  C   UNL     1      33.353 -14.182 -23.394  0.00  0.00    +0.146 C 
ATOM     14  C   UNL     1      33.057 -14.029 -24.729  0.00  0.00    +0.055 C 
ATOM     15  C   UNL     1      33.601 -14.980 -25.569  0.00  0.00    +0.114 C 
ATOM     16  C   UNL     1      34.585 -16.038 -23.814  0.00  0.00    +0.141 C 
ATOM     17  H   UNL     1      35.578 -17.170 -22.369  0.00  0.00    +0.155 HD
ATOM     18  H   UNL     1      35.761 -17.755 -23.960  0.00  0.00    +0.155 HD
ENDBRANCH   6  13
BRANCH   4  20
ATOM     19 CL   UNL     1      32.783  -5.316 -25.566  0.00  0.00    -0.082 Cl
ATOM     20  C   UNL     1      32.228  -8.713 -22.639  0.00  0.00    +0.037 C 
ATOM     21  C   UNL     1      33.391  -7.937 -22.605  0.00  0.00    +0.004 C 
ATOM     22  C   UNL     1      31.239  -8.429 -23.585  0.00  0.00    +0.004 C 
ATOM     23  C   UNL     1      33.563  -6.888 -23.510  0.00  0.00    +0.011 C 
ATOM     24  C   UNL     1      31.410  -7.381 -24.489  0.00  0.00    +0.011 C 
ATOM     25  C   UNL     1      32.572  -6.610 -24.451  0.00  0.00    +0.058 C 
ENDBRANCH   4  20
TORSDOF 2
ENDMDL
MODEL 4
REMARK VINA RESULT:     -10.7     11.501     14.322
REMARK  Name = 2765355
REMARK  2 active torsions:
REMARK  status: ('A' for Active; 'I' for Inactive)
REMARK    1  A    between atoms: C_4  and  C_20
REMARK    2  A    between atoms: C_6  and  C_13
REMARK                            x       y       z     vdW  Elec       q    Type
REMARK                         _______ _______ _______ _____ _____    ______ ____
ROOT
ATOM      1  O   UNL     1      32.131  -8.584 -21.376  0.00  0.00    -0.353 OA
ATOM      2  N   UNL     1      31.567  -9.586 -20.598  0.00  0.00    -0.077 NA
ATOM      3  C   UNL     1      32.671 -10.481 -22.360  0.00  0.00    +0.058 A 
ATOM      4  C   UNL     1      32.792  -9.126 -22.431  0.00  0.00    +0.177 A 
ATOM      5  C   UNL     1      31.888 -10.754 -21.183  0.00  0.00    +0.123 A 
ATOM      6  C   UNL     1      32.882 -12.716 -22.864  0.00  0.00    +0.031 C 
ATOM      7  C   UNL     1      33.205 -11.400 -23.251  0.00  0.00    +0.007 C 
ATOM      8  C   UNL     1      31.577 -12.075 -20.819  0.00  0.00    +0.023 C 
ATOM      9  C   UNL     1      32.106 -13.041 -21.706  0.00  0.00    +0.004 C 
ENDROOT
BRANCH   6  13
ATOM     10  N   UNL     1      34.098 -14.728 -23.036  0.00  0.00    -0.338 NA
ATOM     11  N   UNL     1      34.328 -15.911 -25.123  0.00  0.00    -0.170 NA
ATOM     12  N   UNL     1      35.319 -16.729 -23.159  0.00  0.00    -0.293 N 
ATOM     13  C   UNL     1      33.363 -13.808 -23.688  0.00  0.00    +0.146 C 
ATOM     14  C   UNL     1      33.069 -13.861 -25.032  0.00  0.00    +0.055 C 
ATOM     15  C   UNL     1      33.584 -14.949 -25.708  0.00  0.00    +0.114 C 
ATOM     16  C   UNL     1      34.543 -15.740 -23.805  0.00  0.00    +0.141 C 
ATOM     17  H   UNL     1      35.507 -16.655 -22.195  0.00  0.00    +0.155 HD
ATOM     18  H   UNL     1      35.670 -17.491 -23.673  0.00  0.00    +0.155 HD
ENDBRANCH   6  13
BRANCH   4  20
ATOM     19 CL   UNL     1      35.403  -5.227 -26.095  0.00  0.00    -0.082 Cl
ATOM     20  C   UNL     1      33.421  -8.186 -23.314  0.00  0.00    +0.037 C 
ATOM     21  C   UNL     1      32.752  -7.736 -24.457  0.00  0.00    +0.004 C 
ATOM     22  C   UNL     1      34.708  -7.713 -23.039  0.00  0.00    +0.004 C 
ATOM     23  C   UNL     1      33.363  -6.822 -25.316  0.00  0.00    +0.011 C 
ATOM     24  C   UNL     1      35.319  -6.799 -23.897  0.00  0.00    +0.011 C 
ATOM     25  C   UNL     1      34.648  -6.354 -25.036  0.00  0.00    +0.058 C 
ENDBRANCH   4  20
TORSDOF 2
ENDMDL
MODEL 5
REMARK VINA RESULT:     -10.7      1.675      2.295
REMARK  Name = 2765355
REMARK  2 active torsions:
REMARK  status: ('A' for Active; 'I' for Inactive)
REMARK    1  A    between atoms: C_4  and  C_20
REMARK    2  A    between atoms: C_6  and  C_13
REMARK                            x       y       z     vdW  Elec       q    Type
REMARK                         _______ _______ _______ _____ _____    ______ ____
ROOT
ATOM      1  O   UNL     1      35.049 -23.617 -16.690  0.00  0.00    -0.353 OA
ATOM      2  N   UNL     1      34.677 -24.359 -15.576  0.00  0.00    -0.077 NA
ATOM      3  C   UNL     1      32.879 -23.304 -16.459  0.00  0.00    +0.058 A 
ATOM      4  C   UNL     1      33.966 -22.987 -17.215  0.00  0.00    +0.177 A 
ATOM      5  C   UNL     1      33.353 -24.181 -15.420  0.00  0.00    +0.123 A 
ATOM      6  C   UNL     1      30.712 -23.393 -15.690  0.00  0.00    +0.031 C 
ATOM      7  C   UNL     1      31.580 -22.863 -16.665  0.00  0.00    +0.007 C 
ATOM      8  C   UNL     1      32.467 -24.696 -14.457  0.00  0.00    +0.023 C 
ATOM      9  C   UNL     1      31.133 -24.267 -14.636  0.00  0.00    +0.004 C 
ENDROOT
BRANCH   6  13
ATOM     10  N   UNL     1      28.768 -23.086 -16.987  0.00  0.00    -0.338 NA
ATOM     11  N   UNL     1      26.679 -22.379 -16.016  0.00  0.00    -0.170 NA
ATOM     12  N   UNL     1      26.859 -22.793 -18.319  0.00  0.00    -0.293 N 
ATOM     13  C   UNL     1      29.309 -23.033 -15.756  0.00  0.00    +0.146 C 
ATOM     14  C   UNL     1      28.619 -22.670 -14.621  0.00  0.00    +0.055 C 
ATOM     15  C   UNL     1      27.290 -22.349 -14.814  0.00  0.00    +0.114 C 
ATOM     16  C   UNL     1      27.466 -22.751 -17.044  0.00  0.00    +0.141 C 
ATOM     17  H   UNL     1      27.387 -23.058 -19.107  0.00  0.00    +0.155 HD
ATOM     18  H   UNL     1      25.909 -22.557 -18.419  0.00  0.00    +0.155 HD
ENDBRANCH   6  13
BRANCH   4  20
ATOM     19 CL   UNL     1      35.036 -19.652 -22.029  0.00  0.00    -0.082 Cl
ATOM     20  C   UNL     1      34.224 -22.184 -18.377  0.00  0.00    +0.037 C 
ATOM     21  C   UNL     1      35.536 -21.985 -18.819  0.00  0.00    +0.004 C 
ATOM     22  C   UNL     1      33.166 -21.592 -19.073  0.00  0.00    +0.004 C 
ATOM     23  C   UNL     1      35.787 -21.204 -19.947  0.00  0.00    +0.011 C 
ATOM     24  C   UNL     1      33.417 -20.811 -20.201  0.00  0.00    +0.011 C 
ATOM     25  C   UNL     1      34.727 -20.616 -20.638  0.00  0.00    +0.058 C 
ENDBRANCH   4  20
TORSDOF 2
ENDMDL
MODEL 6
REMARK VINA RESULT:     -10.5     11.661     14.442
REMARK  Name = 2765355
REMARK  2 active torsions:
REMARK  status: ('A' for Active; 'I' for Inactive)
REMARK    1  A    between atoms: C_4  and  C_20
REMARK    2  A    between atoms: C_6  and  C_13
REMARK                            x       y       z     vdW  Elec       q    Type
REMARK                         _______ _______ _______ _____ _____    ______ ____
ROOT
ATOM      1  O   UNL     1      32.117  -8.352 -21.477  0.00  0.00    -0.353 OA
ATOM      2  N   UNL     1      31.545  -9.329 -20.672  0.00  0.00    -0.077 NA
ATOM      3  C   UNL     1      32.643 -10.279 -22.409  0.00  0.00    +0.058 A 
ATOM      4  C   UNL     1      32.774  -8.928 -22.517  0.00  0.00    +0.177 A 
ATOM      5  C   UNL     1      31.857 -10.515 -21.226  0.00  0.00    +0.123 A 
ATOM      6  C   UNL     1      32.838 -12.528 -22.853  0.00  0.00    +0.031 C 
ATOM      7  C   UNL     1      33.171 -11.226 -23.274  0.00  0.00    +0.007 C 
ATOM      8  C   UNL     1      31.537 -11.824 -20.826  0.00  0.00    +0.023 C 
ATOM      9  C   UNL     1      32.059 -12.816 -21.687  0.00  0.00    +0.004 C 
ENDROOT
BRANCH   6  13
ATOM     10  N   UNL     1      34.060 -14.541 -22.976  0.00  0.00    -0.338 NA
ATOM     11  N   UNL     1      34.264 -15.791 -25.025  0.00  0.00    -0.170 NA
ATOM     12  N   UNL     1      35.288 -16.539 -23.050  0.00  0.00    -0.293 N 
ATOM     13  C   UNL     1      33.312 -13.645 -23.647  0.00  0.00    +0.146 C 
ATOM     14  C   UNL     1      32.998 -13.745 -24.984  0.00  0.00    +0.055 C 
ATOM     15  C   UNL     1      33.508 -14.853 -25.631  0.00  0.00    +0.114 C 
ATOM     16  C   UNL     1      34.498 -15.576 -23.717  0.00  0.00    +0.141 C 
ATOM     17  H   UNL     1      35.490 -16.432 -22.092  0.00  0.00    +0.155 HD
ATOM     18  H   UNL     1      35.635 -17.317 -23.543  0.00  0.00    +0.155 HD
ENDBRANCH   6  13
BRANCH   4  20
ATOM     19 CL   UNL     1      35.406  -5.141 -26.281  0.00  0.00    -0.082 Cl
ATOM     20  C   UNL     1      33.409  -8.015 -23.425  0.00  0.00    +0.037 C 
ATOM     21  C   UNL     1      34.655  -7.463 -23.112  0.00  0.00    +0.004 C 
ATOM     22  C   UNL     1      32.786  -7.671 -24.628  0.00  0.00    +0.004 C 
ATOM     23  C   UNL     1      35.273  -6.576 -23.995  0.00  0.00    +0.011 C 
ATOM     24  C   UNL     1      33.403  -6.784 -25.510  0.00  0.00    +0.011 C 
ATOM     25  C   UNL     1      34.645  -6.236 -25.193  0.00  0.00    +0.058 C 
ENDBRANCH   4  20
TORSDOF 2
ENDMDL
MODEL 7
REMARK VINA RESULT:     -10.3      8.725     11.566
REMARK  Name = 2765355
REMARK  2 active torsions:
REMARK  status: ('A' for Active; 'I' for Inactive)
REMARK    1  A    between atoms: C_4  and  C_20
REMARK    2  A    between atoms: C_6  and  C_13
REMARK                            x       y       z     vdW  Elec       q    Type
REMARK                         _______ _______ _______ _____ _____    ______ ____
ROOT
ATOM      1  O   UNL     1      34.517 -16.710 -25.175  0.00  0.00    -0.353 OA
ATOM      2  N   UNL     1      34.105 -15.644 -25.963  0.00  0.00    -0.077 NA
ATOM      3  C   UNL     1      33.792 -15.174 -23.771  0.00  0.00    +0.058 A 
ATOM      4  C   UNL     1      34.327 -16.423 -23.861  0.00  0.00    +0.177 A 
ATOM      5  C   UNL     1      33.659 -14.694 -25.122  0.00  0.00    +0.123 A 
ATOM      6  C   UNL     1      32.925 -13.234 -22.887  0.00  0.00    +0.031 C 
ATOM      7  C   UNL     1      33.450 -14.510 -22.602  0.00  0.00    +0.007 C 
ATOM      8  C   UNL     1      33.130 -13.417 -25.381  0.00  0.00    +0.023 C 
ATOM      9  C   UNL     1      32.771 -12.711 -24.211  0.00  0.00    +0.004 C 
ENDROOT
BRANCH   6  13
ATOM     10  N   UNL     1      32.223 -11.126 -22.099  0.00  0.00    -0.338 NA
ATOM     11  N   UNL     1      31.730 -10.728 -19.773  0.00  0.00    -0.170 NA
ATOM     12  N   UNL     1      31.529  -9.010 -21.359  0.00  0.00    -0.293 N 
ATOM     13  C   UNL     1      32.514 -12.400 -21.774  0.00  0.00    +0.146 C 
ATOM     14  C   UNL     1      32.441 -12.911 -20.498  0.00  0.00    +0.055 C 
ATOM     15  C   UNL     1      32.038 -12.018 -19.525  0.00  0.00    +0.114 C 
ATOM     16  C   UNL     1      31.843 -10.355 -21.063  0.00  0.00    +0.141 C 
ATOM     17  H   UNL     1      31.593  -8.682 -22.286  0.00  0.00    +0.155 HD
ATOM     18  H   UNL     1      31.245  -8.402 -20.640  0.00  0.00    +0.155 HD
ENDBRANCH   6  13
BRANCH   4  20
ATOM     19 CL   UNL     1      35.946 -20.702 -20.052  0.00  0.00    -0.082 Cl
ATOM     20  C   UNL     1      34.716 -17.454 -22.942  0.00  0.00    +0.037 C 
ATOM     21  C   UNL     1      35.349 -17.124 -21.740  0.00  0.00    +0.004 C 
ATOM     22  C   UNL     1      34.468 -18.796 -23.243  0.00  0.00    +0.004 C 
ATOM     23  C   UNL     1      35.728 -18.127 -20.847  0.00  0.00    +0.011 C 
ATOM     24  C   UNL     1      34.847 -19.799 -22.351  0.00  0.00    +0.011 C 
ATOM     25  C   UNL     1      35.478 -19.465 -21.153  0.00  0.00    +0.058 C 
ENDBRANCH   4  20
TORSDOF 2
ENDMDL
MODEL 8
REMARK VINA RESULT:     -10.2      3.866      7.054
REMARK  Name = 2765355
REMARK  2 active torsions:
REMARK  status: ('A' for Active; 'I' for Inactive)
REMARK    1  A    between atoms: C_4  and  C_20
REMARK    2  A    between atoms: C_6  and  C_13
REMARK                            x       y       z     vdW  Elec       q    Type
REMARK                         _______ _______ _______ _____ _____    ______ ____
ROOT
ATOM      1  O   UNL     1      35.206 -24.469 -13.661  0.00  0.00    -0.353 OA
ATOM      2  N   UNL     1      36.523 -24.083 -13.869  0.00  0.00    -0.077 NA
ATOM      3  C   UNL     1      35.211 -23.363 -15.567  0.00  0.00    +0.058 A 
ATOM      4  C   UNL     1      34.423 -24.035 -14.682  0.00  0.00    +0.177 A 
ATOM      5  C   UNL     1      36.546 -23.404 -15.030  0.00  0.00    +0.123 A 
ATOM      6  C   UNL     1      35.878 -22.158 -17.410  0.00  0.00    +0.031 C 
ATOM      7  C   UNL     1      34.793 -22.763 -16.746  0.00  0.00    +0.007 C 
ATOM      8  C   UNL     1      37.612 -22.794 -15.713  0.00  0.00    +0.023 C 
ATOM      9  C   UNL     1      37.223 -22.171 -16.920  0.00  0.00    +0.004 C 
ENDROOT
BRANCH   6  13
ATOM     10  N   UNL     1      36.627 -20.707 -19.111  0.00  0.00    -0.338 NA
ATOM     11  N   UNL     1      35.257 -20.153 -21.015  0.00  0.00    -0.170 NA
ATOM     12  N   UNL     1      37.414 -19.258 -20.780  0.00  0.00    -0.293 N 
ATOM     13  C   UNL     1      35.618 -21.480 -18.666  0.00  0.00    +0.146 C 
ATOM     14  C   UNL     1      34.418 -21.642 -19.321  0.00  0.00    +0.055 C 
ATOM     15  C   UNL     1      34.292 -20.946 -20.506  0.00  0.00    +0.114 C 
ATOM     16  C   UNL     1      36.382 -20.080 -20.277  0.00  0.00    +0.141 C 
ATOM     17  H   UNL     1      38.259 -19.168 -20.282  0.00  0.00    +0.155 HD
ATOM     18  H   UNL     1      37.290 -18.776 -21.629  0.00  0.00    +0.155 HD
ENDBRANCH   6  13
BRANCH   4  20
ATOM     19 CL   UNL     1      28.655 -25.447 -14.265  0.00  0.00    -0.082 Cl
ATOM     20  C   UNL     1      33.032 -24.374 -14.581  0.00  0.00    +0.037 C 
ATOM     21  C   UNL     1      32.577 -25.170 -13.526  0.00  0.00    +0.004 C 
ATOM     22  C   UNL     1      32.123 -23.913 -15.538  0.00  0.00    +0.004 C 
ATOM     23  C   UNL     1      31.225 -25.501 -13.427  0.00  0.00    +0.011 C 
ATOM     24  C   UNL     1      30.771 -24.244 -15.440  0.00  0.00    +0.011 C 
ATOM     25  C   UNL     1      30.322 -25.038 -14.385  0.00  0.00    +0.058 C 
ENDBRANCH   4  20
TORSDOF 2
ENDMDL
MODEL 9
REMARK VINA RESULT:     -10.1      3.728      6.639
REMARK  Name = 2765355
REMARK  2 active torsions:
REMARK  status: ('A' for Active; 'I' for Inactive)
REMARK    1  A    between atoms: C_4  and  C_20
REMARK    2  A    between atoms: C_6  and  C_13
REMARK                            x       y       z     vdW  Elec       q    Type
REMARK                         _______ _______ _______ _____ _____    ______ ____
ROOT
ATOM      1  O   UNL     1      33.573 -25.302 -13.513  0.00  0.00    -0.353 OA
ATOM      2  N   UNL     1      32.275 -24.925 -13.828  0.00  0.00    -0.077 NA
ATOM      3  C   UNL     1      33.730 -24.089 -15.347  0.00  0.00    +0.058 A 
ATOM      4  C   UNL     1      34.442 -24.798 -14.428  0.00  0.00    +0.177 A 
ATOM      5  C   UNL     1      32.350 -24.183 -14.947  0.00  0.00    +0.123 A 
ATOM      6  C   UNL     1      33.218 -22.795 -17.180  0.00  0.00    +0.031 C 
ATOM      7  C   UNL     1      34.247 -23.418 -16.446  0.00  0.00    +0.007 C 
ATOM      8  C   UNL     1      31.342 -23.551 -15.696  0.00  0.00    +0.023 C 
ATOM      9  C   UNL     1      31.833 -22.857 -16.825  0.00  0.00    +0.004 C 
ENDROOT
BRANCH   6  13
ATOM     10  N   UNL     1      34.905 -21.995 -18.619  0.00  0.00    -0.338 NA
ATOM     11  N   UNL     1      34.403 -20.668 -20.567  0.00  0.00    -0.170 NA
ATOM     12  N   UNL     1      36.619 -21.220 -20.023  0.00  0.00    -0.293 N 
ATOM     13  C   UNL     1      33.584 -22.046 -18.367  0.00  0.00    +0.146 C 
ATOM     14  C   UNL     1      32.622 -21.447 -19.148  0.00  0.00    +0.055 C 
ATOM     15  C   UNL     1      33.095 -20.763 -20.250  0.00  0.00    +0.114 C 
ATOM     16  C   UNL     1      35.240 -21.298 -19.722  0.00  0.00    +0.141 C 
ATOM     17  H   UNL     1      37.276 -21.663 -19.439  0.00  0.00    +0.155 HD
ATOM     18  H   UNL     1      36.920 -20.724 -20.817  0.00  0.00    +0.155 HD
ENDBRANCH   6  13
BRANCH   4  20
ATOM     19 CL   UNL     1      40.172 -26.135 -13.524  0.00  0.00    -0.082 Cl
ATOM     20  C   UNL     1      35.823 -25.120 -14.209  0.00  0.00    +0.037 C 
ATOM     21  C   UNL     1      36.641 -24.255 -13.477  0.00  0.00    +0.004 C 
ATOM     22  C   UNL     1      36.361 -26.302 -14.728  0.00  0.00    +0.004 C 
ATOM     23  C   UNL     1      37.985 -24.568 -13.264  0.00  0.00    +0.011 C 
ATOM     24  C   UNL     1      37.704 -26.615 -14.516  0.00  0.00    +0.011 C 
ATOM     25  C   UNL     1      38.516 -25.748 -13.785  0.00  0.00    +0.058 C 
ENDBRANCH   4  20
TORSDOF 2
ENDMDL
