MODEL 1
REMARK VINA RESULT:     -11.6      0.000      0.000
REMARK  Name = 2079916
REMARK  5 active torsions:
REMARK  status: ('A' for Active; 'I' for Inactive)
REMARK    1  A    between atoms: C_4  and  C_10
REMARK    2  A    between atoms: C_5  and  S_15
REMARK    3  A    between atoms: S_15  and  C_16
REMARK    4  A    between atoms: C_16  and  C_18
REMARK    5  A    between atoms: C_21  and  O_24
REMARK                            x       y       z     vdW  Elec       q    Type
REMARK                         _______ _______ _______ _____ _____    ______ ____
ROOT
ATOM      1  O   UNL     1      34.953 -18.182 -21.477  0.00  0.00    -0.411 OA
ATOM      2  N   UNL     1      34.620 -19.709 -23.076  0.00  0.00    -0.106 NA
ATOM      3  N   UNL     1      34.700 -18.468 -23.681  0.00  0.00    -0.101 NA
ATOM      4  C   UNL     1      34.774 -19.488 -21.799  0.00  0.00    +0.251 A 
ATOM      5  C   UNL     1      34.894 -17.607 -22.709  0.00  0.00    +0.279 A 
ENDROOT
BRANCH   4  10
ATOM      6  O   UNL     1      32.566 -22.362 -18.510  0.00  0.00    -0.435 OA
ATOM      7  O   UNL     1      34.664 -23.034 -17.533  0.00  0.00    -0.435 OA
ATOM      8  C   UNL     1      33.633 -21.782 -19.126  0.00  0.00    +0.177 C 
ATOM      9  C   UNL     1      34.830 -22.166 -18.568  0.00  0.00    +0.176 C 
ATOM     10  C   UNL     1      34.781 -20.410 -20.688  0.00  0.00    +0.058 C 
ATOM     11  C   UNL     1      33.574 -20.904 -20.189  0.00  0.00    +0.045 C 
ATOM     12  C   UNL     1      36.037 -21.693 -19.042  0.00  0.00    +0.040 C 
ATOM     13  C   UNL     1      36.006 -20.801 -20.118  0.00  0.00    +0.008 C 
ATOM     14  C   UNL     1      33.227 -23.154 -17.502  0.00  0.00    +0.429 C 
ENDBRANCH   4  10
BRANCH   5  15
ATOM     15  S   UNL     1      35.062 -15.896 -22.958  0.00  0.00    -0.050 S 
BRANCH  15  16
ATOM     16  C   UNL     1      34.511 -15.257 -21.351  0.00  0.00    +0.093 C 
BRANCH  16  18
ATOM     17  F   UNL     1      32.870 -11.420 -23.851  0.00  0.00    -0.201 F 
ATOM     18  C   UNL     1      33.581 -14.085 -21.496  0.00  0.00    -0.008 C 
ATOM     19  C   UNL     1      33.659 -13.284 -22.628  0.00  0.00    +0.029 C 
ATOM     20  C   UNL     1      32.658 -13.816 -20.494  0.00  0.00    -0.000 C 
ATOM     21  C   UNL     1      31.867 -11.916 -21.760  0.00  0.00    +0.166 C 
ATOM     22  C   UNL     1      32.798 -12.195 -22.760  0.00  0.00    +0.174 C 
ATOM     23  C   UNL     1      31.797 -12.727 -20.627  0.00  0.00    +0.039 C 
BRANCH  21  24
ATOM     24  O   UNL     1      31.027 -10.853 -21.886  0.00  0.00    -0.469 OA
ATOM     25  C   UNL     1      31.486  -9.598 -21.383  0.00  0.00    +0.253 C 
ENDBRANCH  21  24
ENDBRANCH  16  18
ENDBRANCH  15  16
ENDBRANCH   5  15
TORSDOF 5
ENDMDL
MODEL 2
REMARK VINA RESULT:     -11.3      2.838      9.456
REMARK  Name = 2079916
REMARK  5 active torsions:
REMARK  status: ('A' for Active; 'I' for Inactive)
REMARK    1  A    between atoms: C_4  and  C_10
REMARK    2  A    between atoms: C_5  and  S_15
REMARK    3  A    between atoms: S_15  and  C_16
REMARK    4  A    between atoms: C_16  and  C_18
REMARK    5  A    between atoms: C_21  and  O_24
REMARK                            x       y       z     vdW  Elec       q    Type
REMARK                         _______ _______ _______ _____ _____    ______ ____
ROOT
ATOM      1  O   UNL     1      34.423 -15.601 -21.693  0.00  0.00    -0.411 OA
ATOM      2  N   UNL     1      34.255 -15.345 -23.909  0.00  0.00    -0.106 NA
ATOM      3  N   UNL     1      34.950 -16.515 -23.666  0.00  0.00    -0.101 NA
ATOM      4  C   UNL     1      33.972 -14.854 -22.732  0.00  0.00    +0.251 A 
ATOM      5  C   UNL     1      35.025 -16.624 -22.360  0.00  0.00    +0.279 A 
ENDROOT
BRANCH   4  10
ATOM      6  O   UNL     1      32.547 -10.238 -23.514  0.00  0.00    -0.435 OA
ATOM      7  O   UNL     1      31.287 -10.168 -21.461  0.00  0.00    -0.435 OA
ATOM      8  C   UNL     1      32.614 -11.410 -22.826  0.00  0.00    +0.177 C 
ATOM      9  C   UNL     1      31.895 -11.370 -21.654  0.00  0.00    +0.176 C 
ATOM     10  C   UNL     1      33.261 -13.651 -22.372  0.00  0.00    +0.058 C 
ATOM     11  C   UNL     1      33.309 -12.538 -23.215  0.00  0.00    +0.045 C 
ATOM     12  C   UNL     1      31.830 -12.456 -20.805  0.00  0.00    +0.040 C 
ATOM     13  C   UNL     1      32.526 -13.610 -21.174  0.00  0.00    +0.008 C 
ATOM     14  C   UNL     1      31.704  -9.456 -22.644  0.00  0.00    +0.429 C 
ENDBRANCH   4  10
BRANCH   5  15
ATOM     15  S   UNL     1      35.813 -17.942 -21.547  0.00  0.00    -0.050 S 
BRANCH  15  16
ATOM     16  C   UNL     1      34.644 -19.293 -21.867  0.00  0.00    +0.093 C 
BRANCH  16  18
ATOM     17  F   UNL     1      36.880 -22.156 -18.630  0.00  0.00    -0.201 F 
ATOM     18  C   UNL     1      34.597 -20.282 -20.735  0.00  0.00    -0.008 C 
ATOM     19  C   UNL     1      35.782 -20.766 -20.198  0.00  0.00    +0.029 C 
ATOM     20  C   UNL     1      33.368 -20.700 -20.242  0.00  0.00    -0.000 C 
ATOM     21  C   UNL     1      34.509 -22.112 -18.648  0.00  0.00    +0.166 C 
ATOM     22  C   UNL     1      35.738 -21.686 -19.150  0.00  0.00    +0.174 C 
ATOM     23  C   UNL     1      33.323 -21.619 -19.194  0.00  0.00    +0.039 C 
BRANCH  21  24
ATOM     24  O   UNL     1      34.463 -23.010 -17.627  0.00  0.00    -0.469 OA
ATOM     25  C   UNL     1      33.171 -23.433 -17.191  0.00  0.00    +0.253 C 
ENDBRANCH  21  24
ENDBRANCH  16  18
ENDBRANCH  15  16
ENDBRANCH   5  15
TORSDOF 5
ENDMDL
MODEL 3
REMARK VINA RESULT:     -11.3      4.732      9.403
REMARK  Name = 2079916
REMARK  5 active torsions:
REMARK  status: ('A' for Active; 'I' for Inactive)
REMARK    1  A    between atoms: C_4  and  C_10
REMARK    2  A    between atoms: C_5  and  S_15
REMARK    3  A    between atoms: S_15  and  C_16
REMARK    4  A    between atoms: C_16  and  C_18
REMARK    5  A    between atoms: C_21  and  O_24
REMARK                            x       y       z     vdW  Elec       q    Type
REMARK                         _______ _______ _______ _____ _____    ______ ____
ROOT
ATOM      1  O   UNL     1      35.550 -20.338 -20.562  0.00  0.00    -0.411 OA
ATOM      2  N   UNL     1      37.209 -18.839 -20.524  0.00  0.00    -0.106 NA
ATOM      3  N   UNL     1      37.436 -19.752 -19.511  0.00  0.00    -0.101 NA
ATOM      4  C   UNL     1      36.104 -19.224 -21.103  0.00  0.00    +0.251 A 
ATOM      5  C   UNL     1      36.443 -20.608 -19.571  0.00  0.00    +0.279 A 
ENDROOT
BRANCH   4  10
ATOM      6  O   UNL     1      34.513 -15.450 -23.781  0.00  0.00    -0.435 OA
ATOM      7  O   UNL     1      33.386 -16.897 -25.344  0.00  0.00    -0.435 OA
ATOM      8  C   UNL     1      34.656 -16.765 -23.463  0.00  0.00    +0.177 C 
ATOM      9  C   UNL     1      34.013 -17.591 -24.355  0.00  0.00    +0.176 C 
ATOM     10  C   UNL     1      35.388 -18.652 -22.218  0.00  0.00    +0.058 C 
ATOM     11  C   UNL     1      35.355 -17.265 -22.382  0.00  0.00    +0.045 C 
ATOM     12  C   UNL     1      34.031 -18.964 -24.216  0.00  0.00    +0.040 C 
ATOM     13  C   UNL     1      34.731 -19.497 -23.129  0.00  0.00    +0.008 C 
ATOM     14  C   UNL     1      33.708 -15.541 -24.974  0.00  0.00    +0.429 C 
ENDBRANCH   4  10
BRANCH   5  15
ATOM     15  S   UNL     1      36.272 -21.962 -18.494  0.00  0.00    -0.050 S 
BRANCH  15  16
ATOM     16  C   UNL     1      34.544 -22.426 -18.794  0.00  0.00    +0.093 C 
BRANCH  16  18
ATOM     17  F   UNL     1      30.452 -23.209 -16.281  0.00  0.00    -0.201 F 
ATOM     18  C   UNL     1      33.836 -22.823 -17.528  0.00  0.00    -0.008 C 
ATOM     19  C   UNL     1      32.448 -22.833 -17.494  0.00  0.00    +0.029 C 
ATOM     20  C   UNL     1      34.579 -23.173 -16.409  0.00  0.00    -0.000 C 
ATOM     21  C   UNL     1      32.529 -23.552 -15.189  0.00  0.00    +0.166 C 
ATOM     22  C   UNL     1      31.791 -23.198 -16.319  0.00  0.00    +0.174 C 
ATOM     23  C   UNL     1      33.923 -23.539 -15.234  0.00  0.00    +0.039 C 
BRANCH  21  24
ATOM     24  O   UNL     1      31.891 -23.908 -14.041  0.00  0.00    -0.469 OA
ATOM     25  C   UNL     1      32.171 -25.206 -13.517  0.00  0.00    +0.253 C 
ENDBRANCH  21  24
ENDBRANCH  16  18
ENDBRANCH  15  16
ENDBRANCH   5  15
TORSDOF 5
ENDMDL
MODEL 4
REMARK VINA RESULT:     -11.2      2.869      9.263
REMARK  Name = 2079916
REMARK  5 active torsions:
REMARK  status: ('A' for Active; 'I' for Inactive)
REMARK    1  A    between atoms: C_4  and  C_10
REMARK    2  A    between atoms: C_5  and  S_15
REMARK    3  A    between atoms: S_15  and  C_16
REMARK    4  A    between atoms: C_16  and  C_18
REMARK    5  A    between atoms: C_21  and  O_24
REMARK                            x       y       z     vdW  Elec       q    Type
REMARK                         _______ _______ _______ _____ _____    ______ ____
ROOT
ATOM      1  O   UNL     1      34.623 -15.935 -21.968  0.00  0.00    -0.411 OA
ATOM      2  N   UNL     1      34.481 -15.900 -24.200  0.00  0.00    -0.106 NA
ATOM      3  N   UNL     1      35.080 -17.090 -23.829  0.00  0.00    -0.101 NA
ATOM      4  C   UNL     1      34.236 -15.268 -23.084  0.00  0.00    +0.251 A 
ATOM      5  C   UNL     1      35.143 -17.067 -22.518  0.00  0.00    +0.279 A 
ENDROOT
BRANCH   4  10
ATOM      6  O   UNL     1      31.336 -12.198 -20.610  0.00  0.00    -0.435 OA
ATOM      7  O   UNL     1      31.813 -10.372 -22.109  0.00  0.00    -0.435 OA
ATOM      8  C   UNL     1      32.197 -12.555 -21.602  0.00  0.00    +0.177 C 
ATOM      9  C   UNL     1      32.469 -11.513 -22.457  0.00  0.00    +0.176 C 
ATOM     10  C   UNL     1      33.623 -13.981 -22.858  0.00  0.00    +0.058 C 
ATOM     11  C   UNL     1      32.759 -13.804 -21.775  0.00  0.00    +0.045 C 
ATOM     12  C   UNL     1      33.320 -11.660 -23.534  0.00  0.00    +0.040 C 
ATOM     13  C   UNL     1      33.902 -12.915 -23.733  0.00  0.00    +0.008 C 
ATOM     14  C   UNL     1      31.098 -10.814 -20.937  0.00  0.00    +0.429 C 
ENDBRANCH   4  10
BRANCH   5  15
ATOM     15  S   UNL     1      35.820 -18.352 -21.563  0.00  0.00    -0.050 S 
BRANCH  15  16
ATOM     16  C   UNL     1      34.494 -19.587 -21.656  0.00  0.00    +0.093 C 
BRANCH  16  18
ATOM     17  F   UNL     1      36.975 -22.169 -18.362  0.00  0.00    -0.201 F 
ATOM     18  C   UNL     1      34.535 -20.549 -20.501  0.00  0.00    -0.008 C 
ATOM     19  C   UNL     1      35.758 -20.917 -19.958  0.00  0.00    +0.029 C 
ATOM     20  C   UNL     1      33.347 -21.060 -19.994  0.00  0.00    -0.000 C 
ATOM     21  C   UNL     1      34.608 -22.330 -18.372  0.00  0.00    +0.166 C 
ATOM     22  C   UNL     1      35.795 -21.812 -18.889  0.00  0.00    +0.174 C 
ATOM     23  C   UNL     1      33.384 -21.954 -18.925  0.00  0.00    +0.039 C 
BRANCH  21  24
ATOM     24  O   UNL     1      34.642 -23.204 -17.330  0.00  0.00    -0.469 OA
ATOM     25  C   UNL     1      33.389 -23.593 -16.766  0.00  0.00    +0.253 C 
ENDBRANCH  21  24
ENDBRANCH  16  18
ENDBRANCH  15  16
ENDBRANCH   5  15
TORSDOF 5
ENDMDL
MODEL 5
REMARK VINA RESULT:     -11.2      1.712      2.209
REMARK  Name = 2079916
REMARK  5 active torsions:
REMARK  status: ('A' for Active; 'I' for Inactive)
REMARK    1  A    between atoms: C_4  and  C_10
REMARK    2  A    between atoms: C_5  and  S_15
REMARK    3  A    between atoms: S_15  and  C_16
REMARK    4  A    between atoms: C_16  and  C_18
REMARK    5  A    between atoms: C_21  and  O_24
REMARK                            x       y       z     vdW  Elec       q    Type
REMARK                         _______ _______ _______ _____ _____    ______ ____
ROOT
ATOM      1  O   UNL     1      34.352 -19.736 -21.997  0.00  0.00    -0.411 OA
ATOM      2  N   UNL     1      36.390 -19.086 -21.347  0.00  0.00    -0.106 NA
ATOM      3  N   UNL     1      36.071 -18.397 -22.503  0.00  0.00    -0.101 NA
ATOM      4  C   UNL     1      35.360 -19.848 -21.096  0.00  0.00    +0.251 A 
ATOM      5  C   UNL     1      34.874 -18.809 -22.847  0.00  0.00    +0.279 A 
ENDROOT
BRANCH   4  10
ATOM      6  O   UNL     1      32.480 -22.605 -18.259  0.00  0.00    -0.435 OA
ATOM      7  O   UNL     1      34.350 -23.431 -16.982  0.00  0.00    -0.435 OA
ATOM      8  C   UNL     1      33.666 -22.092 -18.687  0.00  0.00    +0.177 C 
ATOM      9  C   UNL     1      34.733 -22.563 -17.959  0.00  0.00    +0.176 C 
ATOM     10  C   UNL     1      35.133 -20.782 -20.020  0.00  0.00    +0.058 C 
ATOM     11  C   UNL     1      33.833 -21.199 -19.727  0.00  0.00    +0.045 C 
ATOM     12  C   UNL     1      36.027 -22.168 -18.228  0.00  0.00    +0.040 C 
ATOM     13  C   UNL     1      36.224 -21.263 -19.275  0.00  0.00    +0.008 C 
ATOM     14  C   UNL     1      32.922 -23.453 -17.179  0.00  0.00    +0.429 C 
ENDBRANCH   4  10
BRANCH   5  15
ATOM     15  S   UNL     1      34.023 -18.233 -24.249  0.00  0.00    -0.050 S 
BRANCH  15  16
ATOM     16  C   UNL     1      34.876 -16.661 -24.549  0.00  0.00    +0.093 C 
BRANCH  16  18
ATOM     17  F   UNL     1      34.360 -14.065 -20.467  0.00  0.00    -0.201 F 
ATOM     18  C   UNL     1      34.255 -15.524 -23.786  0.00  0.00    -0.008 C 
ATOM     19  C   UNL     1      34.604 -15.319 -22.457  0.00  0.00    +0.029 C 
ATOM     20  C   UNL     1      33.339 -14.694 -24.418  0.00  0.00    -0.000 C 
ATOM     21  C   UNL     1      33.104 -13.427 -22.375  0.00  0.00    +0.166 C 
ATOM     22  C   UNL     1      34.026 -14.266 -21.749  0.00  0.00    +0.174 C 
ATOM     23  C   UNL     1      32.761 -13.641 -23.710  0.00  0.00    +0.039 C 
BRANCH  21  24
ATOM     24  O   UNL     1      32.538 -12.400 -21.686  0.00  0.00    -0.469 OA
ATOM     25  C   UNL     1      32.183 -11.235 -22.430  0.00  0.00    +0.253 C 
ENDBRANCH  21  24
ENDBRANCH  16  18
ENDBRANCH  15  16
ENDBRANCH   5  15
TORSDOF 5
ENDMDL
MODEL 6
REMARK VINA RESULT:     -11.1      5.107     10.287
REMARK  Name = 2079916
REMARK  5 active torsions:
REMARK  status: ('A' for Active; 'I' for Inactive)
REMARK    1  A    between atoms: C_4  and  C_10
REMARK    2  A    between atoms: C_5  and  S_15
REMARK    3  A    between atoms: S_15  and  C_16
REMARK    4  A    between atoms: C_16  and  C_18
REMARK    5  A    between atoms: C_21  and  O_24
REMARK                            x       y       z     vdW  Elec       q    Type
REMARK                         _______ _______ _______ _____ _____    ______ ____
ROOT
ATOM      1  O   UNL     1      35.103 -20.306 -20.753  0.00  0.00    -0.411 OA
ATOM      2  N   UNL     1      36.898 -18.984 -20.580  0.00  0.00    -0.106 NA
ATOM      3  N   UNL     1      36.989 -19.957 -19.602  0.00  0.00    -0.101 NA
ATOM      4  C   UNL     1      35.787 -19.232 -21.220  0.00  0.00    +0.251 A 
ATOM      5  C   UNL     1      35.920 -20.706 -19.740  0.00  0.00    +0.279 A 
ENDROOT
BRANCH   4  10
ATOM      6  O   UNL     1      34.513 -15.196 -23.678  0.00  0.00    -0.435 OA
ATOM      7  O   UNL     1      33.492 -16.471 -25.450  0.00  0.00    -0.435 OA
ATOM      8  C   UNL     1      34.600 -16.538 -23.466  0.00  0.00    +0.177 C 
ATOM      9  C   UNL     1      34.017 -17.266 -24.477  0.00  0.00    +0.176 C 
ATOM     10  C   UNL     1      35.182 -18.545 -22.336  0.00  0.00    +0.058 C 
ATOM     11  C   UNL     1      35.193 -17.149 -22.379  0.00  0.00    +0.045 C 
ATOM     12  C   UNL     1      33.993 -18.645 -24.459  0.00  0.00    +0.040 C 
ATOM     13  C   UNL     1      34.586 -19.289 -23.369  0.00  0.00    +0.008 C 
ATOM     14  C   UNL     1      33.811 -15.161 -24.937  0.00  0.00    +0.429 C 
ENDBRANCH   4  10
BRANCH   5  15
ATOM     15  S   UNL     1      35.569 -22.079 -18.734  0.00  0.00    -0.050 S 
BRANCH  15  16
ATOM     16  C   UNL     1      36.760 -21.833 -17.387  0.00  0.00    +0.093 C 
BRANCH  16  18
ATOM     17  F   UNL     1      38.281 -24.528 -13.632  0.00  0.00    -0.201 F 
ATOM     18  C   UNL     1      36.475 -22.724 -16.209  0.00  0.00    -0.008 C 
ATOM     19  C   UNL     1      37.530 -23.219 -15.454  0.00  0.00    +0.029 C 
ATOM     20  C   UNL     1      35.161 -23.041 -15.893  0.00  0.00    -0.000 C 
ATOM     21  C   UNL     1      35.949 -24.372 -14.037  0.00  0.00    +0.166 C 
ATOM     22  C   UNL     1      37.265 -24.048 -14.363  0.00  0.00    +0.174 C 
ATOM     23  C   UNL     1      34.896 -23.868 -14.802  0.00  0.00    +0.039 C 
BRANCH  21  24
ATOM     24  O   UNL     1      35.688 -25.181 -12.974  0.00  0.00    -0.469 OA
ATOM     25  C   UNL     1      35.365 -24.545 -11.738  0.00  0.00    +0.253 C 
ENDBRANCH  21  24
ENDBRANCH  16  18
ENDBRANCH  15  16
ENDBRANCH   5  15
TORSDOF 5
ENDMDL
MODEL 7
REMARK VINA RESULT:     -11.0      3.842      5.852
REMARK  Name = 2079916
REMARK  5 active torsions:
REMARK  status: ('A' for Active; 'I' for Inactive)
REMARK    1  A    between atoms: C_4  and  C_10
REMARK    2  A    between atoms: C_5  and  S_15
REMARK    3  A    between atoms: S_15  and  C_16
REMARK    4  A    between atoms: C_16  and  C_18
REMARK    5  A    between atoms: C_21  and  O_24
REMARK                            x       y       z     vdW  Elec       q    Type
REMARK                         _______ _______ _______ _____ _____    ______ ____
ROOT
ATOM      1  O   UNL     1      33.257 -22.185 -18.062  0.00  0.00    -0.411 OA
ATOM      2  N   UNL     1      35.362 -22.868 -17.737  0.00  0.00    -0.106 NA
ATOM      3  N   UNL     1      35.336 -22.099 -18.886  0.00  0.00    -0.101 NA
ATOM      4  C   UNL     1      34.132 -22.886 -17.298  0.00  0.00    +0.251 A 
ATOM      5  C   UNL     1      34.088 -21.723 -19.037  0.00  0.00    +0.279 A 
ENDROOT
BRANCH   4  10
ATOM      6  O   UNL     1      30.376 -24.296 -14.495  0.00  0.00    -0.435 OA
ATOM      7  O   UNL     1      31.834 -25.329 -12.878  0.00  0.00    -0.435 OA
ATOM      8  C   UNL     1      31.690 -24.179 -14.834  0.00  0.00    +0.177 C 
ATOM      9  C   UNL     1      32.522 -24.769 -13.911  0.00  0.00    +0.176 C 
ATOM     10  C   UNL     1      33.567 -23.531 -16.137  0.00  0.00    +0.058 C 
ATOM     11  C   UNL     1      32.182 -23.551 -15.961  0.00  0.00    +0.045 C 
ATOM     12  C   UNL     1      33.893 -24.763 -14.062  0.00  0.00    +0.040 C 
ATOM     13  C   UNL     1      34.418 -24.134 -15.194  0.00  0.00    +0.008 C 
ATOM     14  C   UNL     1      30.476 -25.026 -13.256  0.00  0.00    +0.429 C 
ENDBRANCH   4  10
BRANCH   5  15
ATOM     15  S   UNL     1      33.534 -20.728 -20.350  0.00  0.00    -0.050 S 
BRANCH  15  16
ATOM     16  C   UNL     1      35.109 -20.094 -20.991  0.00  0.00    +0.093 C 
BRANCH  16  18
ATOM     17  F   UNL     1      35.456 -15.587 -22.791  0.00  0.00    -0.201 F 
ATOM     18  C   UNL     1      34.910 -19.107 -22.108  0.00  0.00    -0.008 C 
ATOM     19  C   UNL     1      35.284 -17.782 -21.927  0.00  0.00    +0.029 C 
ATOM     20  C   UNL     1      34.353 -19.533 -23.307  0.00  0.00    -0.000 C 
ATOM     21  C   UNL     1      34.538 -17.285 -24.170  0.00  0.00    +0.166 C 
ATOM     22  C   UNL     1      35.097 -16.867 -22.963  0.00  0.00    +0.174 C 
ATOM     23  C   UNL     1      34.167 -18.619 -24.343  0.00  0.00    +0.039 C 
BRANCH  21  24
ATOM     24  O   UNL     1      34.354 -16.394 -25.182  0.00  0.00    -0.469 OA
ATOM     25  C   UNL     1      33.417 -15.340 -24.957  0.00  0.00    +0.253 C 
ENDBRANCH  21  24
ENDBRANCH  16  18
ENDBRANCH  15  16
ENDBRANCH   5  15
TORSDOF 5
ENDMDL
MODEL 8
REMARK VINA RESULT:     -10.8      5.260      7.576
REMARK  Name = 2079916
REMARK  5 active torsions:
REMARK  status: ('A' for Active; 'I' for Inactive)
REMARK    1  A    between atoms: C_4  and  C_10
REMARK    2  A    between atoms: C_5  and  S_15
REMARK    3  A    between atoms: S_15  and  C_16
REMARK    4  A    between atoms: C_16  and  C_18
REMARK    5  A    between atoms: C_21  and  O_24
REMARK                            x       y       z     vdW  Elec       q    Type
REMARK                         _______ _______ _______ _____ _____    ______ ____
ROOT
ATOM      1  O   UNL     1      34.036 -22.851 -16.564  0.00  0.00    -0.411 OA
ATOM      2  N   UNL     1      34.601 -23.745 -14.594  0.00  0.00    -0.106 NA
ATOM      3  N   UNL     1      35.758 -23.308 -15.212  0.00  0.00    -0.101 NA
ATOM      4  C   UNL     1      33.631 -23.455 -15.419  0.00  0.00    +0.251 A 
ATOM      5  C   UNL     1      35.381 -22.795 -16.359  0.00  0.00    +0.279 A 
ENDROOT
BRANCH   4  10
ATOM      6  O   UNL     1      28.987 -22.784 -16.810  0.00  0.00    -0.435 OA
ATOM      7  O   UNL     1      28.148 -24.227 -15.071  0.00  0.00    -0.435 OA
ATOM      8  C   UNL     1      29.984 -23.300 -16.040  0.00  0.00    +0.177 C 
ATOM      9  C   UNL     1      29.505 -24.123 -15.048  0.00  0.00    +0.176 C 
ATOM     10  C   UNL     1      32.210 -23.678 -15.301  0.00  0.00    +0.058 C 
ATOM     11  C   UNL     1      31.334 -23.057 -16.194  0.00  0.00    +0.045 C 
ATOM     12  C   UNL     1      30.348 -24.750 -14.153  0.00  0.00    +0.040 C 
ATOM     13  C   UNL     1      31.721 -24.520 -14.287  0.00  0.00    +0.008 C 
ATOM     14  C   UNL     1      27.827 -23.375 -16.191  0.00  0.00    +0.429 C 
ENDBRANCH   4  10
BRANCH   5  15
ATOM     15  S   UNL     1      36.480 -22.104 -17.514  0.00  0.00    -0.050 S 
BRANCH  15  16
ATOM     16  C   UNL     1      35.527 -22.281 -19.047  0.00  0.00    +0.093 C 
BRANCH  16  18
ATOM     17  F   UNL     1      37.986 -18.703 -21.242  0.00  0.00    -0.201 F 
ATOM     18  C   UNL     1      35.561 -21.032 -19.884  0.00  0.00    -0.008 C 
ATOM     19  C   UNL     1      36.780 -20.439 -20.180  0.00  0.00    +0.029 C 
ATOM     20  C   UNL     1      34.371 -20.486 -20.347  0.00  0.00    -0.000 C 
ATOM     21  C   UNL     1      35.621 -18.722 -21.424  0.00  0.00    +0.166 C 
ATOM     22  C   UNL     1      36.811 -19.278 -20.954  0.00  0.00    +0.174 C 
ATOM     23  C   UNL     1      34.401 -19.326 -21.121  0.00  0.00    +0.039 C 
BRANCH  21  24
ATOM     24  O   UNL     1      35.649 -17.590 -22.178  0.00  0.00    -0.469 OA
ATOM     25  C   UNL     1      34.904 -17.601 -23.396  0.00  0.00    +0.253 C 
ENDBRANCH  21  24
ENDBRANCH  16  18
ENDBRANCH  15  16
ENDBRANCH   5  15
TORSDOF 5
ENDMDL
MODEL 9
REMARK VINA RESULT:     -10.8      1.858      2.484
REMARK  Name = 2079916
REMARK  5 active torsions:
REMARK  status: ('A' for Active; 'I' for Inactive)
REMARK    1  A    between atoms: C_4  and  C_10
REMARK    2  A    between atoms: C_5  and  S_15
REMARK    3  A    between atoms: S_15  and  C_16
REMARK    4  A    between atoms: C_16  and  C_18
REMARK    5  A    between atoms: C_21  and  O_24
REMARK                            x       y       z     vdW  Elec       q    Type
REMARK                         _______ _______ _______ _____ _____    ______ ____
ROOT
ATOM      1  O   UNL     1      34.578 -17.023 -23.261  0.00  0.00    -0.411 OA
ATOM      2  N   UNL     1      33.936 -18.886 -24.317  0.00  0.00    -0.106 NA
ATOM      3  N   UNL     1      33.529 -17.804 -25.076  0.00  0.00    -0.101 NA
ATOM      4  C   UNL     1      34.539 -18.379 -23.277  0.00  0.00    +0.251 A 
ATOM      5  C   UNL     1      33.924 -16.737 -24.421  0.00  0.00    +0.279 A 
ENDROOT
BRANCH   4  10
ATOM      6  O   UNL     1      34.579 -21.567 -19.564  0.00  0.00    -0.435 OA
ATOM      7  O   UNL     1      36.826 -20.965 -18.933  0.00  0.00    -0.435 OA
ATOM      8  C   UNL     1      35.102 -20.604 -20.371  0.00  0.00    +0.177 C 
ATOM      9  C   UNL     1      36.385 -20.260 -20.010  0.00  0.00    +0.176 C 
ATOM     10  C   UNL     1      35.164 -19.033 -22.152  0.00  0.00    +0.058 C 
ATOM     11  C   UNL     1      34.463 -20.008 -21.439  0.00  0.00    +0.045 C 
ATOM     12  C   UNL     1      37.100 -19.301 -20.698  0.00  0.00    +0.040 C 
ATOM     13  C   UNL     1      36.475 -18.681 -21.784  0.00  0.00    +0.008 C 
ATOM     14  C   UNL     1      35.676 -21.791 -18.655  0.00  0.00    +0.429 C 
ENDBRANCH   4  10
BRANCH   5  15
ATOM     15  S   UNL     1      33.648 -15.112 -24.970  0.00  0.00    -0.050 S 
BRANCH  15  16
ATOM     16  C   UNL     1      34.524 -14.163 -23.694  0.00  0.00    +0.093 C 
BRANCH  16  18
ATOM     17  F   UNL     1      32.014 -13.917 -19.534  0.00  0.00    -0.201 F 
ATOM     18  C   UNL     1      33.578 -13.445 -22.772  0.00  0.00    -0.008 C 
ATOM     19  C   UNL     1      33.231 -14.025 -21.559  0.00  0.00    +0.029 C 
ATOM     20  C   UNL     1      33.062 -12.211 -23.146  0.00  0.00    -0.000 C 
ATOM     21  C   UNL     1      31.828 -12.120 -21.072  0.00  0.00    +0.166 C 
ATOM     22  C   UNL     1      32.351 -13.360 -20.705  0.00  0.00    +0.174 C 
ATOM     23  C   UNL     1      32.184 -11.546 -22.292  0.00  0.00    +0.039 C 
BRANCH  21  24
ATOM     24  O   UNL     1      30.969 -11.470 -20.241  0.00  0.00    -0.469 OA
ATOM     25  C   UNL     1      31.537 -10.548 -19.310  0.00  0.00    +0.253 C 
ENDBRANCH  21  24
ENDBRANCH  16  18
ENDBRANCH  15  16
ENDBRANCH   5  15
TORSDOF 5
ENDMDL
