MODEL 1
REMARK VINA RESULT:     -12.3      0.000      0.000
REMARK  Name = 9810927
REMARK  6 active torsions:
REMARK  status: ('A' for Active; 'I' for Inactive)
REMARK    1  A    between atoms: N_1  and  C_13
REMARK    2  A    between atoms: C_11  and  O_24
REMARK    3  A    between atoms: C_12  and  O_26
REMARK    4  A    between atoms: C_14  and  C_18
REMARK    5  A    between atoms: C_19  and  C_20
REMARK    6  A    between atoms: N_28  and  C_32
REMARK                            x       y       z     vdW  Elec       q    Type
REMARK                         _______ _______ _______ _____ _____    ______ ____
ROOT
ATOM      1  N   UNL     1      36.204 -23.596 -15.683  0.00  0.00    -0.247 N 
ATOM      2  N   UNL     1      37.284 -21.998 -16.805  0.00  0.00    -0.242 NA
ATOM      3  N   UNL     1      34.204 -23.781 -17.052  0.00  0.00    -0.228 NA
ATOM      4  N   UNL     1      34.268 -22.229 -18.933  0.00  0.00    -0.228 NA
ATOM      5  C   UNL     1      35.401 -23.262 -16.739  0.00  0.00    +0.152 C 
ATOM      6  C   UNL     1      37.322 -22.808 -15.767  0.00  0.00    +0.223 C 
ATOM      7  C   UNL     1      36.090 -22.272 -17.421  0.00  0.00    +0.140 C 
ATOM      8  C   UNL     1      35.480 -21.751 -18.558  0.00  0.00    +0.150 C 
ATOM      9  C   UNL     1      33.714 -23.199 -18.167  0.00  0.00    +0.253 C 
ATOM     10  N   UNL     1      36.107 -20.744 -19.312  0.00  0.00    -0.295 N 
ATOM     11  H   UNL     1      36.983 -20.470 -18.954  0.00  0.00    +0.154 HD
ENDROOT
BRANCH  10  14
ATOM     12 CL   UNL     1      34.524 -17.822 -24.212  0.00  0.00    -0.082 Cl
ATOM     13  F   UNL     1      37.838 -18.953 -20.555  0.00  0.00    -0.203 F 
ATOM     14  C   UNL     1      35.732 -20.047 -20.480  0.00  0.00    +0.077 C 
ATOM     15  C   UNL     1      36.621 -19.156 -21.079  0.00  0.00    +0.154 C 
ATOM     16  C   UNL     1      34.468 -20.249 -21.034  0.00  0.00    +0.018 C 
ATOM     17  C   UNL     1      36.248 -18.468 -22.233  0.00  0.00    +0.042 C 
ATOM     18  C   UNL     1      34.094 -19.561 -22.187  0.00  0.00    +0.013 C 
ATOM     19  C   UNL     1      34.984 -18.671 -22.788  0.00  0.00    +0.060 C 
ENDBRANCH  10  14
BRANCH   1  23
ATOM     20  O   UNL     1      34.512 -24.850 -14.577  0.00  0.00    -0.326 OA
ATOM     21  C   UNL     1      36.389 -24.190 -13.258  0.00  0.00    +0.187 C 
ATOM     22  C   UNL     1      35.105 -23.684 -12.627  0.00  0.00    +0.178 C 
ATOM     23  C   UNL     1      35.930 -24.600 -14.653  0.00  0.00    +0.225 C 
ATOM     24  C   UNL     1      34.061 -24.620 -13.222  0.00  0.00    +0.223 C 
BRANCH  24  28
ATOM     25  O   UNL     1      32.026 -24.200 -14.507  0.00  0.00    -0.421 OA
ATOM     26  N   UNL     1      31.887 -23.607 -12.355  0.00  0.00    -0.109 NA
ATOM     27  N   UNL     1      30.677 -23.315 -12.958  0.00  0.00    -0.112 NA
ATOM     28  C   UNL     1      32.635 -24.118 -13.297  0.00  0.00    +0.255 A 
ATOM     29  C   UNL     1      30.805 -23.678 -14.212  0.00  0.00    +0.225 A 
BRANCH  29  30
ATOM     30  C   UNL     1      29.833 -23.602 -15.311  0.00  0.00    +0.070 C 
ATOM     31  C   UNL     1      29.155 -24.989 -15.613  0.00  0.00    +0.009 C 
ATOM     32  C   UNL     1      30.482 -23.120 -16.660  0.00  0.00    +0.009 C 
ATOM     33  C   UNL     1      28.619 -22.618 -15.092  0.00  0.00    +0.009 C 
ENDBRANCH  29  30
ENDBRANCH  24  28
BRANCH  21  34
ATOM     34  O   UNL     1      36.850 -25.362 -12.587  0.00  0.00    -0.378 OA
ATOM     35  H   UNL     1      37.586 -25.751 -13.086  0.00  0.00    +0.211 HD
ENDBRANCH  21  34
BRANCH  22  36
ATOM     36  O   UNL     1      35.133 -23.748 -11.216  0.00  0.00    -0.379 OA
ATOM     37  H   UNL     1      34.628 -23.005 -10.848  0.00  0.00    +0.211 HD
ENDBRANCH  22  36
ENDBRANCH   1  23
TORSDOF 6
ENDMDL
MODEL 2
REMARK VINA RESULT:     -11.6     11.106     15.134
REMARK  Name = 9810927
REMARK  6 active torsions:
REMARK  status: ('A' for Active; 'I' for Inactive)
REMARK    1  A    between atoms: N_1  and  C_13
REMARK    2  A    between atoms: C_11  and  O_24
REMARK    3  A    between atoms: C_12  and  O_26
REMARK    4  A    between atoms: C_14  and  C_18
REMARK    5  A    between atoms: C_19  and  C_20
REMARK    6  A    between atoms: N_28  and  C_32
REMARK                            x       y       z     vdW  Elec       q    Type
REMARK                         _______ _______ _______ _____ _____    ______ ____
ROOT
ATOM      1  N   UNL     1      32.148 -10.370 -21.615  0.00  0.00    -0.247 N 
ATOM      2  N   UNL     1      33.156 -11.389 -23.324  0.00  0.00    -0.242 NA
ATOM      3  N   UNL     1      31.879 -12.257 -20.108  0.00  0.00    -0.228 NA
ATOM      4  N   UNL     1      32.781 -14.306 -21.081  0.00  0.00    -0.228 NA
ATOM      5  C   UNL     1      32.275 -11.683 -21.254  0.00  0.00    +0.152 C 
ATOM      6  C   UNL     1      32.692 -10.245 -22.867  0.00  0.00    +0.223 C 
ATOM      7  C   UNL     1      32.903 -12.296 -22.327  0.00  0.00    +0.140 C 
ATOM      8  C   UNL     1      33.154 -13.659 -22.212  0.00  0.00    +0.150 C 
ATOM      9  C   UNL     1      32.175 -13.575 -20.114  0.00  0.00    +0.253 C 
ATOM     10  N   UNL     1      33.787 -14.363 -23.252  0.00  0.00    -0.295 N 
ATOM     11  H   UNL     1      34.018 -13.799 -24.026  0.00  0.00    +0.154 HD
ENDROOT
BRANCH  10  14
ATOM     12 CL   UNL     1      35.351 -20.036 -23.893  0.00  0.00    -0.082 Cl
ATOM     13  F   UNL     1      33.084 -15.811 -25.522  0.00  0.00    -0.203 F 
ATOM     14  C   UNL     1      34.159 -15.715 -23.407  0.00  0.00    +0.077 C 
ATOM     15  C   UNL     1      33.791 -16.414 -24.556  0.00  0.00    +0.154 C 
ATOM     16  C   UNL     1      34.894 -16.351 -22.408  0.00  0.00    +0.018 C 
ATOM     17  C   UNL     1      34.160 -17.751 -24.706  0.00  0.00    +0.042 C 
ATOM     18  C   UNL     1      35.262 -17.688 -22.557  0.00  0.00    +0.013 C 
ATOM     19  C   UNL     1      34.896 -18.388 -23.707  0.00  0.00    +0.060 C 
ENDBRANCH  10  14
BRANCH   1  23
ATOM     20  O   UNL     1      31.285  -8.153 -21.665  0.00  0.00    -0.326 OA
ATOM     21  C   UNL     1      32.425  -8.812 -19.673  0.00  0.00    +0.187 C 
ATOM     22  C   UNL     1      33.068  -7.566 -20.254  0.00  0.00    +0.178 C 
ATOM     23  C   UNL     1      31.547  -9.294 -20.823  0.00  0.00    +0.225 C 
ATOM     24  C   UNL     1      31.947  -6.993 -21.111  0.00  0.00    +0.223 C 
BRANCH  24  28
ATOM     25  O   UNL     1      33.232  -6.610 -23.153  0.00  0.00    -0.421 OA
ATOM     26  N   UNL     1      31.943  -4.885 -22.547  0.00  0.00    -0.109 NA
ATOM     27  N   UNL     1      32.609  -4.534 -23.707  0.00  0.00    -0.112 NA
ATOM     28  C   UNL     1      32.340  -6.098 -22.268  0.00  0.00    +0.255 A 
ATOM     29  C   UNL     1      33.349  -5.570 -24.023  0.00  0.00    +0.225 A 
BRANCH  29  30
ATOM     30  C   UNL     1      34.259  -5.757 -25.161  0.00  0.00    +0.070 C 
ATOM     31  C   UNL     1      35.668  -6.302 -24.723  0.00  0.00    +0.009 C 
ATOM     32  C   UNL     1      34.523  -4.422 -25.950  0.00  0.00    +0.009 C 
ATOM     33  C   UNL     1      33.779  -6.773 -26.269  0.00  0.00    +0.009 C 
ENDBRANCH  29  30
ENDBRANCH  24  28
BRANCH  21  34
ATOM     34  O   UNL     1      31.571  -8.474 -18.582  0.00  0.00    -0.378 OA
ATOM     35  H   UNL     1      31.636  -7.521 -18.405  0.00  0.00    +0.211 HD
ENDBRANCH  21  34
BRANCH  22  36
ATOM     36  O   UNL     1      33.491  -6.660 -19.255  0.00  0.00    -0.379 OA
ATOM     37  H   UNL     1      32.842  -6.647 -18.534  0.00  0.00    +0.211 HD
ENDBRANCH  22  36
ENDBRANCH   1  23
TORSDOF 6
ENDMDL
MODEL 3
REMARK VINA RESULT:     -11.4      2.341      3.184
REMARK  Name = 9810927
REMARK  6 active torsions:
REMARK  status: ('A' for Active; 'I' for Inactive)
REMARK    1  A    between atoms: N_1  and  C_13
REMARK    2  A    between atoms: C_11  and  O_24
REMARK    3  A    between atoms: C_12  and  O_26
REMARK    4  A    between atoms: C_14  and  C_18
REMARK    5  A    between atoms: C_19  and  C_20
REMARK    6  A    between atoms: N_28  and  C_32
REMARK                            x       y       z     vdW  Elec       q    Type
REMARK                         _______ _______ _______ _____ _____    ______ ____
ROOT
ATOM      1  N   UNL     1      35.754 -22.247 -18.336  0.00  0.00    -0.247 N 
ATOM      2  N   UNL     1      36.873 -20.626 -19.383  0.00  0.00    -0.242 NA
ATOM      3  N   UNL     1      33.553 -21.930 -19.314  0.00  0.00    -0.228 NA
ATOM      4  N   UNL     1      33.549 -20.087 -20.914  0.00  0.00    -0.228 NA
ATOM      5  C   UNL     1      34.851 -21.631 -19.158  0.00  0.00    +0.152 C 
ATOM      6  C   UNL     1      36.953 -21.606 -18.507  0.00  0.00    +0.223 C 
ATOM      7  C   UNL     1      35.565 -20.631 -19.798  0.00  0.00    +0.140 C 
ATOM      8  C   UNL     1      34.866 -19.842 -20.705  0.00  0.00    +0.150 C 
ATOM      9  C   UNL     1      32.983 -21.101 -20.215  0.00  0.00    +0.253 C 
ATOM     10  N   UNL     1      35.510 -18.804 -21.401  0.00  0.00    -0.295 N 
ATOM     11  H   UNL     1      36.465 -18.713 -21.177  0.00  0.00    +0.154 HD
ENDROOT
BRANCH  10  14
ATOM     12 CL   UNL     1      33.631 -14.868 -25.404  0.00  0.00    -0.082 Cl
ATOM     13  F   UNL     1      34.662 -19.601 -23.929  0.00  0.00    -0.203 F 
ATOM     14  C   UNL     1      35.062 -17.868 -22.356  0.00  0.00    +0.077 C 
ATOM     15  C   UNL     1      34.643 -18.298 -23.615  0.00  0.00    +0.154 C 
ATOM     16  C   UNL     1      35.039 -16.510 -22.040  0.00  0.00    +0.018 C 
ATOM     17  C   UNL     1      34.201 -17.371 -24.557  0.00  0.00    +0.042 C 
ATOM     18  C   UNL     1      34.597 -15.582 -22.982  0.00  0.00    +0.013 C 
ATOM     19  C   UNL     1      34.177 -16.012 -24.241  0.00  0.00    +0.060 C 
ENDBRANCH  10  14
BRANCH   1  23
ATOM     20  O   UNL     1      34.117 -23.774 -17.531  0.00  0.00    -0.326 OA
ATOM     21  C   UNL     1      35.782 -23.072 -15.971  0.00  0.00    +0.187 C 
ATOM     22  C   UNL     1      34.399 -22.766 -15.429  0.00  0.00    +0.178 C 
ATOM     23  C   UNL     1      35.500 -23.377 -17.438  0.00  0.00    +0.225 C 
ATOM     24  C   UNL     1      33.522 -23.733 -16.213  0.00  0.00    +0.223 C 
BRANCH  24  28
ATOM     25  O   UNL     1      31.162 -24.171 -15.757  0.00  0.00    -0.421 OA
ATOM     26  N   UNL     1      31.527 -22.388 -17.058  0.00  0.00    -0.109 NA
ATOM     27  N   UNL     1      30.161 -22.518 -16.885  0.00  0.00    -0.112 NA
ATOM     28  C   UNL     1      32.062 -23.371 -16.384  0.00  0.00    +0.255 A 
ATOM     29  C   UNL     1      29.996 -23.571 -16.120  0.00  0.00    +0.225 A 
BRANCH  29  30
ATOM     30  C   UNL     1      28.756 -24.172 -15.611  0.00  0.00    +0.070 C 
ATOM     31  C   UNL     1      27.726 -23.095 -15.106  0.00  0.00    +0.009 C 
ATOM     32  C   UNL     1      29.008 -25.150 -14.406  0.00  0.00    +0.009 C 
ATOM     33  C   UNL     1      27.934 -25.037 -16.645  0.00  0.00    +0.009 C 
ENDBRANCH  29  30
ENDBRANCH  24  28
BRANCH  21  34
ATOM     34  O   UNL     1      36.306 -24.256 -15.371  0.00  0.00    -0.378 OA
ATOM     35  H   UNL     1      37.112 -24.526 -15.840  0.00  0.00    +0.211 HD
ENDBRANCH  21  34
BRANCH  22  36
ATOM     36  O   UNL     1      34.306 -22.974 -14.034  0.00  0.00    -0.379 OA
ATOM     37  H   UNL     1      35.194 -23.109 -13.667  0.00  0.00    +0.211 HD
ENDBRANCH  22  36
ENDBRANCH   1  23
TORSDOF 6
ENDMDL
MODEL 4
REMARK VINA RESULT:     -11.3      2.545      3.720
REMARK  Name = 9810927
REMARK  6 active torsions:
REMARK  status: ('A' for Active; 'I' for Inactive)
REMARK    1  A    between atoms: N_1  and  C_13
REMARK    2  A    between atoms: C_11  and  O_24
REMARK    3  A    between atoms: C_12  and  O_26
REMARK    4  A    between atoms: C_14  and  C_18
REMARK    5  A    between atoms: C_19  and  C_20
REMARK    6  A    between atoms: N_28  and  C_32
REMARK                            x       y       z     vdW  Elec       q    Type
REMARK                         _______ _______ _______ _____ _____    ______ ____
ROOT
ATOM      1  N   UNL     1      36.435 -21.344 -18.844  0.00  0.00    -0.247 N 
ATOM      2  N   UNL     1      37.242 -19.480 -19.766  0.00  0.00    -0.242 NA
ATOM      3  N   UNL     1      34.223 -21.379 -19.851  0.00  0.00    -0.228 NA
ATOM      4  N   UNL     1      33.893 -19.472 -21.336  0.00  0.00    -0.228 NA
ATOM      5  C   UNL     1      35.442 -20.856 -19.648  0.00  0.00    +0.152 C 
ATOM      6  C   UNL     1      37.495 -20.482 -18.950  0.00  0.00    +0.223 C 
ATOM      7  C   UNL     1      35.963 -19.702 -20.210  0.00  0.00    +0.140 C 
ATOM      8  C   UNL     1      35.139 -19.001 -21.084  0.00  0.00    +0.150 C 
ATOM      9  C   UNL     1      33.519 -20.615 -20.712  0.00  0.00    +0.253 C 
ATOM     10  N   UNL     1      35.586 -17.819 -21.701  0.00  0.00    -0.295 N 
ATOM     11  H   UNL     1      36.505 -17.567 -21.451  0.00  0.00    +0.154 HD
ENDROOT
BRANCH  10  14
ATOM     12 CL   UNL     1      33.048 -14.068 -25.514  0.00  0.00    -0.082 Cl
ATOM     13  F   UNL     1      34.823 -15.258 -20.923  0.00  0.00    -0.203 F 
ATOM     14  C   UNL     1      34.981 -16.924 -22.608  0.00  0.00    +0.077 C 
ATOM     15  C   UNL     1      34.610 -15.647 -22.188  0.00  0.00    +0.154 C 
ATOM     16  C   UNL     1      34.754 -17.318 -23.926  0.00  0.00    +0.018 C 
ATOM     17  C   UNL     1      34.012 -14.764 -23.087  0.00  0.00    +0.042 C 
ATOM     18  C   UNL     1      34.156 -16.436 -24.825  0.00  0.00    +0.013 C 
ATOM     19  C   UNL     1      33.786 -15.158 -24.406  0.00  0.00    +0.060 C 
ENDBRANCH  10  14
BRANCH   1  23
ATOM     20  O   UNL     1      35.061 -23.125 -18.067  0.00  0.00    -0.326 OA
ATOM     21  C   UNL     1      36.722 -22.317 -16.555  0.00  0.00    +0.187 C 
ATOM     22  C   UNL     1      35.350 -22.233 -15.914  0.00  0.00    +0.178 C 
ATOM     23  C   UNL     1      36.385 -22.556 -18.022  0.00  0.00    +0.225 C 
ATOM     24  C   UNL     1      34.554 -23.253 -16.718  0.00  0.00    +0.223 C 
BRANCH  24  28
ATOM     25  O   UNL     1      32.341 -23.558 -15.729  0.00  0.00    -0.421 OA
ATOM     26  N   UNL     1      32.321 -22.520 -17.710  0.00  0.00    -0.109 NA
ATOM     27  N   UNL     1      31.014 -22.625 -17.270  0.00  0.00    -0.112 NA
ATOM     28  C   UNL     1      33.051 -23.076 -16.780  0.00  0.00    +0.255 A 
ATOM     29  C   UNL     1      31.075 -23.238 -16.111  0.00  0.00    +0.225 A 
BRANCH  29  30
ATOM     30  C   UNL     1      29.991 -23.612 -15.193  0.00  0.00    +0.070 C 
ATOM     31  C   UNL     1      30.412 -23.492 -13.682  0.00  0.00    +0.009 C 
ATOM     32  C   UNL     1      29.503 -25.092 -15.405  0.00  0.00    +0.009 C 
ATOM     33  C   UNL     1      28.672 -22.751 -15.296  0.00  0.00    +0.009 C 
ENDBRANCH  29  30
ENDBRANCH  24  28
BRANCH  21  34
ATOM     34  O   UNL     1      37.430 -23.459 -16.077  0.00  0.00    -0.378 OA
ATOM     35  H   UNL     1      36.847 -23.986 -15.507  0.00  0.00    +0.211 HD
ENDBRANCH  21  34
BRANCH  22  36
ATOM     36  O   UNL     1      35.375 -22.547 -14.536  0.00  0.00    -0.379 OA
ATOM     37  H   UNL     1      35.065 -23.458 -14.405  0.00  0.00    +0.211 HD
ENDBRANCH  22  36
ENDBRANCH   1  23
TORSDOF 6
ENDMDL
MODEL 5
REMARK VINA RESULT:     -11.3      5.760     10.186
REMARK  Name = 9810927
REMARK  6 active torsions:
REMARK  status: ('A' for Active; 'I' for Inactive)
REMARK    1  A    between atoms: N_1  and  C_13
REMARK    2  A    between atoms: C_11  and  O_24
REMARK    3  A    between atoms: C_12  and  O_26
REMARK    4  A    between atoms: C_14  and  C_18
REMARK    5  A    between atoms: C_19  and  C_20
REMARK    6  A    between atoms: N_28  and  C_32
REMARK                            x       y       z     vdW  Elec       q    Type
REMARK                         _______ _______ _______ _____ _____    ______ ____
ROOT
ATOM      1  N   UNL     1      34.183 -20.405 -20.956  0.00  0.00    -0.247 N 
ATOM      2  N   UNL     1      32.212 -20.738 -19.966  0.00  0.00    -0.242 NA
ATOM      3  N   UNL     1      35.614 -21.689 -19.470  0.00  0.00    -0.228 NA
ATOM      4  N   UNL     1      34.329 -22.712 -17.664  0.00  0.00    -0.228 NA
ATOM      5  C   UNL     1      34.431 -21.200 -19.871  0.00  0.00    +0.152 C 
ATOM      6  C   UNL     1      32.836 -20.155 -20.968  0.00  0.00    +0.223 C 
ATOM      7  C   UNL     1      33.196 -21.395 -19.273  0.00  0.00    +0.140 C 
ATOM      8  C   UNL     1      33.170 -22.185 -18.128  0.00  0.00    +0.150 C 
ATOM      9  C   UNL     1      35.463 -22.435 -18.354  0.00  0.00    +0.253 C 
ATOM     10  N   UNL     1      31.961 -22.436 -17.456  0.00  0.00    -0.295 N 
ATOM     11  H   UNL     1      31.180 -22.008 -17.876  0.00  0.00    +0.154 HD
ENDROOT
BRANCH  10  14
ATOM     12 CL   UNL     1      30.637 -25.559 -12.604  0.00  0.00    -0.082 Cl
ATOM     13  F   UNL     1      29.321 -22.926 -16.724  0.00  0.00    -0.203 F 
ATOM     14  C   UNL     1      31.644 -23.180 -16.300  0.00  0.00    +0.077 C 
ATOM     15  C   UNL     1      30.311 -23.409 -15.960  0.00  0.00    +0.154 C 
ATOM     16  C   UNL     1      32.666 -23.686 -15.498  0.00  0.00    +0.018 C 
ATOM     17  C   UNL     1      30.000 -24.145 -14.817  0.00  0.00    +0.042 C 
ATOM     18  C   UNL     1      32.355 -24.421 -14.354  0.00  0.00    +0.013 C 
ATOM     19  C   UNL     1      31.022 -24.652 -14.014  0.00  0.00    +0.060 C 
ENDBRANCH  10  14
BRANCH   1  23
ATOM     20  O   UNL     1      35.485 -18.533 -21.634  0.00  0.00    -0.326 OA
ATOM     21  C   UNL     1      34.680 -19.961 -23.370  0.00  0.00    +0.187 C 
ATOM     22  C   UNL     1      34.221 -18.536 -23.613  0.00  0.00    +0.178 C 
ATOM     23  C   UNL     1      35.163 -19.908 -21.925  0.00  0.00    +0.225 C 
ATOM     24  C   UNL     1      35.231 -17.729 -22.809  0.00  0.00    +0.223 C 
BRANCH  24  28
ATOM     25  O   UNL     1      34.228 -15.547 -23.258  0.00  0.00    -0.421 OA
ATOM     26  N   UNL     1      34.923 -15.817 -21.149  0.00  0.00    -0.109 NA
ATOM     27  N   UNL     1      34.383 -14.549 -21.262  0.00  0.00    -0.112 NA
ATOM     28  C   UNL     1      34.809 -16.354 -22.335  0.00  0.00    +0.255 A 
ATOM     29  C   UNL     1      33.990 -14.436 -22.509  0.00  0.00    +0.225 A 
BRANCH  29  30
ATOM     30  C   UNL     1      33.344 -13.305 -23.187  0.00  0.00    +0.070 C 
ATOM     31  C   UNL     1      32.073 -12.787 -22.419  0.00  0.00    +0.009 C 
ATOM     32  C   UNL     1      32.870 -13.664 -24.643  0.00  0.00    +0.009 C 
ATOM     33  C   UNL     1      34.233 -12.014 -23.377  0.00  0.00    +0.009 C 
ENDBRANCH  29  30
ENDBRANCH  24  28
BRANCH  21  34
ATOM     34  O   UNL     1      35.801 -20.275 -24.195  0.00  0.00    -0.378 OA
ATOM     35  H   UNL     1      36.393 -19.507 -24.240  0.00  0.00    +0.211 HD
ENDBRANCH  21  34
BRANCH  22  36
ATOM     36  O   UNL     1      34.233 -18.190 -24.983  0.00  0.00    -0.379 OA
ATOM     37  H   UNL     1      35.071 -18.474 -25.381  0.00  0.00    +0.211 HD
ENDBRANCH  22  36
ENDBRANCH   1  23
TORSDOF 6
ENDMDL
MODEL 6
REMARK VINA RESULT:     -11.2     11.621     15.460
REMARK  Name = 9810927
REMARK  6 active torsions:
REMARK  status: ('A' for Active; 'I' for Inactive)
REMARK    1  A    between atoms: N_1  and  C_13
REMARK    2  A    between atoms: C_11  and  O_24
REMARK    3  A    between atoms: C_12  and  O_26
REMARK    4  A    between atoms: C_14  and  C_18
REMARK    5  A    between atoms: C_19  and  C_20
REMARK    6  A    between atoms: N_28  and  C_32
REMARK                            x       y       z     vdW  Elec       q    Type
REMARK                         _______ _______ _______ _____ _____    ______ ____
ROOT
ATOM      1  N   UNL     1      32.154 -10.373 -21.647  0.00  0.00    -0.247 N 
ATOM      2  N   UNL     1      33.170 -11.407 -23.343  0.00  0.00    -0.242 NA
ATOM      3  N   UNL     1      31.891 -12.244 -20.120  0.00  0.00    -0.228 NA
ATOM      4  N   UNL     1      32.804 -14.300 -21.067  0.00  0.00    -0.228 NA
ATOM      5  C   UNL     1      32.286 -11.681 -21.271  0.00  0.00    +0.152 C 
ATOM      6  C   UNL     1      32.700 -10.259 -22.899  0.00  0.00    +0.223 C 
ATOM      7  C   UNL     1      32.919 -12.303 -22.335  0.00  0.00    +0.140 C 
ATOM      8  C   UNL     1      33.177 -13.664 -22.205  0.00  0.00    +0.150 C 
ATOM      9  C   UNL     1      32.193 -13.561 -20.110  0.00  0.00    +0.253 C 
ATOM     10  N   UNL     1      33.816 -14.376 -23.235  0.00  0.00    -0.295 N 
ATOM     11  H   UNL     1      34.045 -13.820 -24.015  0.00  0.00    +0.154 HD
ENDROOT
BRANCH  10  14
ATOM     12 CL   UNL     1      35.408 -20.049 -23.809  0.00  0.00    -0.082 Cl
ATOM     13  F   UNL     1      33.097 -15.863 -25.476  0.00  0.00    -0.203 F 
ATOM     14  C   UNL     1      34.194 -15.728 -23.374  0.00  0.00    +0.077 C 
ATOM     15  C   UNL     1      33.819 -16.447 -24.508  0.00  0.00    +0.154 C 
ATOM     16  C   UNL     1      34.944 -16.345 -22.373  0.00  0.00    +0.018 C 
ATOM     17  C   UNL     1      34.194 -17.783 -24.643  0.00  0.00    +0.042 C 
ATOM     18  C   UNL     1      35.319 -17.682 -22.507  0.00  0.00    +0.013 C 
ATOM     19  C   UNL     1      34.945 -18.401 -23.642  0.00  0.00    +0.060 C 
ENDBRANCH  10  14
BRANCH   1  23
ATOM     20  O   UNL     1      31.310  -8.150 -21.717  0.00  0.00    -0.326 OA
ATOM     21  C   UNL     1      32.405  -8.814 -19.703  0.00  0.00    +0.187 C 
ATOM     22  C   UNL     1      33.069  -7.575 -20.273  0.00  0.00    +0.178 C 
ATOM     23  C   UNL     1      31.546  -9.291 -20.868  0.00  0.00    +0.225 C 
ATOM     24  C   UNL     1      31.970  -6.994 -21.152  0.00  0.00    +0.223 C 
BRANCH  24  28
ATOM     25  O   UNL     1      31.749  -4.915 -22.417  0.00  0.00    -0.421 OA
ATOM     26  N   UNL     1      33.298  -6.314 -23.220  0.00  0.00    -0.109 NA
ATOM     27  N   UNL     1      33.279  -5.189 -24.026  0.00  0.00    -0.112 NA
ATOM     28  C   UNL     1      32.392  -6.104 -22.303  0.00  0.00    +0.255 A 
ATOM     29  C   UNL     1      32.360  -4.402 -23.519  0.00  0.00    +0.225 A 
BRANCH  29  30
ATOM     30  C   UNL     1      31.916  -3.074 -23.965  0.00  0.00    +0.070 C 
ATOM     31  C   UNL     1      32.808  -2.499 -25.126  0.00  0.00    +0.009 C 
ATOM     32  C   UNL     1      31.944  -2.008 -22.810  0.00  0.00    +0.009 C 
ATOM     33  C   UNL     1      30.445  -2.993 -24.531  0.00  0.00    +0.009 C 
ENDBRANCH  29  30
ENDBRANCH  24  28
BRANCH  21  34
ATOM     34  O   UNL     1      31.533  -8.467 -18.629  0.00  0.00    -0.378 OA
ATOM     35  H   UNL     1      31.754  -9.001 -17.848  0.00  0.00    +0.211 HD
ENDBRANCH  21  34
BRANCH  22  36
ATOM     36  O   UNL     1      33.480  -6.669 -19.268  0.00  0.00    -0.379 OA
ATOM     37  H   UNL     1      32.732  -6.103 -19.018  0.00  0.00    +0.211 HD
ENDBRANCH  22  36
ENDBRANCH   1  23
TORSDOF 6
ENDMDL
MODEL 7
REMARK VINA RESULT:     -10.9      6.419      9.055
REMARK  Name = 9810927
REMARK  6 active torsions:
REMARK  status: ('A' for Active; 'I' for Inactive)
REMARK    1  A    between atoms: N_1  and  C_13
REMARK    2  A    between atoms: C_11  and  O_24
REMARK    3  A    between atoms: C_12  and  O_26
REMARK    4  A    between atoms: C_14  and  C_18
REMARK    5  A    between atoms: C_19  and  C_20
REMARK    6  A    between atoms: N_28  and  C_32
REMARK                            x       y       z     vdW  Elec       q    Type
REMARK                         _______ _______ _______ _____ _____    ______ ____
ROOT
ATOM      1  N   UNL     1      35.042 -16.755 -21.993  0.00  0.00    -0.247 N 
ATOM      2  N   UNL     1      34.279 -15.090 -20.719  0.00  0.00    -0.242 NA
ATOM      3  N   UNL     1      34.568 -15.843 -24.194  0.00  0.00    -0.228 NA
ATOM      4  N   UNL     1      33.532 -13.639 -24.039  0.00  0.00    -0.228 NA
ATOM      5  C   UNL     1      34.574 -15.801 -22.853  0.00  0.00    +0.152 C 
ATOM      6  C   UNL     1      34.841 -16.281 -20.723  0.00  0.00    +0.223 C 
ATOM      7  C   UNL     1      34.108 -14.778 -22.044  0.00  0.00    +0.140 C 
ATOM      8  C   UNL     1      33.571 -13.665 -22.684  0.00  0.00    +0.150 C 
ATOM      9  C   UNL     1      34.026 -14.715 -24.700  0.00  0.00    +0.253 C 
ATOM     10  N   UNL     1      33.074 -12.580 -21.942  0.00  0.00    -0.295 N 
ATOM     11  H   UNL     1      33.152 -12.700 -20.967  0.00  0.00    +0.154 HD
ENDROOT
BRANCH  10  14
ATOM     12 CL   UNL     1      30.620  -7.426 -23.513  0.00  0.00    -0.082 Cl
ATOM     13  F   UNL     1      30.636 -11.754 -20.884  0.00  0.00    -0.203 F 
ATOM     14  C   UNL     1      32.488 -11.352 -22.315  0.00  0.00    +0.077 C 
ATOM     15  C   UNL     1      31.265 -10.966 -21.767  0.00  0.00    +0.154 C 
ATOM     16  C   UNL     1      33.133 -10.525 -23.233  0.00  0.00    +0.018 C 
ATOM     17  C   UNL     1      30.687  -9.752 -22.138  0.00  0.00    +0.042 C 
ATOM     18  C   UNL     1      32.556  -9.311 -23.605  0.00  0.00    +0.013 C 
ATOM     19  C   UNL     1      31.333  -8.924 -23.056  0.00  0.00    +0.060 C 
ENDBRANCH  10  14
BRANCH   1  23
ATOM     20  O   UNL     1      34.723 -19.112 -22.048  0.00  0.00    -0.326 OA
ATOM     21  C   UNL     1      36.939 -18.343 -21.605  0.00  0.00    +0.187 C 
ATOM     22  C   UNL     1      36.471 -19.254 -20.486  0.00  0.00    +0.178 C 
ATOM     23  C   UNL     1      35.642 -18.043 -22.348  0.00  0.00    +0.225 C 
ATOM     24  C   UNL     1      35.368 -20.057 -21.162  0.00  0.00    +0.223 C 
BRANCH  24  28
ATOM     25  O   UNL     1      34.684 -21.651 -19.442  0.00  0.00    -0.421 OA
ATOM     26  N   UNL     1      33.027 -20.351 -20.194  0.00  0.00    -0.109 NA
ATOM     27  N   UNL     1      32.503 -21.198 -19.234  0.00  0.00    -0.112 NA
ATOM     28  C   UNL     1      34.295 -20.655 -20.276  0.00  0.00    +0.255 A 
ATOM     29  C   UNL     1      33.506 -21.938 -18.824  0.00  0.00    +0.225 A 
BRANCH  29  30
ATOM     30  C   UNL     1      33.530 -23.004 -17.813  0.00  0.00    +0.070 C 
ATOM     31  C   UNL     1      34.728 -22.853 -16.806  0.00  0.00    +0.009 C 
ATOM     32  C   UNL     1      33.657 -24.437 -18.448  0.00  0.00    +0.009 C 
ATOM     33  C   UNL     1      32.256 -23.103 -16.886  0.00  0.00    +0.009 C 
ENDBRANCH  29  30
ENDBRANCH  24  28
BRANCH  21  34
ATOM     34  O   UNL     1      37.802 -19.047 -22.497  0.00  0.00    -0.378 OA
ATOM     35  H   UNL     1      37.511 -18.900 -23.411  0.00  0.00    +0.211 HD
ENDBRANCH  21  34
BRANCH  22  36
ATOM     36  O   UNL     1      37.505 -20.082 -19.993  0.00  0.00    -0.379 OA
ATOM     37  H   UNL     1      37.544 -20.898 -20.517  0.00  0.00    +0.211 HD
ENDBRANCH  22  36
ENDBRANCH   1  23
TORSDOF 6
ENDMDL
MODEL 8
REMARK VINA RESULT:     -10.6     11.985     16.316
REMARK  Name = 9810927
REMARK  6 active torsions:
REMARK  status: ('A' for Active; 'I' for Inactive)
REMARK    1  A    between atoms: N_1  and  C_13
REMARK    2  A    between atoms: C_11  and  O_24
REMARK    3  A    between atoms: C_12  and  O_26
REMARK    4  A    between atoms: C_14  and  C_18
REMARK    5  A    between atoms: C_19  and  C_20
REMARK    6  A    between atoms: N_28  and  C_32
REMARK                            x       y       z     vdW  Elec       q    Type
REMARK                         _______ _______ _______ _____ _____    ______ ____
ROOT
ATOM      1  N   UNL     1      32.237  -9.421 -22.692  0.00  0.00    -0.247 N 
ATOM      2  N   UNL     1      33.872 -10.581 -23.671  0.00  0.00    -0.242 NA
ATOM      3  N   UNL     1      31.079 -11.224 -21.547  0.00  0.00    -0.228 NA
ATOM      4  N   UNL     1      32.161 -13.374 -21.954  0.00  0.00    -0.228 NA
ATOM      5  C   UNL     1      32.047 -10.726 -22.331  0.00  0.00    +0.152 C 
ATOM      6  C   UNL     1      33.345  -9.386 -23.498  0.00  0.00    +0.223 C 
ATOM      7  C   UNL     1      33.072 -11.427 -22.947  0.00  0.00    +0.140 C 
ATOM      8  C   UNL     1      33.109 -12.801 -22.735  0.00  0.00    +0.150 C 
ATOM      9  C   UNL     1      31.218 -12.561 -21.417  0.00  0.00    +0.253 C 
ATOM     10  N   UNL     1      34.113 -13.592 -23.320  0.00  0.00    -0.295 N 
ATOM     11  H   UNL     1      34.751 -13.077 -23.866  0.00  0.00    +0.154 HD
ENDROOT
BRANCH  10  14
ATOM     12 CL   UNL     1      35.277 -19.393 -23.143  0.00  0.00    -0.082 Cl
ATOM     13  F   UNL     1      33.725 -15.216 -25.547  0.00  0.00    -0.203 F 
ATOM     14  C   UNL     1      34.391 -14.974 -23.280  0.00  0.00    +0.077 C 
ATOM     15  C   UNL     1      34.185 -15.762 -24.412  0.00  0.00    +0.154 C 
ATOM     16  C   UNL     1      34.869 -15.553 -22.105  0.00  0.00    +0.018 C 
ATOM     17  C   UNL     1      34.460 -17.128 -24.370  0.00  0.00    +0.042 C 
ATOM     18  C   UNL     1      35.143 -16.919 -22.062  0.00  0.00    +0.013 C 
ATOM     19  C   UNL     1      34.939 -17.707 -23.195  0.00  0.00    +0.060 C 
ENDBRANCH  10  14
BRANCH   1  23
ATOM     20  O   UNL     1      31.228  -7.397 -23.432  0.00  0.00    -0.326 OA
ATOM     21  C   UNL     1      32.026  -7.435 -21.182  0.00  0.00    +0.187 C 
ATOM     22  C   UNL     1      32.667  -6.289 -21.943  0.00  0.00    +0.178 C 
ATOM     23  C   UNL     1      31.417  -8.272 -22.301  0.00  0.00    +0.225 C 
ATOM     24  C   UNL     1      31.684  -6.069 -23.085  0.00  0.00    +0.223 C 
BRANCH  24  28
ATOM     25  O   UNL     1      33.247  -6.057 -24.962  0.00  0.00    -0.421 OA
ATOM     26  N   UNL     1      31.820  -4.334 -24.949  0.00  0.00    -0.109 NA
ATOM     27  N   UNL     1      32.640  -4.201 -26.055  0.00  0.00    -0.112 NA
ATOM     28  C   UNL     1      32.214  -5.426 -24.349  0.00  0.00    +0.255 A 
ATOM     29  C   UNL     1      33.456  -5.228 -26.022  0.00  0.00    +0.225 A 
BRANCH  29  30
ATOM     30  C   UNL     1      34.533  -5.598 -26.949  0.00  0.00    +0.070 C 
ATOM     31  C   UNL     1      35.273  -6.917 -26.520  0.00  0.00    +0.009 C 
ATOM     32  C   UNL     1      35.638  -4.484 -27.068  0.00  0.00    +0.009 C 
ATOM     33  C   UNL     1      34.096  -5.869 -28.442  0.00  0.00    +0.009 C 
ENDBRANCH  29  30
ENDBRANCH  24  28
BRANCH  21  34
ATOM     34  O   UNL     1      30.960  -6.958 -20.362  0.00  0.00    -0.378 OA
ATOM     35  H   UNL     1      30.958  -7.443 -19.521  0.00  0.00    +0.211 HD
ENDBRANCH  21  34
BRANCH  22  36
ATOM     36  O   UNL     1      32.825  -5.132 -21.147  0.00  0.00    -0.379 OA
ATOM     37  H   UNL     1      31.963  -4.862 -20.793  0.00  0.00    +0.211 HD
ENDBRANCH  22  36
ENDBRANCH   1  23
TORSDOF 6
ENDMDL
MODEL 9
REMARK VINA RESULT:     -10.2     11.901     16.116
REMARK  Name = 9810927
REMARK  6 active torsions:
REMARK  status: ('A' for Active; 'I' for Inactive)
REMARK    1  A    between atoms: N_1  and  C_13
REMARK    2  A    between atoms: C_11  and  O_24
REMARK    3  A    between atoms: C_12  and  O_26
REMARK    4  A    between atoms: C_14  and  C_18
REMARK    5  A    between atoms: C_19  and  C_20
REMARK    6  A    between atoms: N_28  and  C_32
REMARK                            x       y       z     vdW  Elec       q    Type
REMARK                         _______ _______ _______ _____ _____    ______ ____
ROOT
ATOM      1  N   UNL     1      32.518  -9.933 -22.583  0.00  0.00    -0.247 N 
ATOM      2  N   UNL     1      34.028 -11.160 -23.674  0.00  0.00    -0.242 NA
ATOM      3  N   UNL     1      31.446 -11.672 -21.266  0.00  0.00    -0.228 NA
ATOM      4  N   UNL     1      32.444 -13.856 -21.699  0.00  0.00    -0.228 NA
ATOM      5  C   UNL     1      32.341 -11.221 -22.158  0.00  0.00    +0.152 C 
ATOM      6  C   UNL     1      33.542  -9.949 -23.493  0.00  0.00    +0.223 C 
ATOM      7  C   UNL     1      33.287 -11.964 -22.845  0.00  0.00    +0.140 C 
ATOM      8  C   UNL     1      33.320 -13.331 -22.589  0.00  0.00    +0.150 C 
ATOM      9  C   UNL     1      31.573 -13.006 -21.102  0.00  0.00    +0.253 C 
ATOM     10  N   UNL     1      34.248 -14.162 -23.242  0.00  0.00    -0.295 N 
ATOM     11  H   UNL     1      34.838 -13.680 -23.866  0.00  0.00    +0.154 HD
ENDROOT
BRANCH  10  14
ATOM     12 CL   UNL     1      35.316 -19.979 -22.991  0.00  0.00    -0.082 Cl
ATOM     13  F   UNL     1      35.063 -15.385 -20.878  0.00  0.00    -0.203 F 
ATOM     14  C   UNL     1      34.503 -15.548 -23.180  0.00  0.00    +0.077 C 
ATOM     15  C   UNL     1      34.910 -16.132 -21.981  0.00  0.00    +0.154 C 
ATOM     16  C   UNL     1      34.348 -16.334 -24.321  0.00  0.00    +0.018 C 
ATOM     17  C   UNL     1      35.161 -17.502 -21.922  0.00  0.00    +0.042 C 
ATOM     18  C   UNL     1      34.600 -17.704 -24.263  0.00  0.00    +0.013 C 
ATOM     19  C   UNL     1      35.005 -18.289 -23.064  0.00  0.00    +0.060 C 
ENDBRANCH  10  14
BRANCH   1  23
ATOM     20  O   UNL     1      31.797  -7.748 -23.186  0.00  0.00    -0.326 OA
ATOM     21  C   UNL     1      32.296  -8.110 -20.880  0.00  0.00    +0.187 C 
ATOM     22  C   UNL     1      33.128  -6.962 -21.418  0.00  0.00    +0.178 C 
ATOM     23  C   UNL     1      31.761  -8.754 -22.154  0.00  0.00    +0.225 C 
ATOM     24  C   UNL     1      32.323  -6.519 -22.632  0.00  0.00    +0.223 C 
BRANCH  24  28
ATOM     25  O   UNL     1      32.374  -4.848 -24.414  0.00  0.00    -0.421 OA
ATOM     26  N   UNL     1      34.293  -5.967 -24.154  0.00  0.00    -0.109 NA
ATOM     27  N   UNL     1      34.462  -5.063 -25.187  0.00  0.00    -0.112 NA
ATOM     28  C   UNL     1      33.065  -5.802 -23.740  0.00  0.00    +0.255 A 
ATOM     29  C   UNL     1      33.317  -4.433 -25.303  0.00  0.00    +0.225 A 
BRANCH  29  30
ATOM     30  C   UNL     1      32.926  -3.367 -26.234  0.00  0.00    +0.070 C 
ATOM     31  C   UNL     1      31.582  -2.664 -25.817  0.00  0.00    +0.009 C 
ATOM     32  C   UNL     1      32.717  -3.893 -27.702  0.00  0.00    +0.009 C 
ATOM     33  C   UNL     1      33.951  -2.178 -26.392  0.00  0.00    +0.009 C 
ENDBRANCH  29  30
ENDBRANCH  24  28
BRANCH  21  34
ATOM     34  O   UNL     1      31.181  -7.617 -20.138  0.00  0.00    -0.378 OA
ATOM     35  H   UNL     1      31.347  -7.736 -19.189  0.00  0.00    +0.211 HD
ENDBRANCH  21  34
BRANCH  22  36
ATOM     36  O   UNL     1      33.288  -5.920 -20.476  0.00  0.00    -0.379 OA
ATOM     37  H   UNL     1      33.511  -6.298 -19.611  0.00  0.00    +0.211 HD
ENDBRANCH  22  36
ENDBRANCH   1  23
TORSDOF 6
ENDMDL
