MODEL 1
REMARK VINA RESULT:     -11.9      0.000      0.000
REMARK  Name = 44814409
REMARK  5 active torsions:
REMARK  status: ('A' for Active; 'I' for Inactive)
REMARK    1  A    between atoms: N_2  and  C_22
REMARK    2  A    between atoms: C_3  and  C_7
REMARK    3  A    between atoms: C_9  and  C_14
REMARK    4  A    between atoms: C_21  and  C_26
REMARK    5  A    between atoms: C_29  and  N_33
REMARK                            x       y       z     vdW  Elec       q    Type
REMARK                         _______ _______ _______ _____ _____    ______ ____
ROOT
ATOM      1  O   UNL     1      32.681 -22.349 -19.407  0.00  0.00    -0.267 OA
ATOM      2  N   UNL     1      33.801 -22.469 -17.343  0.00  0.00    -0.278 N 
ATOM      3  C   UNL     1      33.656 -22.131 -18.696  0.00  0.00    +0.275 C 
ATOM      4  H   UNL     1      34.656 -22.215 -16.925  0.00  0.00    +0.155 HD
ENDROOT
BRANCH   3   7
ATOM      5  F   UNL     1      37.853 -19.356 -21.046  0.00  0.00    -0.202 F 
ATOM      6  N   UNL     1      34.498 -20.512 -20.261  0.00  0.00    -0.399 NA
ATOM      7  C   UNL     1      34.807 -21.410 -19.300  0.00  0.00    +0.167 C 
ATOM      8  C   UNL     1      36.099 -21.676 -18.873  0.00  0.00    +0.092 C 
ATOM      9  C   UNL     1      35.535 -19.848 -20.818  0.00  0.00    +0.162 C 
ATOM     10  C   UNL     1      37.139 -20.973 -19.470  0.00  0.00    +0.014 C 
ATOM     11  C   UNL     1      36.860 -20.040 -20.462  0.00  0.00    +0.166 C 
BRANCH   9  14
ATOM     12  F   UNL     1      34.860 -20.647 -23.420  0.00  0.00    -0.204 F 
ATOM     13  F   UNL     1      35.454 -17.090 -20.319  0.00  0.00    -0.204 F 
ATOM     14  C   UNL     1      35.167 -18.896 -21.840  0.00  0.00    +0.087 C 
ATOM     15  C   UNL     1      34.839 -19.340 -23.121  0.00  0.00    +0.145 C 
ATOM     16  C   UNL     1      35.140 -17.533 -21.546  0.00  0.00    +0.145 C 
ATOM     17  C   UNL     1      34.483 -18.420 -24.108  0.00  0.00    +0.030 C 
ATOM     18  C   UNL     1      34.784 -16.612 -22.532  0.00  0.00    +0.030 C 
ATOM     19  C   UNL     1      34.457 -17.057 -23.813  0.00  0.00    +0.005 C 
ENDBRANCH   9  14
ENDBRANCH   3   7
BRANCH   2  22
ATOM     20  N   UNL     1      30.572 -23.624 -16.025  0.00  0.00    -0.241 NA
ATOM     21  C   UNL     1      33.290 -23.875 -15.423  0.00  0.00    -0.006 C 
ATOM     22  C   UNL     1      32.885 -23.119 -16.516  0.00  0.00    +0.066 C 
ATOM     23  C   UNL     1      32.339 -24.506 -14.629  0.00  0.00    +0.018 C 
ATOM     24  C   UNL     1      31.527 -23.026 -16.773  0.00  0.00    +0.113 C 
ATOM     25  C   UNL     1      31.005 -24.351 -14.970  0.00  0.00    +0.099 C 
BRANCH  21  26
ATOM     26  C   UNL     1      34.738 -24.026 -15.079  0.00  0.00    +0.022 C 
ATOM     27  C   UNL     1      36.620 -25.707 -14.770  0.00  0.00    -0.002 C 
ATOM     28  C   UNL     1      35.152 -25.506 -15.176  0.00  0.00    +0.004 C 
ATOM     29  C   UNL     1      36.475 -23.668 -13.268  0.00  0.00    -0.065 C 
ATOM     30  C   UNL     1      35.007 -23.469 -13.670  0.00  0.00    -0.017 C 
ATOM     31  C   UNL     1      36.881 -25.143 -13.365  0.00  0.00    -0.022 C 
ATOM     32  C   UNL     1      36.998 -27.186 -14.835  0.00  0.00    -0.000 C 
BRANCH  29  33
ATOM     33  N   UNL     1      36.685 -23.184 -11.905  0.00  0.00    +0.382 N 
ATOM     34  H   UNL     1      37.527 -22.611 -11.872  0.00  0.00    -0.089 HD
ATOM     35  H   UNL     1      36.791 -23.980 -11.274  0.00  0.00    -0.089 HD
ATOM     36  H   UNL     1      35.882 -22.626 -11.615  0.00  0.00    -0.089 HD
ENDBRANCH  29  33
ENDBRANCH  21  26
ENDBRANCH   2  22
TORSDOF 5
ENDMDL
MODEL 2
REMARK VINA RESULT:     -10.8      1.172      2.211
REMARK  Name = 44814409
REMARK  5 active torsions:
REMARK  status: ('A' for Active; 'I' for Inactive)
REMARK    1  A    between atoms: N_2  and  C_22
REMARK    2  A    between atoms: C_3  and  C_7
REMARK    3  A    between atoms: C_9  and  C_14
REMARK    4  A    between atoms: C_21  and  C_26
REMARK    5  A    between atoms: C_29  and  N_33
REMARK                            x       y       z     vdW  Elec       q    Type
REMARK                         _______ _______ _______ _____ _____    ______ ____
ROOT
ATOM      1  O   UNL     1      32.629 -22.283 -19.426  0.00  0.00    -0.267 OA
ATOM      2  N   UNL     1      33.758 -22.428 -17.368  0.00  0.00    -0.278 N 
ATOM      3  C   UNL     1      33.612 -22.087 -18.720  0.00  0.00    +0.275 C 
ATOM      4  H   UNL     1      34.621 -22.194 -16.955  0.00  0.00    +0.155 HD
ENDROOT
BRANCH   3   7
ATOM      5  F   UNL     1      37.857 -19.400 -21.088  0.00  0.00    -0.202 F 
ATOM      6  N   UNL     1      34.479 -20.449 -20.253  0.00  0.00    -0.399 NA
ATOM      7  C   UNL     1      34.776 -21.391 -19.330  0.00  0.00    +0.167 C 
ATOM      8  C   UNL     1      36.066 -21.722 -18.946  0.00  0.00    +0.092 C 
ATOM      9  C   UNL     1      35.528 -19.808 -20.815  0.00  0.00    +0.162 C 
ATOM     10  C   UNL     1      37.118 -21.040 -19.548  0.00  0.00    +0.014 C 
ATOM     11  C   UNL     1      36.852 -20.064 -20.501  0.00  0.00    +0.166 C 
BRANCH   9  14
ATOM     12  F   UNL     1      35.451 -17.076 -20.190  0.00  0.00    -0.204 F 
ATOM     13  F   UNL     1      34.872 -20.484 -23.457  0.00  0.00    -0.204 F 
ATOM     14  C   UNL     1      35.172 -18.808 -21.795  0.00  0.00    +0.087 C 
ATOM     15  C   UNL     1      35.147 -17.461 -21.439  0.00  0.00    +0.145 C 
ATOM     16  C   UNL     1      34.854 -19.192 -23.098  0.00  0.00    +0.145 C 
ATOM     17  C   UNL     1      34.804 -16.495 -22.386  0.00  0.00    +0.030 C 
ATOM     18  C   UNL     1      34.510 -18.227 -24.045  0.00  0.00    +0.030 C 
ATOM     19  C   UNL     1      34.485 -16.878 -23.688  0.00  0.00    +0.005 C 
ENDBRANCH   9  14
ENDBRANCH   3   7
BRANCH   2  22
ATOM     20  N   UNL     1      30.535 -23.707 -16.154  0.00  0.00    -0.241 NA
ATOM     21  C   UNL     1      33.206 -23.644 -15.333  0.00  0.00    -0.006 C 
ATOM     22  C   UNL     1      32.832 -23.057 -16.536  0.00  0.00    +0.066 C 
ATOM     23  C   UNL     1      32.246 -24.261 -14.539  0.00  0.00    +0.018 C 
ATOM     24  C   UNL     1      31.496 -23.116 -16.899  0.00  0.00    +0.113 C 
ATOM     25  C   UNL     1      30.937 -24.266 -14.990  0.00  0.00    +0.099 C 
BRANCH  21  26
ATOM     26  C   UNL     1      34.628 -23.625 -14.870  0.00  0.00    +0.022 C 
ATOM     27  C   UNL     1      36.899 -22.540 -15.226  0.00  0.00    -0.002 C 
ATOM     28  C   UNL     1      35.418 -22.545 -15.633  0.00  0.00    +0.004 C 
ATOM     29  C   UNL     1      36.743 -25.005 -14.652  0.00  0.00    -0.065 C 
ATOM     30  C   UNL     1      35.265 -25.013 -15.063  0.00  0.00    -0.017 C 
ATOM     31  C   UNL     1      37.524 -23.930 -15.416  0.00  0.00    -0.022 C 
ATOM     32  C   UNL     1      37.671 -21.489 -16.024  0.00  0.00    -0.000 C 
BRANCH  29  33
ATOM     33  N   UNL     1      37.333 -26.319 -14.903  0.00  0.00    +0.382 N 
ATOM     34  H   UNL     1      37.901 -26.281 -15.749  0.00  0.00    -0.089 HD
ATOM     35  H   UNL     1      36.590 -27.008 -15.023  0.00  0.00    -0.089 HD
ATOM     36  H   UNL     1      37.919 -26.585 -14.111  0.00  0.00    -0.089 HD
ENDBRANCH  29  33
ENDBRANCH  21  26
ENDBRANCH   2  22
TORSDOF 5
ENDMDL
MODEL 3
REMARK VINA RESULT:     -10.5      9.764     15.943
REMARK  Name = 44814409
REMARK  5 active torsions:
REMARK  status: ('A' for Active; 'I' for Inactive)
REMARK    1  A    between atoms: N_2  and  C_22
REMARK    2  A    between atoms: C_3  and  C_7
REMARK    3  A    between atoms: C_9  and  C_14
REMARK    4  A    between atoms: C_21  and  C_26
REMARK    5  A    between atoms: C_29  and  N_33
REMARK                            x       y       z     vdW  Elec       q    Type
REMARK                         _______ _______ _______ _____ _____    ______ ____
ROOT
ATOM      1  O   UNL     1      35.585  -9.061 -23.603  0.00  0.00    -0.267 OA
ATOM      2  N   UNL     1      33.655  -8.135 -24.576  0.00  0.00    -0.278 N 
ATOM      3  C   UNL     1      34.379  -9.073 -23.828  0.00  0.00    +0.275 C 
ATOM      4  H   UNL     1      32.688  -8.300 -24.655  0.00  0.00    +0.155 HD
ENDROOT
BRANCH   3   7
ATOM      5  F   UNL     1      31.470 -13.287 -21.679  0.00  0.00    -0.202 F 
ATOM      6  N   UNL     1      33.984 -11.426 -23.529  0.00  0.00    -0.399 NA
ATOM      7  C   UNL     1      33.574 -10.172 -23.234  0.00  0.00    +0.167 C 
ATOM      8  C   UNL     1      32.479  -9.882 -22.435  0.00  0.00    +0.092 C 
ATOM      9  C   UNL     1      33.262 -12.435 -22.994  0.00  0.00    +0.162 C 
ATOM     10  C   UNL     1      31.761 -10.948 -21.904  0.00  0.00    +0.014 C 
ATOM     11  C   UNL     1      32.153 -12.252 -22.184  0.00  0.00    +0.166 C 
BRANCH   9  14
ATOM     12  F   UNL     1      34.701 -14.009 -21.173  0.00  0.00    -0.204 F 
ATOM     13  F   UNL     1      32.786 -13.587 -25.507  0.00  0.00    -0.204 F 
ATOM     14  C   UNL     1      33.730 -13.760 -23.330  0.00  0.00    +0.087 C 
ATOM     15  C   UNL     1      34.442 -14.506 -22.392  0.00  0.00    +0.145 C 
ATOM     16  C   UNL     1      33.469 -14.292 -24.593  0.00  0.00    +0.145 C 
ATOM     17  C   UNL     1      34.894 -15.786 -22.716  0.00  0.00    +0.030 C 
ATOM     18  C   UNL     1      33.921 -15.572 -24.918  0.00  0.00    +0.030 C 
ATOM     19  C   UNL     1      34.634 -16.318 -23.979  0.00  0.00    +0.005 C 
ENDBRANCH   9  14
ENDBRANCH   3   7
BRANCH   2  22
ATOM     20  N   UNL     1      35.605  -6.061 -26.900  0.00  0.00    -0.241 NA
ATOM     21  C   UNL     1      33.685  -5.722 -24.896  0.00  0.00    -0.006 C 
ATOM     22  C   UNL     1      34.136  -6.996 -25.222  0.00  0.00    +0.066 C 
ATOM     23  C   UNL     1      34.193  -4.617 -25.570  0.00  0.00    +0.018 C 
ATOM     24  C   UNL     1      35.087  -7.111 -26.223  0.00  0.00    +0.113 C 
ATOM     25  C   UNL     1      35.142  -4.838 -26.555  0.00  0.00    +0.099 C 
BRANCH  21  26
ATOM     26  C   UNL     1      32.659  -5.512 -23.830  0.00  0.00    +0.022 C 
ATOM     27  C   UNL     1      31.393  -3.753 -22.501  0.00  0.00    -0.002 C 
ATOM     28  C   UNL     1      32.399  -4.007 -23.633  0.00  0.00    +0.004 C 
ATOM     29  C   UNL     1      32.112  -5.915 -21.387  0.00  0.00    -0.065 C 
ATOM     30  C   UNL     1      33.121  -6.168 -22.515  0.00  0.00    -0.017 C 
ATOM     31  C   UNL     1      31.859  -4.416 -21.196  0.00  0.00    -0.022 C 
ATOM     32  C   UNL     1      31.181  -2.253 -22.298  0.00  0.00    -0.000 C 
BRANCH  29  33
ATOM     33  N   UNL     1      32.608  -6.497 -20.141  0.00  0.00    +0.382 N 
ATOM     34  H   UNL     1      31.945  -7.196 -19.804  0.00  0.00    -0.089 HD
ATOM     35  H   UNL     1      32.712  -5.763 -19.440  0.00  0.00    -0.089 HD
ATOM     36  H   UNL     1      33.512  -6.939 -20.308  0.00  0.00    -0.089 HD
ENDBRANCH  29  33
ENDBRANCH  21  26
ENDBRANCH   2  22
TORSDOF 5
ENDMDL
MODEL 4
REMARK VINA RESULT:      -9.7      4.279      8.352
REMARK  Name = 44814409
REMARK  5 active torsions:
REMARK  status: ('A' for Active; 'I' for Inactive)
REMARK    1  A    between atoms: N_2  and  C_22
REMARK    2  A    between atoms: C_3  and  C_7
REMARK    3  A    between atoms: C_9  and  C_14
REMARK    4  A    between atoms: C_21  and  C_26
REMARK    5  A    between atoms: C_29  and  N_33
REMARK                            x       y       z     vdW  Elec       q    Type
REMARK                         _______ _______ _______ _____ _____    ______ ____
ROOT
ATOM      1  O   UNL     1      37.520 -21.161 -16.460  0.00  0.00    -0.267 OA
ATOM      2  N   UNL     1      36.078 -22.860 -17.211  0.00  0.00    -0.278 N 
ATOM      3  C   UNL     1      37.115 -22.318 -16.439  0.00  0.00    +0.275 C 
ATOM      4  H   UNL     1      35.883 -23.814 -17.063  0.00  0.00    +0.155 HD
ENDROOT
BRANCH   3   7
ATOM      5  F   UNL     1      39.393 -25.802 -12.762  0.00  0.00    -0.202 F 
ATOM      6  N   UNL     1      37.147 -23.384 -14.283  0.00  0.00    -0.399 NA
ATOM      7  C   UNL     1      37.756 -23.259 -15.483  0.00  0.00    +0.167 C 
ATOM      8  C   UNL     1      38.906 -23.944 -15.844  0.00  0.00    +0.092 C 
ATOM      9  C   UNL     1      37.718 -24.237 -13.405  0.00  0.00    +0.162 C 
ATOM     10  C   UNL     1      39.464 -24.813 -14.913  0.00  0.00    +0.014 C 
ATOM     11  C   UNL     1      38.865 -24.968 -13.668  0.00  0.00    +0.166 C 
BRANCH   9  14
ATOM     12  F   UNL     1      36.167 -26.475 -12.734  0.00  0.00    -0.204 F 
ATOM     13  F   UNL     1      37.872 -22.221 -11.462  0.00  0.00    -0.204 F 
ATOM     14  C   UNL     1      37.039 -24.345 -12.134  0.00  0.00    +0.087 C 
ATOM     15  C   UNL     1      36.278 -25.477 -11.844  0.00  0.00    +0.145 C 
ATOM     16  C   UNL     1      37.145 -23.316 -11.198  0.00  0.00    +0.145 C 
ATOM     17  C   UNL     1      35.623 -25.581 -10.617  0.00  0.00    +0.030 C 
ATOM     18  C   UNL     1      36.489 -23.419  -9.971  0.00  0.00    +0.030 C 
ATOM     19  C   UNL     1      35.728 -24.552  -9.681  0.00  0.00    +0.005 C 
ENDBRANCH   9  14
ENDBRANCH   3   7
BRANCH   2  22
ATOM     20  N   UNL     1      35.183 -20.753 -20.085  0.00  0.00    -0.241 NA
ATOM     21  C   UNL     1      33.904 -22.349 -18.179  0.00  0.00    -0.006 C 
ATOM     22  C   UNL     1      35.287 -22.214 -18.161  0.00  0.00    +0.066 C 
ATOM     23  C   UNL     1      33.159 -21.687 -19.148  0.00  0.00    +0.018 C 
ATOM     24  C   UNL     1      35.873 -21.413 -19.127  0.00  0.00    +0.113 C 
ATOM     25  C   UNL     1      33.840 -20.909 -20.070  0.00  0.00    +0.099 C 
BRANCH  21  26
ATOM     26  C   UNL     1      33.195 -23.197 -17.172  0.00  0.00    +0.022 C 
ATOM     27  C   UNL     1      30.973 -23.585 -15.999  0.00  0.00    -0.002 C 
ATOM     28  C   UNL     1      31.718 -22.774 -17.070  0.00  0.00    +0.004 C 
ATOM     29  C   UNL     1      33.150 -23.904 -14.738  0.00  0.00    -0.065 C 
ATOM     30  C   UNL     1      33.894 -23.090 -15.805  0.00  0.00    -0.017 C 
ATOM     31  C   UNL     1      31.681 -23.477 -14.641  0.00  0.00    -0.022 C 
ATOM     32  C   UNL     1      29.521 -23.121 -15.889  0.00  0.00    -0.000 C 
BRANCH  29  33
ATOM     33  N   UNL     1      33.803 -23.734 -13.441  0.00  0.00    +0.382 N 
ATOM     34  H   UNL     1      33.417 -24.403 -12.775  0.00  0.00    -0.089 HD
ATOM     35  H   UNL     1      33.642 -22.785 -13.101  0.00  0.00    -0.089 HD
ATOM     36  H   UNL     1      34.805 -23.893 -13.541  0.00  0.00    -0.089 HD
ENDBRANCH  29  33
ENDBRANCH  21  26
ENDBRANCH   2  22
TORSDOF 5
ENDMDL
MODEL 5
REMARK VINA RESULT:      -9.6      9.586     15.119
REMARK  Name = 44814409
REMARK  5 active torsions:
REMARK  status: ('A' for Active; 'I' for Inactive)
REMARK    1  A    between atoms: N_2  and  C_22
REMARK    2  A    between atoms: C_3  and  C_7
REMARK    3  A    between atoms: C_9  and  C_14
REMARK    4  A    between atoms: C_21  and  C_26
REMARK    5  A    between atoms: C_29  and  N_33
REMARK                            x       y       z     vdW  Elec       q    Type
REMARK                         _______ _______ _______ _____ _____    ______ ____
ROOT
ATOM      1  O   UNL     1      31.597  -9.121 -24.356  0.00  0.00    -0.267 OA
ATOM      2  N   UNL     1      33.856  -8.996 -23.714  0.00  0.00    -0.278 N 
ATOM      3  C   UNL     1      32.561  -9.533 -23.719  0.00  0.00    +0.275 C 
ATOM      4  H   UNL     1      34.512  -9.457 -23.142  0.00  0.00    +0.155 HD
ENDROOT
BRANCH   3   7
ATOM      5  F   UNL     1      31.945 -14.139 -20.678  0.00  0.00    -0.202 F 
ATOM      6  N   UNL     1      33.001 -11.861 -23.305  0.00  0.00    -0.399 NA
ATOM      7  C   UNL     1      32.371 -10.744 -22.878  0.00  0.00    +0.167 C 
ATOM      8  C   UNL     1      31.586 -10.684 -21.737  0.00  0.00    +0.092 C 
ATOM      9  C   UNL     1      32.838 -12.969 -22.549  0.00  0.00    +0.162 C 
ATOM     10  C   UNL     1      31.442 -11.845 -20.986  0.00  0.00    +0.014 C 
ATOM     11  C   UNL     1      32.076 -13.014 -21.393  0.00  0.00    +0.166 C 
BRANCH   9  14
ATOM     12  F   UNL     1      32.416 -13.976 -25.132  0.00  0.00    -0.204 F 
ATOM     13  F   UNL     1      34.676 -14.375 -20.966  0.00  0.00    -0.204 F 
ATOM     14  C   UNL     1      33.527 -14.142 -23.035  0.00  0.00    +0.087 C 
ATOM     15  C   UNL     1      33.285 -14.607 -24.327  0.00  0.00    +0.145 C 
ATOM     16  C   UNL     1      34.434 -14.809 -22.211  0.00  0.00    +0.145 C 
ATOM     17  C   UNL     1      33.951 -15.739 -24.797  0.00  0.00    +0.030 C 
ATOM     18  C   UNL     1      35.099 -15.942 -22.680  0.00  0.00    +0.030 C 
ATOM     19  C   UNL     1      34.857 -16.407 -23.973  0.00  0.00    +0.005 C 
ENDBRANCH   9  14
ENDBRANCH   3   7
BRANCH   2  22
ATOM     20  N   UNL     1      35.735  -7.045 -26.197  0.00  0.00    -0.241 NA
ATOM     21  C   UNL     1      33.925  -6.596 -24.114  0.00  0.00    -0.006 C 
ATOM     22  C   UNL     1      34.330  -7.890 -24.420  0.00  0.00    +0.066 C 
ATOM     23  C   UNL     1      34.424  -5.525 -24.847  0.00  0.00    +0.018 C 
ATOM     24  C   UNL     1      35.227  -8.060 -25.461  0.00  0.00    +0.113 C 
ATOM     25  C   UNL     1      35.318  -5.801 -25.870  0.00  0.00    +0.099 C 
BRANCH  21  26
ATOM     26  C   UNL     1      32.958  -6.328 -23.005  0.00  0.00    +0.022 C 
ATOM     27  C   UNL     1      31.754  -4.498 -21.715  0.00  0.00    -0.002 C 
ATOM     28  C   UNL     1      32.697  -4.815 -22.885  0.00  0.00    +0.004 C 
ATOM     29  C   UNL     1      32.552  -6.586 -20.516  0.00  0.00    -0.065 C 
ATOM     30  C   UNL     1      33.498  -6.901 -21.682  0.00  0.00    -0.017 C 
ATOM     31  C   UNL     1      32.298  -5.078 -20.401  0.00  0.00    -0.022 C 
ATOM     32  C   UNL     1      31.541  -2.990 -21.591  0.00  0.00    -0.000 C 
BRANCH  29  33
ATOM     33  N   UNL     1      33.122  -7.089 -19.268  0.00  0.00    +0.382 N 
ATOM     34  H   UNL     1      33.509  -8.020 -19.421  0.00  0.00    -0.089 HD
ATOM     35  H   UNL     1      32.391  -7.138 -18.556  0.00  0.00    -0.089 HD
ATOM     36  H   UNL     1      33.861  -6.461 -18.953  0.00  0.00    -0.089 HD
ENDBRANCH  29  33
ENDBRANCH  21  26
ENDBRANCH   2  22
TORSDOF 5
ENDMDL
MODEL 6
REMARK VINA RESULT:      -9.6      9.500     14.771
REMARK  Name = 44814409
REMARK  5 active torsions:
REMARK  status: ('A' for Active; 'I' for Inactive)
REMARK    1  A    between atoms: N_2  and  C_22
REMARK    2  A    between atoms: C_3  and  C_7
REMARK    3  A    between atoms: C_9  and  C_14
REMARK    4  A    between atoms: C_21  and  C_26
REMARK    5  A    between atoms: C_29  and  N_33
REMARK                            x       y       z     vdW  Elec       q    Type
REMARK                         _______ _______ _______ _____ _____    ______ ____
ROOT
ATOM      1  O   UNL     1      31.625  -9.126 -24.368  0.00  0.00    -0.267 OA
ATOM      2  N   UNL     1      33.833  -8.974 -23.573  0.00  0.00    -0.278 N 
ATOM      3  C   UNL     1      32.545  -9.521 -23.660  0.00  0.00    +0.275 C 
ATOM      4  H   UNL     1      34.451  -9.421 -22.950  0.00  0.00    +0.155 HD
ENDROOT
BRANCH   3   7
ATOM      5  F   UNL     1      31.749 -14.085 -20.598  0.00  0.00    -0.202 F 
ATOM      6  N   UNL     1      32.969 -11.839 -23.182  0.00  0.00    -0.399 NA
ATOM      7  C   UNL     1      32.305 -10.720 -22.815  0.00  0.00    +0.167 C 
ATOM      8  C   UNL     1      31.444 -10.649 -21.731  0.00  0.00    +0.092 C 
ATOM      9  C   UNL     1      32.760 -12.937 -22.421  0.00  0.00    +0.162 C 
ATOM     10  C   UNL     1      31.255 -11.800 -20.974  0.00  0.00    +0.014 C 
ATOM     11  C   UNL     1      31.922 -12.970 -21.319  0.00  0.00    +0.166 C 
BRANCH   9  14
ATOM     12  F   UNL     1      34.540 -14.273 -20.715  0.00  0.00    -0.204 F 
ATOM     13  F   UNL     1      32.476 -14.019 -24.993  0.00  0.00    -0.204 F 
ATOM     14  C   UNL     1      33.487 -14.113 -22.842  0.00  0.00    +0.087 C 
ATOM     15  C   UNL     1      34.362 -14.744 -21.959  0.00  0.00    +0.145 C 
ATOM     16  C   UNL     1      33.313 -14.616 -24.131  0.00  0.00    +0.145 C 
ATOM     17  C   UNL     1      35.064 -15.880 -22.365  0.00  0.00    +0.030 C 
ATOM     18  C   UNL     1      34.015 -15.751 -24.538  0.00  0.00    +0.030 C 
ATOM     19  C   UNL     1      34.891 -16.382 -23.655  0.00  0.00    +0.005 C 
ENDBRANCH   9  14
ENDBRANCH   3   7
BRANCH   2  22
ATOM     20  N   UNL     1      35.487  -7.039 -26.223  0.00  0.00    -0.241 NA
ATOM     21  C   UNL     1      34.262  -6.584 -23.751  0.00  0.00    -0.006 C 
ATOM     22  C   UNL     1      34.348  -7.875 -24.261  0.00  0.00    +0.066 C 
ATOM     23  C   UNL     1      34.789  -5.521 -24.476  0.00  0.00    +0.018 C 
ATOM     24  C   UNL     1      34.963  -8.048 -25.490  0.00  0.00    +0.113 C 
ATOM     25  C   UNL     1      35.385  -5.799 -25.695  0.00  0.00    +0.099 C 
BRANCH  21  26
ATOM     26  C   UNL     1      33.612  -6.313 -22.433  0.00  0.00    +0.022 C 
ATOM     27  C   UNL     1      32.883  -7.366 -20.237  0.00  0.00    -0.002 C 
ATOM     28  C   UNL     1      33.599  -7.593 -21.576  0.00  0.00    +0.004 C 
ATOM     29  C   UNL     1      31.472  -5.550 -21.307  0.00  0.00    -0.065 C 
ATOM     30  C   UNL     1      32.184  -5.780 -22.647  0.00  0.00    -0.017 C 
ATOM     31  C   UNL     1      31.462  -6.828 -20.460  0.00  0.00    -0.022 C 
ATOM     32  C   UNL     1      32.848  -8.658 -19.421  0.00  0.00    -0.000 C 
BRANCH  29  33
ATOM     33  N   UNL     1      30.102  -5.102 -21.546  0.00  0.00    +0.382 N 
ATOM     34  H   UNL     1      29.813  -4.475 -20.795  0.00  0.00    -0.089 HD
ATOM     35  H   UNL     1      29.479  -5.911 -21.571  0.00  0.00    -0.089 HD
ATOM     36  H   UNL     1      30.055  -4.609 -22.437  0.00  0.00    -0.089 HD
ENDBRANCH  29  33
ENDBRANCH  21  26
ENDBRANCH   2  22
TORSDOF 5
ENDMDL
MODEL 7
REMARK VINA RESULT:      -9.3      7.683     13.053
REMARK  Name = 44814409
REMARK  5 active torsions:
REMARK  status: ('A' for Active; 'I' for Inactive)
REMARK    1  A    between atoms: N_2  and  C_22
REMARK    2  A    between atoms: C_3  and  C_7
REMARK    3  A    between atoms: C_9  and  C_14
REMARK    4  A    between atoms: C_21  and  C_26
REMARK    5  A    between atoms: C_29  and  N_33
REMARK                            x       y       z     vdW  Elec       q    Type
REMARK                         _______ _______ _______ _____ _____    ______ ____
ROOT
ATOM      1  O   UNL     1      31.931 -13.474 -20.674  0.00  0.00    -0.267 OA
ATOM      2  N   UNL     1      32.475 -11.369 -21.571  0.00  0.00    -0.278 N 
ATOM      3  C   UNL     1      32.391 -12.768 -21.566  0.00  0.00    +0.275 C 
ATOM      4  H   UNL     1      32.874 -10.964 -22.375  0.00  0.00    +0.155 HD
ENDROOT
BRANCH   3   7
ATOM      5  F   UNL     1      34.296 -15.416 -26.060  0.00  0.00    -0.202 F 
ATOM      6  N   UNL     1      33.328 -14.711 -22.629  0.00  0.00    -0.399 NA
ATOM      7  C   UNL     1      32.893 -13.441 -22.792  0.00  0.00    +0.167 C 
ATOM      8  C   UNL     1      32.896 -12.770 -24.005  0.00  0.00    +0.092 C 
ATOM      9  C   UNL     1      33.787 -15.335 -23.737  0.00  0.00    +0.162 C 
ATOM     10  C   UNL     1      33.376 -13.446 -25.121  0.00  0.00    +0.014 C 
ATOM     11  C   UNL     1      33.831 -14.754 -24.993  0.00  0.00    +0.166 C 
BRANCH   9  14
ATOM     12  F   UNL     1      32.854 -17.477 -25.287  0.00  0.00    -0.204 F 
ATOM     13  F   UNL     1      35.656 -15.980 -21.748  0.00  0.00    -0.204 F 
ATOM     14  C   UNL     1      34.242 -16.690 -23.524  0.00  0.00    +0.087 C 
ATOM     15  C   UNL     1      33.750 -17.724 -24.320  0.00  0.00    +0.145 C 
ATOM     16  C   UNL     1      35.174 -16.962 -22.523  0.00  0.00    +0.145 C 
ATOM     17  C   UNL     1      34.191 -19.031 -24.115  0.00  0.00    +0.030 C 
ATOM     18  C   UNL     1      35.615 -18.270 -22.317  0.00  0.00    +0.030 C 
ATOM     19  C   UNL     1      35.122 -19.304 -23.113  0.00  0.00    +0.005 C 
ENDBRANCH   9  14
ENDBRANCH   3   7
BRANCH   2  22
ATOM     20  N   UNL     1      31.357 -10.151 -18.290  0.00  0.00    -0.241 NA
ATOM     21  C   UNL     1      31.939  -9.116 -20.821  0.00  0.00    -0.006 C 
ATOM     22  C   UNL     1      32.062 -10.480 -20.579  0.00  0.00    +0.066 C 
ATOM     23  C   UNL     1      31.526  -8.269 -19.799  0.00  0.00    +0.018 C 
ATOM     24  C   UNL     1      31.762 -10.943 -19.308  0.00  0.00    +0.113 C 
ATOM     25  C   UNL     1      31.250  -8.831 -18.562  0.00  0.00    +0.099 C 
BRANCH  21  26
ATOM     26  C   UNL     1      32.245  -8.537 -22.165  0.00  0.00    +0.022 C 
ATOM     27  C   UNL     1      34.074  -7.514 -23.603  0.00  0.00    -0.002 C 
ATOM     28  C   UNL     1      33.738  -8.169 -22.255  0.00  0.00    +0.004 C 
ATOM     29  C   UNL     1      31.694  -6.655 -23.772  0.00  0.00    -0.065 C 
ATOM     30  C   UNL     1      31.358  -7.305 -22.423  0.00  0.00    -0.017 C 
ATOM     31  C   UNL     1      33.181  -6.291 -23.855  0.00  0.00    -0.022 C 
ATOM     32  C   UNL     1      35.551  -7.123 -23.655  0.00  0.00    -0.000 C 
BRANCH  29  33
ATOM     33  N   UNL     1      30.879  -5.457 -23.960  0.00  0.00    +0.382 N 
ATOM     34  H   UNL     1      29.911  -5.660 -23.710  0.00  0.00    -0.089 HD
ATOM     35  H   UNL     1      30.923  -5.165 -24.937  0.00  0.00    -0.089 HD
ATOM     36  H   UNL     1      31.232  -4.707 -23.366  0.00  0.00    -0.089 HD
ENDBRANCH  29  33
ENDBRANCH  21  26
ENDBRANCH   2  22
TORSDOF 5
ENDMDL
