MODEL 1
REMARK VINA RESULT:     -12.3      0.000      0.000
REMARK  Name = 10172943
REMARK  7 active torsions:
REMARK  status: ('A' for Active; 'I' for Inactive)
REMARK    1  A    between atoms: O_1  and  C_3
REMARK    2  A    between atoms: O_1  and  C_19
REMARK    3  A    between atoms: C_4  and  C_11
REMARK    4  A    between atoms: C_19  and  C_20
REMARK    5  A    between atoms: C_20  and  N_21
REMARK    6  A    between atoms: C_20  and  C_25
REMARK    7  A    between atoms: C_25  and  C_27
REMARK                            x       y       z     vdW  Elec       q    Type
REMARK                         _______ _______ _______ _____ _____    ______ ____
ROOT
ATOM      1  O   UNL     1      35.081 -22.091 -19.494  0.00  0.00    -0.476 OA
ENDROOT
BRANCH   1   3
ATOM      2  N   UNL     1      37.520 -19.428 -19.980  0.00  0.00    -0.239 NA
ATOM      3  C   UNL     1      35.667 -20.961 -20.001  0.00  0.00    +0.158 C 
ATOM      4  C   UNL     1      35.666 -19.095 -21.497  0.00  0.00    +0.022 C 
ATOM      5  C   UNL     1      35.046 -20.235 -21.001  0.00  0.00    +0.040 C 
ATOM      6  C   UNL     1      36.886 -20.531 -19.524  0.00  0.00    +0.136 C 
ATOM      7  C   UNL     1      36.891 -18.735 -20.957  0.00  0.00    +0.099 C 
BRANCH   4  11
ATOM      8  N   UNL     1      33.548 -14.843 -24.824  0.00  0.00    -0.280 N 
ATOM      9  N   UNL     1      33.333 -16.012 -25.461  0.00  0.00    -0.173 NA
ATOM     10  C   UNL     1      34.385 -16.299 -23.468  0.00  0.00    +0.032 A 
ATOM     11  C   UNL     1      35.053 -18.308 -22.542  0.00  0.00    +0.002 C 
ATOM     12  C   UNL     1      33.844 -16.945 -24.640  0.00  0.00    +0.102 A 
ATOM     13  C   UNL     1      35.001 -16.906 -22.381  0.00  0.00    +0.003 C 
ATOM     14  C   UNL     1      34.178 -14.957 -23.620  0.00  0.00    +0.053 A 
ATOM     15  C   UNL     1      34.530 -18.992 -23.689  0.00  0.00    +0.002 C 
ATOM     16  C   UNL     1      33.907 -18.344 -24.779  0.00  0.00    +0.021 C 
ATOM     17  C   UNL     1      34.494 -13.783 -22.790  0.00  0.00    +0.051 C 
ATOM     18  H   UNL     1      33.272 -13.976 -25.199  0.00  0.00    +0.189 HD
ENDBRANCH   4  11
ENDBRANCH   1   3
BRANCH   1  19
ATOM     19  C   UNL     1      33.755 -21.959 -19.000  0.00  0.00    +0.184 C 
BRANCH  19  20
ATOM     20  C   UNL     1      33.450 -22.987 -17.903  0.00  0.00    -0.017 C 
BRANCH  20  21
ATOM     21  N   UNL     1      33.436 -24.326 -18.505  0.00  0.00    +0.384 N 
ATOM     22  H   UNL     1      32.506 -24.734 -18.404  0.00  0.00    -0.089 HD
ATOM     23  H   UNL     1      34.120 -24.917 -18.034  0.00  0.00    -0.089 HD
ATOM     24  H   UNL     1      33.672 -24.255 -19.495  0.00  0.00    -0.089 HD
ENDBRANCH  20  21
BRANCH  20  25
ATOM     25  C   UNL     1      34.464 -22.962 -16.728  0.00  0.00    +0.009 C 
BRANCH  25  27
ATOM     26  N   UNL     1      34.212 -25.271 -13.911  0.00  0.00    -0.312 N 
ATOM     27  C   UNL     1      34.090 -23.813 -15.580  0.00  0.00    -0.008 C 
ATOM     28  C   UNL     1      32.806 -23.903 -14.974  0.00  0.00    +0.011 C 
ATOM     29  C   UNL     1      32.909 -24.825 -13.929  0.00  0.00    +0.048 C 
ATOM     30  C   UNL     1      34.933 -24.667 -14.905  0.00  0.00    +0.058 C 
ATOM     31  C   UNL     1      31.562 -23.286 -15.213  0.00  0.00    +0.001 C 
ATOM     32  C   UNL     1      31.826 -25.162 -13.109  0.00  0.00    +0.015 C 
ATOM     33  C   UNL     1      30.470 -23.613 -14.401  0.00  0.00    +0.000 C 
ATOM     34  C   UNL     1      30.603 -24.537 -13.366  0.00  0.00    +0.001 C 
ATOM     35  H   UNL     1      34.571 -25.932 -13.276  0.00  0.00    +0.152 HD
ENDBRANCH  25  27
ENDBRANCH  20  25
ENDBRANCH  19  20
ENDBRANCH   1  19
TORSDOF 7
ENDMDL
MODEL 2
REMARK VINA RESULT:     -12.3      3.039      5.968
REMARK  Name = 10172943
REMARK  7 active torsions:
REMARK  status: ('A' for Active; 'I' for Inactive)
REMARK    1  A    between atoms: O_1  and  C_3
REMARK    2  A    between atoms: O_1  and  C_19
REMARK    3  A    between atoms: C_4  and  C_11
REMARK    4  A    between atoms: C_19  and  C_20
REMARK    5  A    between atoms: C_20  and  N_21
REMARK    6  A    between atoms: C_20  and  C_25
REMARK    7  A    between atoms: C_25  and  C_27
REMARK                            x       y       z     vdW  Elec       q    Type
REMARK                         _______ _______ _______ _____ _____    ______ ____
ROOT
ATOM      1  O   UNL     1      35.694 -17.345 -22.808  0.00  0.00    -0.476 OA
ENDROOT
BRANCH   1   3
ATOM      2  N   UNL     1      33.707 -15.627 -25.333  0.00  0.00    -0.239 NA
ATOM      3  C   UNL     1      34.862 -16.417 -23.377  0.00  0.00    +0.158 C 
ATOM      4  C   UNL     1      33.506 -14.453 -23.228  0.00  0.00    +0.022 C 
ATOM      5  C   UNL     1      34.348 -15.378 -22.623  0.00  0.00    +0.040 C 
ATOM      6  C   UNL     1      34.523 -16.506 -24.710  0.00  0.00    +0.136 C 
ATOM      7  C   UNL     1      33.219 -14.619 -24.574  0.00  0.00    +0.099 C 
BRANCH   4  11
ATOM      8  N   UNL     1      31.510  -9.313 -21.432  0.00  0.00    -0.280 N 
ATOM      9  N   UNL     1      31.370 -10.188 -20.417  0.00  0.00    -0.173 NA
ATOM     10  C   UNL     1      32.289 -11.149 -22.258  0.00  0.00    +0.032 A 
ATOM     11  C   UNL     1      32.946 -13.353 -22.478  0.00  0.00    +0.002 C 
ATOM     12  C   UNL     1      31.848 -11.348 -20.898  0.00  0.00    +0.102 A 
ATOM     13  C   UNL     1      32.846 -12.094 -23.110  0.00  0.00    +0.003 C 
ATOM     14  C   UNL     1      32.058  -9.837 -22.566  0.00  0.00    +0.053 A 
ATOM     15  C   UNL     1      32.520 -13.597 -21.131  0.00  0.00    +0.002 C 
ATOM     16  C   UNL     1      31.957 -12.612 -20.289  0.00  0.00    +0.021 C 
ATOM     17  C   UNL     1      32.282  -9.025 -23.773  0.00  0.00    +0.051 C 
ATOM     18  H   UNL     1      31.238  -8.370 -21.361  0.00  0.00    +0.189 HD
ENDBRANCH   4  11
ENDBRANCH   1   3
BRANCH   1  19
ATOM     19  C   UNL     1      35.320 -17.843 -21.530  0.00  0.00    +0.184 C 
BRANCH  19  20
ATOM     20  C   UNL     1      34.772 -19.274 -21.614  0.00  0.00    -0.017 C 
BRANCH  20  21
ATOM     21  N   UNL     1      34.934 -19.759 -22.990  0.00  0.00    +0.384 N 
ATOM     22  H   UNL     1      34.189 -19.377 -23.573  0.00  0.00    -0.089 HD
ATOM     23  H   UNL     1      34.885 -20.777 -22.999  0.00  0.00    -0.089 HD
ATOM     24  H   UNL     1      35.838 -19.458 -23.352  0.00  0.00    -0.089 HD
ENDBRANCH  20  21
BRANCH  20  25
ATOM     25  C   UNL     1      35.463 -20.262 -20.636  0.00  0.00    +0.009 C 
BRANCH  25  27
ATOM     26  N   UNL     1      32.678 -22.026 -19.066  0.00  0.00    -0.312 N 
ATOM     27  C   UNL     1      34.531 -21.057 -19.811  0.00  0.00    -0.008 C 
ATOM     28  C   UNL     1      34.852 -21.782 -18.630  0.00  0.00    +0.011 C 
ATOM     29  C   UNL     1      33.672 -22.381 -18.182  0.00  0.00    +0.048 C 
ATOM     30  C   UNL     1      33.186 -21.225 -20.053  0.00  0.00    +0.058 C 
ATOM     31  C   UNL     1      36.037 -21.989 -17.896  0.00  0.00    +0.001 C 
ATOM     32  C   UNL     1      33.618 -23.178 -17.033  0.00  0.00    +0.015 C 
ATOM     33  C   UNL     1      35.998 -22.784 -16.745  0.00  0.00    +0.000 C 
ATOM     34  C   UNL     1      34.806 -23.369 -16.322  0.00  0.00    +0.001 C 
ATOM     35  H   UNL     1      31.737 -22.306 -18.997  0.00  0.00    +0.152 HD
ENDBRANCH  25  27
ENDBRANCH  20  25
ENDBRANCH  19  20
ENDBRANCH   1  19
TORSDOF 7
ENDMDL
MODEL 3
REMARK VINA RESULT:     -12.1      4.060     11.156
REMARK  Name = 10172943
REMARK  7 active torsions:
REMARK  status: ('A' for Active; 'I' for Inactive)
REMARK    1  A    between atoms: O_1  and  C_3
REMARK    2  A    between atoms: O_1  and  C_19
REMARK    3  A    between atoms: C_4  and  C_11
REMARK    4  A    between atoms: C_19  and  C_20
REMARK    5  A    between atoms: C_20  and  N_21
REMARK    6  A    between atoms: C_20  and  C_25
REMARK    7  A    between atoms: C_25  and  C_27
REMARK                            x       y       z     vdW  Elec       q    Type
REMARK                         _______ _______ _______ _____ _____    ______ ____
ROOT
ATOM      1  O   UNL     1      34.504 -14.231 -23.067  0.00  0.00    -0.476 OA
ENDROOT
BRANCH   1   3
ATOM      2  N   UNL     1      34.151 -17.372 -24.882  0.00  0.00    -0.239 NA
ATOM      3  C   UNL     1      34.534 -15.577 -23.328  0.00  0.00    +0.158 C 
ATOM      4  C   UNL     1      34.979 -17.828 -22.656  0.00  0.00    +0.022 C 
ATOM      5  C   UNL     1      34.958 -16.470 -22.361  0.00  0.00    +0.040 C 
ATOM      6  C   UNL     1      34.145 -16.059 -24.558  0.00  0.00    +0.136 C 
ATOM      7  C   UNL     1      34.569 -18.225 -23.919  0.00  0.00    +0.099 C 
BRANCH   4  11
ATOM      8  N   UNL     1      35.337 -22.069 -18.717  0.00  0.00    -0.280 N 
ATOM      9  N   UNL     1      36.575 -21.566 -18.896  0.00  0.00    -0.173 NA
ATOM     10  C   UNL     1      35.028 -20.524 -20.192  0.00  0.00    +0.032 A 
ATOM     11  C   UNL     1      35.415 -18.796 -21.677  0.00  0.00    +0.002 C 
ATOM     12  C   UNL     1      36.419 -20.596 -19.813  0.00  0.00    +0.102 A 
ATOM     13  C   UNL     1      34.450 -19.658 -21.111  0.00  0.00    +0.003 C 
ATOM     14  C   UNL     1      34.367 -21.480 -19.473  0.00  0.00    +0.053 A 
ATOM     15  C   UNL     1      36.806 -18.833 -21.330  0.00  0.00    +0.002 C 
ATOM     16  C   UNL     1      37.363 -19.728 -20.390  0.00  0.00    +0.021 C 
ATOM     17  C   UNL     1      32.959 -21.905 -19.406  0.00  0.00    +0.051 C 
ATOM     18  H   UNL     1      35.149 -22.805 -18.090  0.00  0.00    +0.189 HD
ENDBRANCH   4  11
ENDBRANCH   1   3
BRANCH   1  19
ATOM     19  C   UNL     1      33.690 -13.806 -21.982  0.00  0.00    +0.184 C 
BRANCH  19  20
ATOM     20  C   UNL     1      33.079 -12.422 -22.236  0.00  0.00    -0.017 C 
BRANCH  20  21
ATOM     21  N   UNL     1      32.759 -12.305 -23.664  0.00  0.00    +0.384 N 
ATOM     22  H   UNL     1      31.796 -12.602 -23.822  0.00  0.00    -0.089 HD
ATOM     23  H   UNL     1      33.392 -12.896 -24.203  0.00  0.00    -0.089 HD
ATOM     24  H   UNL     1      32.868 -11.334 -23.957  0.00  0.00    -0.089 HD
ENDBRANCH  20  21
BRANCH  20  25
ATOM     25  C   UNL     1      31.802 -12.144 -21.398  0.00  0.00    +0.009 C 
BRANCH  25  27
ATOM     26  N   UNL     1      32.006  -9.679 -18.712  0.00  0.00    -0.312 N 
ATOM     27  C   UNL     1      31.892 -10.957 -20.523  0.00  0.00    -0.008 C 
ATOM     28  C   UNL     1      31.965  -9.599 -20.941  0.00  0.00    +0.011 C 
ATOM     29  C   UNL     1      32.036  -8.818 -19.785  0.00  0.00    +0.048 C 
ATOM     30  C   UNL     1      31.919 -10.975 -19.147  0.00  0.00    +0.058 C 
ATOM     31  C   UNL     1      31.979  -8.958 -22.195  0.00  0.00    +0.001 C 
ATOM     32  C   UNL     1      32.120  -7.421 -19.822  0.00  0.00    +0.015 C 
ATOM     33  C   UNL     1      32.063  -7.561 -22.247  0.00  0.00    +0.000 C 
ATOM     34  C   UNL     1      32.133  -6.807 -21.077  0.00  0.00    +0.001 C 
ATOM     35  H   UNL     1      32.041  -9.404 -17.767  0.00  0.00    +0.152 HD
ENDBRANCH  25  27
ENDBRANCH  20  25
ENDBRANCH  19  20
ENDBRANCH   1  19
TORSDOF 7
ENDMDL
MODEL 4
REMARK VINA RESULT:     -12.1      1.707      2.376
REMARK  Name = 10172943
REMARK  7 active torsions:
REMARK  status: ('A' for Active; 'I' for Inactive)
REMARK    1  A    between atoms: O_1  and  C_3
REMARK    2  A    between atoms: O_1  and  C_19
REMARK    3  A    between atoms: C_4  and  C_11
REMARK    4  A    between atoms: C_19  and  C_20
REMARK    5  A    between atoms: C_20  and  N_21
REMARK    6  A    between atoms: C_20  and  C_25
REMARK    7  A    between atoms: C_25  and  C_27
REMARK                            x       y       z     vdW  Elec       q    Type
REMARK                         _______ _______ _______ _____ _____    ______ ____
ROOT
ATOM      1  O   UNL     1      36.465 -22.485 -18.189  0.00  0.00    -0.476 OA
ENDROOT
BRANCH   1   3
ATOM      2  N   UNL     1      33.004 -21.881 -19.160  0.00  0.00    -0.239 NA
ATOM      3  C   UNL     1      35.387 -21.946 -18.844  0.00  0.00    +0.158 C 
ATOM      4  C   UNL     1      34.455 -20.438 -20.448  0.00  0.00    +0.022 C 
ATOM      5  C   UNL     1      35.567 -20.966 -19.803  0.00  0.00    +0.040 C 
ATOM      6  C   UNL     1      34.109 -22.371 -18.554  0.00  0.00    +0.136 C 
ATOM      7  C   UNL     1      33.206 -20.925 -20.095  0.00  0.00    +0.099 C 
BRANCH   4  11
ATOM      8  N   UNL     1      34.946 -15.445 -23.358  0.00  0.00    -0.280 N 
ATOM      9  N   UNL     1      34.993 -16.451 -24.254  0.00  0.00    -0.173 NA
ATOM     10  C   UNL     1      34.753 -17.206 -22.125  0.00  0.00    +0.032 A 
ATOM     11  C   UNL     1      34.596 -19.412 -21.456  0.00  0.00    +0.002 C 
ATOM     12  C   UNL     1      34.874 -17.569 -23.517  0.00  0.00    +0.102 A 
ATOM     13  C   UNL     1      34.611 -18.063 -21.041  0.00  0.00    +0.003 C 
ATOM     14  C   UNL     1      34.803 -15.842 -22.061  0.00  0.00    +0.053 A 
ATOM     15  C   UNL     1      34.714 -19.819 -22.827  0.00  0.00    +0.002 C 
ATOM     16  C   UNL     1      34.856 -18.921 -23.907  0.00  0.00    +0.021 C 
ATOM     17  C   UNL     1      34.736 -14.876 -20.952  0.00  0.00    +0.051 C 
ATOM     18  H   UNL     1      35.011 -14.498 -23.620  0.00  0.00    +0.189 HD
ENDBRANCH   4  11
ENDBRANCH   1   3
BRANCH   1  19
ATOM     19  C   UNL     1      36.629 -22.127 -16.824  0.00  0.00    +0.184 C 
BRANCH  19  20
ATOM     20  C   UNL     1      36.113 -23.221 -15.881  0.00  0.00    -0.017 C 
BRANCH  20  21
ATOM     21  N   UNL     1      37.265 -23.930 -15.310  0.00  0.00    +0.384 N 
ATOM     22  H   UNL     1      38.103 -23.701 -15.844  0.00  0.00    -0.089 HD
ATOM     23  H   UNL     1      37.099 -24.936 -15.351  0.00  0.00    -0.089 HD
ATOM     24  H   UNL     1      37.391 -23.646 -14.339  0.00  0.00    -0.089 HD
ENDBRANCH  20  21
BRANCH  20  25
ATOM     25  C   UNL     1      35.220 -22.681 -14.732  0.00  0.00    +0.009 C 
BRANCH  25  27
ATOM     26  N   UNL     1      33.387 -25.319 -12.996  0.00  0.00    -0.312 N 
ATOM     27  C   UNL     1      34.260 -23.664 -14.190  0.00  0.00    -0.008 C 
ATOM     28  C   UNL     1      32.897 -23.817 -14.570  0.00  0.00    +0.011 C 
ATOM     29  C   UNL     1      32.373 -24.862 -13.806  0.00  0.00    +0.048 C 
ATOM     30  C   UNL     1      34.532 -24.603 -13.221  0.00  0.00    +0.058 C 
ATOM     31  C   UNL     1      32.057 -23.164 -15.493  0.00  0.00    +0.001 C 
ATOM     32  C   UNL     1      31.044 -25.287 -13.920  0.00  0.00    +0.015 C 
ATOM     33  C   UNL     1      30.726 -23.578 -15.618  0.00  0.00    +0.000 C 
ATOM     34  C   UNL     1      30.229 -24.624 -14.841  0.00  0.00    +0.001 C 
ATOM     35  H   UNL     1      33.302 -26.056 -12.349  0.00  0.00    +0.152 HD
ENDBRANCH  25  27
ENDBRANCH  20  25
ENDBRANCH  19  20
ENDBRANCH   1  19
TORSDOF 7
ENDMDL
MODEL 5
REMARK VINA RESULT:     -11.9      2.028     10.269
REMARK  Name = 10172943
REMARK  7 active torsions:
REMARK  status: ('A' for Active; 'I' for Inactive)
REMARK    1  A    between atoms: O_1  and  C_3
REMARK    2  A    between atoms: O_1  and  C_19
REMARK    3  A    between atoms: C_4  and  C_11
REMARK    4  A    between atoms: C_19  and  C_20
REMARK    5  A    between atoms: C_20  and  N_21
REMARK    6  A    between atoms: C_20  and  C_25
REMARK    7  A    between atoms: C_25  and  C_27
REMARK                            x       y       z     vdW  Elec       q    Type
REMARK                         _______ _______ _______ _____ _____    ______ ____
ROOT
ATOM      1  O   UNL     1      35.281 -22.049 -19.537  0.00  0.00    -0.476 OA
ENDROOT
BRANCH   1   3
ATOM      2  N   UNL     1      36.594 -22.361 -16.152  0.00  0.00    -0.239 NA
ATOM      3  C   UNL     1      35.334 -22.347 -18.200  0.00  0.00    +0.158 C 
ATOM      4  C   UNL     1      34.324 -23.192 -16.204  0.00  0.00    +0.022 C 
ATOM      5  C   UNL     1      34.241 -22.904 -17.561  0.00  0.00    +0.040 C 
ATOM      6  C   UNL     1      36.476 -22.094 -17.472  0.00  0.00    +0.136 C 
ATOM      7  C   UNL     1      35.512 -22.906 -15.551  0.00  0.00    +0.099 C 
BRANCH   4  11
ATOM      8  N   UNL     1      29.082 -24.920 -14.425  0.00  0.00    -0.280 N 
ATOM      9  N   UNL     1      29.991 -25.390 -13.548  0.00  0.00    -0.173 NA
ATOM     10  C   UNL     1      30.951 -24.196 -15.225  0.00  0.00    +0.032 A 
ATOM     11  C   UNL     1      33.206 -23.773 -15.497  0.00  0.00    +0.002 C 
ATOM     12  C   UNL     1      31.173 -24.956 -14.018  0.00  0.00    +0.102 A 
ATOM     13  C   UNL     1      31.909 -23.577 -16.018  0.00  0.00    +0.003 C 
ATOM     14  C   UNL     1      29.604 -24.194 -15.454  0.00  0.00    +0.053 A 
ATOM     15  C   UNL     1      33.474 -24.521 -14.302  0.00  0.00    +0.002 C 
ATOM     16  C   UNL     1      32.475 -25.140 -13.518  0.00  0.00    +0.021 C 
ATOM     17  C   UNL     1      28.756 -23.606 -16.505  0.00  0.00    +0.051 C 
ATOM     18  H   UNL     1      28.116 -25.087 -14.329  0.00  0.00    +0.189 HD
ENDBRANCH   4  11
ENDBRANCH   1   3
BRANCH   1  19
ATOM     19  C   UNL     1      36.106 -20.983 -19.989  0.00  0.00    +0.184 C 
BRANCH  19  20
ATOM     20  C   UNL     1      35.340 -20.020 -20.906  0.00  0.00    -0.017 C 
BRANCH  20  21
ATOM     21  N   UNL     1      33.905 -20.143 -20.622  0.00  0.00    +0.384 N 
ATOM     22  H   UNL     1      33.467 -20.726 -21.335  0.00  0.00    -0.089 HD
ATOM     23  H   UNL     1      33.477 -19.217 -20.629  0.00  0.00    -0.089 HD
ATOM     24  H   UNL     1      33.776 -20.570 -19.706  0.00  0.00    -0.089 HD
ENDBRANCH  20  21
BRANCH  20  25
ATOM     25  C   UNL     1      35.771 -18.537 -20.747  0.00  0.00    +0.009 C 
BRANCH  25  27
ATOM     26  N   UNL     1      34.972 -16.923 -23.924  0.00  0.00    -0.312 N 
ATOM     27  C   UNL     1      35.376 -17.662 -21.870  0.00  0.00    -0.008 C 
ATOM     28  C   UNL     1      34.891 -16.328 -21.775  0.00  0.00    +0.011 C 
ATOM     29  C   UNL     1      34.646 -15.888 -23.078  0.00  0.00    +0.048 C 
ATOM     30  C   UNL     1      35.416 -18.000 -23.204  0.00  0.00    +0.058 C 
ATOM     31  C   UNL     1      34.636 -15.450 -20.703  0.00  0.00    +0.001 C 
ATOM     32  C   UNL     1      34.155 -14.608 -23.362  0.00  0.00    +0.015 C 
ATOM     33  C   UNL     1      34.146 -14.168 -20.973  0.00  0.00    +0.000 C 
ATOM     34  C   UNL     1      33.909 -13.755 -22.283  0.00  0.00    +0.001 C 
ATOM     35  H   UNL     1      34.899 -16.893 -24.905  0.00  0.00    +0.152 HD
ENDBRANCH  25  27
ENDBRANCH  20  25
ENDBRANCH  19  20
ENDBRANCH   1  19
TORSDOF 7
ENDMDL
MODEL 6
REMARK VINA RESULT:     -11.6      1.839     10.915
REMARK  Name = 10172943
REMARK  7 active torsions:
REMARK  status: ('A' for Active; 'I' for Inactive)
REMARK    1  A    between atoms: O_1  and  C_3
REMARK    2  A    between atoms: O_1  and  C_19
REMARK    3  A    between atoms: C_4  and  C_11
REMARK    4  A    between atoms: C_19  and  C_20
REMARK    5  A    between atoms: C_20  and  N_21
REMARK    6  A    between atoms: C_20  and  C_25
REMARK    7  A    between atoms: C_25  and  C_27
REMARK                            x       y       z     vdW  Elec       q    Type
REMARK                         _______ _______ _______ _____ _____    ______ ____
ROOT
ATOM      1  O   UNL     1      35.853 -21.191 -19.488  0.00  0.00    -0.476 OA
ENDROOT
BRANCH   1   3
ATOM      2  N   UNL     1      32.714 -22.739 -18.474  0.00  0.00    -0.239 NA
ATOM      3  C   UNL     1      34.947 -21.884 -18.728  0.00  0.00    +0.158 C 
ATOM      4  C   UNL     1      34.376 -23.116 -16.759  0.00  0.00    +0.022 C 
ATOM      5  C   UNL     1      35.316 -22.415 -17.505  0.00  0.00    +0.040 C 
ATOM      6  C   UNL     1      33.655 -22.065 -19.171  0.00  0.00    +0.136 C 
ATOM      7  C   UNL     1      33.099 -23.248 -17.281  0.00  0.00    +0.099 C 
BRANCH   4  11
ATOM      8  N   UNL     1      37.053 -25.519 -12.211  0.00  0.00    -0.280 N 
ATOM      9  N   UNL     1      35.765 -25.318 -11.872  0.00  0.00    -0.173 NA
ATOM     10  C   UNL     1      36.214 -24.632 -13.990  0.00  0.00    +0.032 A 
ATOM     11  C   UNL     1      34.719 -23.688 -15.478  0.00  0.00    +0.002 C 
ATOM     12  C   UNL     1      35.209 -24.764 -12.963  0.00  0.00    +0.102 A 
ATOM     13  C   UNL     1      36.050 -24.108 -15.266  0.00  0.00    +0.003 C 
ATOM     14  C   UNL     1      37.380 -25.124 -13.475  0.00  0.00    +0.053 A 
ATOM     15  C   UNL     1      33.688 -23.799 -14.486  0.00  0.00    +0.002 C 
ATOM     16  C   UNL     1      33.888 -24.338 -13.196  0.00  0.00    +0.021 C 
ATOM     17  C   UNL     1      38.744 -25.269 -14.011  0.00  0.00    +0.051 C 
ATOM     18  H   UNL     1      37.708 -25.920 -11.594  0.00  0.00    +0.189 HD
ENDBRANCH   4  11
ENDBRANCH   1   3
BRANCH   1  19
ATOM     19  C   UNL     1      35.344 -20.501 -20.621  0.00  0.00    +0.184 C 
BRANCH  19  20
ATOM     20  C   UNL     1      35.946 -19.096 -20.752  0.00  0.00    -0.017 C 
BRANCH  20  21
ATOM     21  N   UNL     1      37.401 -19.191 -20.577  0.00  0.00    +0.384 N 
ATOM     22  H   UNL     1      37.615 -19.943 -19.922  0.00  0.00    -0.089 HD
ATOM     23  H   UNL     1      37.757 -18.308 -20.212  0.00  0.00    -0.089 HD
ATOM     24  H   UNL     1      37.839 -19.388 -21.477  0.00  0.00    -0.089 HD
ENDBRANCH  20  21
BRANCH  20  25
ATOM     25  C   UNL     1      35.635 -18.411 -22.110  0.00  0.00    +0.009 C 
BRANCH  25  27
ATOM     26  N   UNL     1      34.462 -15.091 -21.141  0.00  0.00    -0.312 N 
ATOM     27  C   UNL     1      35.094 -17.041 -21.993  0.00  0.00    -0.008 C 
ATOM     28  C   UNL     1      34.556 -16.249 -23.045  0.00  0.00    +0.011 C 
ATOM     29  C   UNL     1      34.166 -15.031 -22.484  0.00  0.00    +0.048 C 
ATOM     30  C   UNL     1      35.022 -16.302 -20.834  0.00  0.00    +0.058 C 
ATOM     31  C   UNL     1      34.363 -16.452 -24.426  0.00  0.00    +0.001 C 
ATOM     32  C   UNL     1      33.591 -14.002 -23.239  0.00  0.00    +0.015 C 
ATOM     33  C   UNL     1      33.789 -15.432 -25.193  0.00  0.00    +0.000 C 
ATOM     34  C   UNL     1      33.410 -14.226 -24.606  0.00  0.00    +0.001 C 
ATOM     35  H   UNL     1      34.293 -14.368 -20.495  0.00  0.00    +0.152 HD
ENDBRANCH  25  27
ENDBRANCH  20  25
ENDBRANCH  19  20
ENDBRANCH   1  19
TORSDOF 7
ENDMDL
MODEL 7
REMARK VINA RESULT:     -11.3      1.867     10.539
REMARK  Name = 10172943
REMARK  7 active torsions:
REMARK  status: ('A' for Active; 'I' for Inactive)
REMARK    1  A    between atoms: O_1  and  C_3
REMARK    2  A    between atoms: O_1  and  C_19
REMARK    3  A    between atoms: C_4  and  C_11
REMARK    4  A    between atoms: C_19  and  C_20
REMARK    5  A    between atoms: C_20  and  N_21
REMARK    6  A    between atoms: C_20  and  C_25
REMARK    7  A    between atoms: C_25  and  C_27
REMARK                            x       y       z     vdW  Elec       q    Type
REMARK                         _______ _______ _______ _____ _____    ______ ____
ROOT
ATOM      1  O   UNL     1      35.151 -20.820 -20.839  0.00  0.00    -0.476 OA
ENDROOT
BRANCH   1   3
ATOM      2  N   UNL     1      32.657 -22.371 -18.681  0.00  0.00    -0.239 NA
ATOM      3  C   UNL     1      34.605 -21.455 -19.753  0.00  0.00    +0.158 C 
ATOM      4  C   UNL     1      34.815 -22.458 -17.593  0.00  0.00    +0.022 C 
ATOM      5  C   UNL     1      35.397 -21.814 -18.678  0.00  0.00    +0.040 C 
ATOM      6  C   UNL     1      33.259 -21.747 -19.718  0.00  0.00    +0.136 C 
ATOM      7  C   UNL     1      33.453 -22.711 -17.641  0.00  0.00    +0.099 C 
BRANCH   4  11
ATOM      8  N   UNL     1      36.703 -24.393 -12.462  0.00  0.00    -0.280 N 
ATOM      9  N   UNL     1      37.776 -23.990 -13.171  0.00  0.00    -0.173 NA
ATOM     10  C   UNL     1      35.834 -23.713 -14.317  0.00  0.00    +0.032 A 
ATOM     11  C   UNL     1      35.605 -22.851 -16.449  0.00  0.00    +0.002 C 
ATOM     12  C   UNL     1      37.269 -23.557 -14.338  0.00  0.00    +0.102 A 
ATOM     13  C   UNL     1      34.937 -23.386 -15.325  0.00  0.00    +0.003 C 
ATOM     14  C   UNL     1      35.508 -24.250 -13.104  0.00  0.00    +0.053 A 
ATOM     15  C   UNL     1      37.027 -22.679 -16.514  0.00  0.00    +0.002 C 
ATOM     16  C   UNL     1      37.913 -23.022 -15.469  0.00  0.00    +0.021 C 
ATOM     17  C   UNL     1      34.234 -24.641 -12.478  0.00  0.00    +0.051 C 
ATOM     18  H   UNL     1      36.776 -24.763 -11.553  0.00  0.00    +0.189 HD
ENDBRANCH   4  11
ENDBRANCH   1   3
BRANCH   1  19
ATOM     19  C   UNL     1      34.445 -19.695 -21.345  0.00  0.00    +0.184 C 
BRANCH  19  20
ATOM     20  C   UNL     1      35.315 -18.431 -21.351  0.00  0.00    -0.017 C 
BRANCH  20  21
ATOM     21  N   UNL     1      36.510 -18.680 -20.535  0.00  0.00    +0.384 N 
ATOM     22  H   UNL     1      37.333 -18.708 -21.137  0.00  0.00    -0.089 HD
ATOM     23  H   UNL     1      36.410 -19.573 -20.051  0.00  0.00    -0.089 HD
ATOM     24  H   UNL     1      36.614 -17.933 -19.849  0.00  0.00    -0.089 HD
ENDBRANCH  20  21
BRANCH  20  25
ATOM     25  C   UNL     1      35.748 -17.981 -22.772  0.00  0.00    +0.009 C 
BRANCH  25  27
ATOM     26  N   UNL     1      33.806 -15.620 -24.768  0.00  0.00    -0.312 N 
ATOM     27  C   UNL     1      34.940 -16.880 -23.336  0.00  0.00    -0.008 C 
ATOM     28  C   UNL     1      34.451 -15.743 -22.636  0.00  0.00    +0.011 C 
ATOM     29  C   UNL     1      33.742 -14.968 -23.557  0.00  0.00    +0.048 C 
ATOM     30  C   UNL     1      34.528 -16.776 -24.646  0.00  0.00    +0.058 C 
ATOM     31  C   UNL     1      34.541 -15.297 -21.303  0.00  0.00    +0.001 C 
ATOM     32  C   UNL     1      33.118 -13.764 -23.210  0.00  0.00    +0.015 C 
ATOM     33  C   UNL     1      33.922 -14.095 -20.941  0.00  0.00    +0.000 C 
ATOM     34  C   UNL     1      33.221 -13.343 -21.881  0.00  0.00    +0.001 C 
ATOM     35  H   UNL     1      33.392 -15.299 -25.602  0.00  0.00    +0.152 HD
ENDBRANCH  25  27
ENDBRANCH  20  25
ENDBRANCH  19  20
ENDBRANCH   1  19
TORSDOF 7
ENDMDL
MODEL 8
REMARK VINA RESULT:     -11.2      3.321      5.311
REMARK  Name = 10172943
REMARK  7 active torsions:
REMARK  status: ('A' for Active; 'I' for Inactive)
REMARK    1  A    between atoms: O_1  and  C_3
REMARK    2  A    between atoms: O_1  and  C_19
REMARK    3  A    between atoms: C_4  and  C_11
REMARK    4  A    between atoms: C_19  and  C_20
REMARK    5  A    between atoms: C_20  and  N_21
REMARK    6  A    between atoms: C_20  and  C_25
REMARK    7  A    between atoms: C_25  and  C_27
REMARK                            x       y       z     vdW  Elec       q    Type
REMARK                         _______ _______ _______ _____ _____    ______ ____
ROOT
ATOM      1  O   UNL     1      35.532 -24.938 -14.158  0.00  0.00    -0.476 OA
ENDROOT
BRANCH   1   3
ATOM      2  N   UNL     1      38.207 -22.903 -15.566  0.00  0.00    -0.239 NA
ATOM      3  C   UNL     1      36.183 -24.068 -14.994  0.00  0.00    +0.158 C 
ATOM      4  C   UNL     1      36.209 -22.622 -16.898  0.00  0.00    +0.022 C 
ATOM      5  C   UNL     1      35.522 -23.498 -16.067  0.00  0.00    +0.040 C 
ATOM      6  C   UNL     1      37.506 -23.750 -14.780  0.00  0.00    +0.136 C 
ATOM      7  C   UNL     1      37.538 -22.358 -16.608  0.00  0.00    +0.099 C 
BRANCH   4  11
ATOM      8  N   UNL     1      34.892 -19.558 -21.643  0.00  0.00    -0.280 N 
ATOM      9  N   UNL     1      33.782 -20.218 -21.257  0.00  0.00    -0.173 NA
ATOM     10  C   UNL     1      35.549 -20.632 -19.890  0.00  0.00    +0.032 A 
ATOM     11  C   UNL     1      35.558 -22.004 -18.030  0.00  0.00    +0.002 C 
ATOM     12  C   UNL     1      34.156 -20.901 -20.162  0.00  0.00    +0.102 A 
ATOM     13  C   UNL     1      36.317 -21.141 -18.851  0.00  0.00    +0.003 C 
ATOM     14  C   UNL     1      35.985 -19.770 -20.856  0.00  0.00    +0.053 A 
ATOM     15  C   UNL     1      34.174 -22.300 -18.263  0.00  0.00    +0.002 C 
ATOM     16  C   UNL     1      33.420 -21.765 -19.330  0.00  0.00    +0.021 C 
ATOM     17  C   UNL     1      37.283 -19.131 -21.132  0.00  0.00    +0.051 C 
ATOM     18  H   UNL     1      34.911 -18.968 -22.431  0.00  0.00    +0.189 HD
ENDBRANCH   4  11
ENDBRANCH   1   3
BRANCH   1  19
ATOM     19  C   UNL     1      34.113 -24.964 -14.239  0.00  0.00    +0.184 C 
BRANCH  19  20
ATOM     20  C   UNL     1      33.459 -24.471 -12.942  0.00  0.00    -0.017 C 
BRANCH  20  21
ATOM     21  N   UNL     1      34.452 -23.708 -12.176  0.00  0.00    +0.384 N 
ATOM     22  H   UNL     1      35.007 -24.348 -11.608  0.00  0.00    -0.089 HD
ATOM     23  H   UNL     1      33.975 -23.041 -11.570  0.00  0.00    -0.089 HD
ATOM     24  H   UNL     1      35.064 -23.206 -12.819  0.00  0.00    -0.089 HD
ENDBRANCH  20  21
BRANCH  20  25
ATOM     25  C   UNL     1      32.203 -23.590 -13.176  0.00  0.00    +0.009 C 
BRANCH  25  27
ATOM     26  N   UNL     1      29.454 -25.882 -13.896  0.00  0.00    -0.312 N 
ATOM     27  C   UNL     1      31.021 -24.328 -13.668  0.00  0.00    -0.008 C 
ATOM     28  C   UNL     1      30.153 -23.932 -14.723  0.00  0.00    +0.011 C 
ATOM     29  C   UNL     1      29.179 -24.925 -14.846  0.00  0.00    +0.048 C 
ATOM     30  C   UNL     1      30.566 -25.532 -13.179  0.00  0.00    +0.058 C 
ATOM     31  C   UNL     1      30.102 -22.821 -15.587  0.00  0.00    +0.001 C 
ATOM     32  C   UNL     1      28.151 -24.861 -15.795  0.00  0.00    +0.015 C 
ATOM     33  C   UNL     1      29.081 -22.744 -16.541  0.00  0.00    +0.000 C 
ATOM     34  C   UNL     1      28.121 -23.749 -16.641  0.00  0.00    +0.001 C 
ATOM     35  H   UNL     1      28.928 -26.702 -13.754  0.00  0.00    +0.152 HD
ENDBRANCH  25  27
ENDBRANCH  20  25
ENDBRANCH  19  20
ENDBRANCH   1  19
TORSDOF 7
ENDMDL
MODEL 9
REMARK VINA RESULT:     -11.2      6.364     11.132
REMARK  Name = 10172943
REMARK  7 active torsions:
REMARK  status: ('A' for Active; 'I' for Inactive)
REMARK    1  A    between atoms: O_1  and  C_3
REMARK    2  A    between atoms: O_1  and  C_19
REMARK    3  A    between atoms: C_4  and  C_11
REMARK    4  A    between atoms: C_19  and  C_20
REMARK    5  A    between atoms: C_20  and  N_21
REMARK    6  A    between atoms: C_20  and  C_25
REMARK    7  A    between atoms: C_25  and  C_27
REMARK                            x       y       z     vdW  Elec       q    Type
REMARK                         _______ _______ _______ _____ _____    ______ ____
ROOT
ATOM      1  O   UNL     1      31.581 -12.462 -20.808  0.00  0.00    -0.476 OA
ENDROOT
BRANCH   1   3
ATOM      2  N   UNL     1      32.042  -9.528 -18.697  0.00  0.00    -0.239 NA
ATOM      3  C   UNL     1      31.701 -11.147 -20.442  0.00  0.00    +0.158 C 
ATOM      4  C   UNL     1      31.742  -8.819 -20.989  0.00  0.00    +0.022 C 
ATOM      5  C   UNL     1      31.614 -10.144 -21.390  0.00  0.00    +0.040 C 
ATOM      6  C   UNL     1      31.913 -10.803 -19.125  0.00  0.00    +0.136 C 
ATOM      7  C   UNL     1      31.952  -8.565 -19.643  0.00  0.00    +0.099 C 
BRANCH   4  11
ATOM      8  N   UNL     1      31.563  -3.673 -23.657  0.00  0.00    -0.280 N 
ATOM      9  N   UNL     1      31.430  -4.630 -24.597  0.00  0.00    -0.173 NA
ATOM     10  C   UNL     1      31.650  -5.499 -22.510  0.00  0.00    +0.032 A 
ATOM     11  C   UNL     1      31.658  -7.740 -21.946  0.00  0.00    +0.002 C 
ATOM     12  C   UNL     1      31.479  -5.787 -23.914  0.00  0.00    +0.102 A 
ATOM     13  C   UNL     1      31.747  -6.414 -21.469  0.00  0.00    +0.003 C 
ATOM     14  C   UNL     1      31.700  -4.140 -22.383  0.00  0.00    +0.053 A 
ATOM     15  C   UNL     1      31.489  -8.072 -23.331  0.00  0.00    +0.002 C 
ATOM     16  C   UNL     1      31.393  -7.116 -24.367  0.00  0.00    +0.021 C 
ATOM     17  C   UNL     1      31.858  -3.234 -21.233  0.00  0.00    +0.051 C 
ATOM     18  H   UNL     1      31.562  -2.713 -23.874  0.00  0.00    +0.189 HD
ENDBRANCH   4  11
ENDBRANCH   1   3
BRANCH   1  19
ATOM     19  C   UNL     1      32.772 -13.237 -20.814  0.00  0.00    +0.184 C 
BRANCH  19  20
ATOM     20  C   UNL     1      33.113 -13.749 -22.220  0.00  0.00    -0.017 C 
BRANCH  20  21
ATOM     21  N   UNL     1      33.043 -12.623 -23.159  0.00  0.00    +0.384 N 
ATOM     22  H   UNL     1      33.353 -11.771 -22.691  0.00  0.00    -0.089 HD
ATOM     23  H   UNL     1      32.081 -12.506 -23.477  0.00  0.00    -0.089 HD
ATOM     24  H   UNL     1      33.645 -12.811 -23.960  0.00  0.00    -0.089 HD
ENDBRANCH  20  21
BRANCH  20  25
ATOM     25  C   UNL     1      34.512 -14.414 -22.317  0.00  0.00    +0.009 C 
BRANCH  25  27
ATOM     26  N   UNL     1      34.358 -17.220 -24.648  0.00  0.00    -0.312 N 
ATOM     27  C   UNL     1      34.527 -15.704 -23.035  0.00  0.00    -0.008 C 
ATOM     28  C   UNL     1      34.845 -16.977 -22.485  0.00  0.00    +0.011 C 
ATOM     29  C   UNL     1      34.731 -17.910 -23.518  0.00  0.00    +0.048 C 
ATOM     30  C   UNL     1      34.231 -15.886 -24.367  0.00  0.00    +0.058 C 
ATOM     31  C   UNL     1      35.221 -17.426 -21.204  0.00  0.00    +0.001 C 
ATOM     32  C   UNL     1      34.976 -19.276 -23.332  0.00  0.00    +0.015 C 
ATOM     33  C   UNL     1      35.469 -18.789 -21.003  0.00  0.00    +0.000 C 
ATOM     34  C   UNL     1      35.348 -19.698 -22.053  0.00  0.00    +0.001 C 
ATOM     35  H   UNL     1      34.203 -17.627 -25.531  0.00  0.00    +0.152 HD
ENDBRANCH  25  27
ENDBRANCH  20  25
ENDBRANCH  19  20
ENDBRANCH   1  19
TORSDOF 7
ENDMDL
