MODEL 1
REMARK VINA RESULT:     -11.6      0.000      0.000
REMARK  Name = 444581
REMARK  5 active torsions:
REMARK  status: ('A' for Active; 'I' for Inactive)
REMARK    1  A    between atoms: N_2  and  C_7
REMARK    2  A    between atoms: N_3  and  C_20
REMARK    3  A    between atoms: C_8  and  O_13
REMARK    4  A    between atoms: O_13  and  C_14
REMARK    5  A    between atoms: C_21  and  C_28
REMARK                            x       y       z     vdW  Elec       q    Type
REMARK                         _______ _______ _______ _____ _____    ______ ____
ROOT
ATOM      1  O   UNL     1      35.522 -22.520 -18.531  0.00  0.00    -0.252 OA
ATOM      2  N   UNL     1      36.787 -20.566 -18.759  0.00  0.00    -0.268 N 
ATOM      3  N   UNL     1      37.060 -21.885 -16.883  0.00  0.00    -0.268 N 
ATOM      4  C   UNL     1      36.366 -21.737 -18.107  0.00  0.00    +0.308 C 
ATOM      5  H   UNL     1      37.474 -20.037 -18.293  0.00  0.00    +0.156 HD
ATOM      6  H   UNL     1      37.711 -21.178 -16.671  0.00  0.00    +0.156 HD
ENDROOT
BRANCH   2   7
ATOM      7  C   UNL     1      36.345 -20.053 -20.001  0.00  0.00    +0.052 C 
ATOM      8  C   UNL     1      35.477 -19.048 -22.432  0.00  0.00    +0.145 C 
ATOM      9  C   UNL     1      37.212 -19.295 -20.769  0.00  0.00    +0.018 C 
ATOM     10  C   UNL     1      35.053 -20.319 -20.422  0.00  0.00    +0.018 C 
ATOM     11  C   UNL     1      36.776 -18.789 -21.993  0.00  0.00    +0.039 C 
ATOM     12  C   UNL     1      34.616 -19.814 -21.647  0.00  0.00    +0.039 C 
BRANCH   8  13
ATOM     13  O   UNL     1      35.052 -18.555 -23.627  0.00  0.00    -0.453 OA
BRANCH  13  14
ATOM     14  C   UNL     1      34.666 -17.226 -23.675  0.00  0.00    +0.145 C 
ATOM     15  C   UNL     1      34.960 -16.401 -22.606  0.00  0.00    +0.037 C 
ATOM     16  C   UNL     1      33.997 -16.760 -24.792  0.00  0.00    +0.037 C 
ATOM     17  C   UNL     1      34.571 -15.062 -22.654  0.00  0.00    +0.003 C 
ATOM     18  C   UNL     1      33.608 -15.421 -24.840  0.00  0.00    +0.003 C 
ATOM     19  C   UNL     1      33.895 -14.572 -23.770  0.00  0.00    +0.000 C 
ENDBRANCH  13  14
ENDBRANCH   8  13
ENDBRANCH   2   7
BRANCH   3  20
ATOM     20  C   UNL     1      36.945 -22.903 -15.934  0.00  0.00    +0.052 C 
ATOM     21  C   UNL     1      36.717 -24.934 -14.036  0.00  0.00    +0.031 C 
ATOM     22  C   UNL     1      38.089 -23.537 -15.450  0.00  0.00    +0.015 C 
ATOM     23  C   UNL     1      35.687 -23.284 -15.469  0.00  0.00    +0.015 C 
ATOM     24  C   UNL     1      37.975 -24.553 -14.501  0.00  0.00    +0.004 C 
ATOM     25  C   UNL     1      35.572 -24.299 -14.520  0.00  0.00    +0.004 C 
BRANCH  21  28
ATOM     26  N   UNL     1      37.101 -27.270 -13.286  0.00  0.00    -0.343 N 
ATOM     27  N   UNL     1      35.995 -25.753 -11.895  0.00  0.00    -0.285 NA
ATOM     28  C   UNL     1      36.596 -25.993 -13.046  0.00  0.00    +0.117 C 
ATOM     29  H   UNL     1      37.010 -27.971 -12.602  0.00  0.00    +0.144 HD
ATOM     30  H   UNL     1      37.550 -27.469 -14.139  0.00  0.00    +0.144 HD
ATOM     31  H   UNL     1      35.912 -26.468 -11.224  0.00  0.00    +0.188 HD
ENDBRANCH  21  28
ENDBRANCH   3  20
TORSDOF 5
ENDMDL
MODEL 2
REMARK VINA RESULT:     -11.3      6.012     12.203
REMARK  Name = 444581
REMARK  5 active torsions:
REMARK  status: ('A' for Active; 'I' for Inactive)
REMARK    1  A    between atoms: N_2  and  C_7
REMARK    2  A    between atoms: N_3  and  C_20
REMARK    3  A    between atoms: C_8  and  O_13
REMARK    4  A    between atoms: O_13  and  C_14
REMARK    5  A    between atoms: C_21  and  C_28
REMARK                            x       y       z     vdW  Elec       q    Type
REMARK                         _______ _______ _______ _____ _____    ______ ____
ROOT
ATOM      1  O   UNL     1      33.795 -13.562 -21.308  0.00  0.00    -0.252 OA
ATOM      2  N   UNL     1      34.187 -14.723 -23.300  0.00  0.00    -0.268 N 
ATOM      3  N   UNL     1      33.430 -12.542 -23.385  0.00  0.00    -0.268 N 
ATOM      4  C   UNL     1      33.805 -13.609 -22.534  0.00  0.00    +0.308 C 
ATOM      5  H   UNL     1      34.143 -14.609 -24.277  0.00  0.00    +0.156 HD
ATOM      6  H   UNL     1      33.489 -12.724 -24.350  0.00  0.00    +0.156 HD
ENDROOT
BRANCH   2   7
ATOM      7  C   UNL     1      34.628 -15.986 -22.841  0.00  0.00    +0.052 C 
ATOM      8  C   UNL     1      35.489 -18.460 -21.940  0.00  0.00    +0.145 C 
ATOM      9  C   UNL     1      34.722 -17.038 -23.736  0.00  0.00    +0.018 C 
ATOM     10  C   UNL     1      34.955 -16.145 -21.504  0.00  0.00    +0.018 C 
ATOM     11  C   UNL     1      35.155 -18.284 -23.283  0.00  0.00    +0.039 C 
ATOM     12  C   UNL     1      35.389 -17.390 -21.050  0.00  0.00    +0.039 C 
BRANCH   8  13
ATOM     13  O   UNL     1      35.913 -19.676 -21.498  0.00  0.00    -0.453 OA
BRANCH  13  14
ATOM     14  C   UNL     1      35.066 -20.391 -20.669  0.00  0.00    +0.145 C 
ATOM     15  C   UNL     1      35.603 -21.316 -19.793  0.00  0.00    +0.037 C 
ATOM     16  C   UNL     1      33.704 -20.160 -20.739  0.00  0.00    +0.037 C 
ATOM     17  C   UNL     1      34.749 -22.037 -18.958  0.00  0.00    +0.003 C 
ATOM     18  C   UNL     1      32.850 -20.881 -19.904  0.00  0.00    +0.003 C 
ATOM     19  C   UNL     1      33.372 -21.820 -19.013  0.00  0.00    +0.000 C 
ENDBRANCH  13  14
ENDBRANCH   8  13
ENDBRANCH   2   7
BRANCH   3  20
ATOM     20  C   UNL     1      32.989 -11.265 -23.037  0.00  0.00    +0.052 C 
ATOM     21  C   UNL     1      32.106  -8.712 -22.339  0.00  0.00    +0.031 C 
ATOM     22  C   UNL     1      31.754 -11.101 -22.410  0.00  0.00    +0.015 C 
ATOM     23  C   UNL     1      33.783 -10.152 -23.315  0.00  0.00    +0.015 C 
ATOM     24  C   UNL     1      31.312  -9.824 -22.062  0.00  0.00    +0.004 C 
ATOM     25  C   UNL     1      33.342  -8.876 -22.966  0.00  0.00    +0.004 C 
BRANCH  21  28
ATOM     26  N   UNL     1      31.207  -6.477 -22.941  0.00  0.00    -0.343 N 
ATOM     27  N   UNL     1      31.647  -7.008 -20.708  0.00  0.00    -0.285 NA
ATOM     28  C   UNL     1      31.647  -7.381 -21.975  0.00  0.00    +0.117 C 
ATOM     29  H   UNL     1      30.900  -5.581 -22.672  0.00  0.00    +0.144 HD
ATOM     30  H   UNL     1      31.203  -6.735 -23.890  0.00  0.00    +0.144 HD
ATOM     31  H   UNL     1      31.337  -6.108 -20.459  0.00  0.00    +0.188 HD
ENDBRANCH  21  28
ENDBRANCH   3  20
TORSDOF 5
ENDMDL
MODEL 3
REMARK VINA RESULT:     -11.2      7.104     13.579
REMARK  Name = 444581
REMARK  5 active torsions:
REMARK  status: ('A' for Active; 'I' for Inactive)
REMARK    1  A    between atoms: N_2  and  C_7
REMARK    2  A    between atoms: N_3  and  C_20
REMARK    3  A    between atoms: C_8  and  O_13
REMARK    4  A    between atoms: O_13  and  C_14
REMARK    5  A    between atoms: C_21  and  C_28
REMARK                            x       y       z     vdW  Elec       q    Type
REMARK                         _______ _______ _______ _____ _____    ______ ____
ROOT
ATOM      1  O   UNL     1      34.046 -11.275 -23.450  0.00  0.00    -0.252 OA
ATOM      2  N   UNL     1      32.571 -12.943 -22.735  0.00  0.00    -0.268 N 
ATOM      3  N   UNL     1      31.903 -10.732 -22.675  0.00  0.00    -0.268 N 
ATOM      4  C   UNL     1      32.958 -11.619 -23.001  0.00  0.00    +0.308 C 
ATOM      5  H   UNL     1      31.663 -13.062 -22.374  0.00  0.00    +0.156 HD
ATOM      6  H   UNL     1      31.086 -11.152 -22.323  0.00  0.00    +0.156 HD
ENDROOT
BRANCH   2   7
ATOM      7  C   UNL     1      33.326 -14.125 -22.920  0.00  0.00    +0.052 C 
ATOM      8  C   UNL     1      34.807 -16.437 -23.283  0.00  0.00    +0.145 C 
ATOM      9  C   UNL     1      34.059 -14.634 -21.861  0.00  0.00    +0.018 C 
ATOM     10  C   UNL     1      33.318 -14.748 -24.156  0.00  0.00    +0.018 C 
ATOM     11  C   UNL     1      34.805 -15.798 -22.043  0.00  0.00    +0.039 C 
ATOM     12  C   UNL     1      34.063 -15.913 -24.340  0.00  0.00    +0.039 C 
BRANCH   8  13
ATOM     13  O   UNL     1      35.533 -17.575 -23.461  0.00  0.00    -0.453 OA
BRANCH  13  14
ATOM     14  C   UNL     1      35.560 -18.491 -22.423  0.00  0.00    +0.145 C 
ATOM     15  C   UNL     1      34.435 -19.252 -22.167  0.00  0.00    +0.037 C 
ATOM     16  C   UNL     1      36.712 -18.619 -21.668  0.00  0.00    +0.037 C 
ATOM     17  C   UNL     1      34.461 -20.174 -21.120  0.00  0.00    +0.003 C 
ATOM     18  C   UNL     1      36.739 -19.541 -20.622  0.00  0.00    +0.003 C 
ATOM     19  C   UNL     1      35.613 -20.319 -20.348  0.00  0.00    +0.000 C 
ENDBRANCH  13  14
ENDBRANCH   8  13
ENDBRANCH   2   7
BRANCH   3  20
ATOM     20  C   UNL     1      31.870  -9.342 -22.786  0.00  0.00    +0.052 C 
ATOM     21  C   UNL     1      31.805  -6.562 -23.006  0.00  0.00    +0.031 C 
ATOM     22  C   UNL     1      31.932  -8.550 -21.640  0.00  0.00    +0.015 C 
ATOM     23  C   UNL     1      31.776  -8.744 -24.042  0.00  0.00    +0.015 C 
ATOM     24  C   UNL     1      31.899  -7.159 -21.749  0.00  0.00    +0.004 C 
ATOM     25  C   UNL     1      31.743  -7.354 -24.153  0.00  0.00    +0.004 C 
BRANCH  21  28
ATOM     26  N   UNL     1      32.651  -4.432 -23.962  0.00  0.00    -0.343 N 
ATOM     27  N   UNL     1      30.897  -4.415 -22.419  0.00  0.00    -0.285 NA
ATOM     28  C   UNL     1      31.771  -5.112 -23.122  0.00  0.00    +0.117 C 
ATOM     29  H   UNL     1      32.611  -3.451 -24.025  0.00  0.00    +0.144 HD
ATOM     30  H   UNL     1      33.312  -4.933 -24.491  0.00  0.00    +0.144 HD
ATOM     31  H   UNL     1      30.872  -3.434 -22.495  0.00  0.00    +0.188 HD
ENDBRANCH  21  28
ENDBRANCH   3  20
TORSDOF 5
ENDMDL
MODEL 4
REMARK VINA RESULT:     -11.2      7.100     13.595
REMARK  Name = 444581
REMARK  5 active torsions:
REMARK  status: ('A' for Active; 'I' for Inactive)
REMARK    1  A    between atoms: N_2  and  C_7
REMARK    2  A    between atoms: N_3  and  C_20
REMARK    3  A    between atoms: C_8  and  O_13
REMARK    4  A    between atoms: O_13  and  C_14
REMARK    5  A    between atoms: C_21  and  C_28
REMARK                            x       y       z     vdW  Elec       q    Type
REMARK                         _______ _______ _______ _____ _____    ______ ____
ROOT
ATOM      1  O   UNL     1      34.046 -11.290 -23.490  0.00  0.00    -0.252 OA
ATOM      2  N   UNL     1      32.579 -12.954 -22.751  0.00  0.00    -0.268 N 
ATOM      3  N   UNL     1      31.907 -10.744 -22.709  0.00  0.00    -0.268 N 
ATOM      4  C   UNL     1      32.961 -11.632 -23.032  0.00  0.00    +0.308 C 
ATOM      5  H   UNL     1      31.672 -13.072 -22.385  0.00  0.00    +0.156 HD
ATOM      6  H   UNL     1      31.092 -11.162 -22.349  0.00  0.00    +0.156 HD
ENDROOT
BRANCH   2   7
ATOM      7  C   UNL     1      33.335 -14.136 -22.929  0.00  0.00    +0.052 C 
ATOM      8  C   UNL     1      34.815 -16.451 -23.277  0.00  0.00    +0.145 C 
ATOM      9  C   UNL     1      33.358 -14.746 -24.173  0.00  0.00    +0.018 C 
ATOM     10  C   UNL     1      34.037 -14.660 -21.857  0.00  0.00    +0.018 C 
ATOM     11  C   UNL     1      34.103 -15.911 -24.348  0.00  0.00    +0.039 C 
ATOM     12  C   UNL     1      34.783 -15.825 -22.031  0.00  0.00    +0.039 C 
BRANCH   8  13
ATOM     13  O   UNL     1      35.544 -17.588 -23.449  0.00  0.00    -0.453 OA
BRANCH  13  14
ATOM     14  C   UNL     1      35.554 -18.509 -22.415  0.00  0.00    +0.145 C 
ATOM     15  C   UNL     1      34.431 -19.284 -22.192  0.00  0.00    +0.037 C 
ATOM     16  C   UNL     1      36.687 -18.628 -21.631  0.00  0.00    +0.037 C 
ATOM     17  C   UNL     1      34.440 -20.211 -21.150  0.00  0.00    +0.003 C 
ATOM     18  C   UNL     1      36.697 -19.555 -20.589  0.00  0.00    +0.003 C 
ATOM     19  C   UNL     1      35.573 -20.347 -20.348  0.00  0.00    +0.000 C 
ENDBRANCH  13  14
ENDBRANCH   8  13
ENDBRANCH   2   7
BRANCH   3  20
ATOM     20  C   UNL     1      31.869  -9.355 -22.832  0.00  0.00    +0.052 C 
ATOM     21  C   UNL     1      31.792  -6.577 -23.080  0.00  0.00    +0.031 C 
ATOM     22  C   UNL     1      31.886  -8.767 -24.096  0.00  0.00    +0.015 C 
ATOM     23  C   UNL     1      31.814  -8.554 -21.691  0.00  0.00    +0.015 C 
ATOM     24  C   UNL     1      31.848  -7.378 -24.221  0.00  0.00    +0.004 C 
ATOM     25  C   UNL     1      31.775  -7.166 -21.815  0.00  0.00    +0.004 C 
BRANCH  21  28
ATOM     26  N   UNL     1      32.641  -4.450 -24.040  0.00  0.00    -0.343 N 
ATOM     27  N   UNL     1      30.862  -4.432 -22.526  0.00  0.00    -0.285 NA
ATOM     28  C   UNL     1      31.752  -5.129 -23.209  0.00  0.00    +0.117 C 
ATOM     29  H   UNL     1      32.595  -3.470 -24.113  0.00  0.00    +0.144 HD
ATOM     30  H   UNL     1      33.313  -4.952 -24.555  0.00  0.00    +0.144 HD
ATOM     31  H   UNL     1      30.832  -3.452 -22.610  0.00  0.00    +0.188 HD
ENDBRANCH  21  28
ENDBRANCH   3  20
TORSDOF 5
ENDMDL
MODEL 5
REMARK VINA RESULT:     -11.0      2.429      3.082
REMARK  Name = 444581
REMARK  5 active torsions:
REMARK  status: ('A' for Active; 'I' for Inactive)
REMARK    1  A    between atoms: N_2  and  C_7
REMARK    2  A    between atoms: N_3  and  C_20
REMARK    3  A    between atoms: C_8  and  O_13
REMARK    4  A    between atoms: O_13  and  C_14
REMARK    5  A    between atoms: C_21  and  C_28
REMARK                            x       y       z     vdW  Elec       q    Type
REMARK                         _______ _______ _______ _____ _____    ______ ____
ROOT
ATOM      1  O   UNL     1      33.005 -21.208 -19.041  0.00  0.00    -0.252 OA
ATOM      2  N   UNL     1      35.267 -21.104 -19.626  0.00  0.00    -0.268 N 
ATOM      3  N   UNL     1      34.612 -22.420 -17.843  0.00  0.00    -0.268 N 
ATOM      4  C   UNL     1      34.172 -21.538 -18.860  0.00  0.00    +0.308 C 
ATOM      5  H   UNL     1      36.146 -21.458 -19.359  0.00  0.00    +0.156 HD
ATOM      6  H   UNL     1      35.580 -22.595 -17.818  0.00  0.00    +0.156 HD
ENDROOT
BRANCH   2   7
ATOM      7  C   UNL     1      35.261 -20.222 -20.731  0.00  0.00    +0.052 C 
ATOM      8  C   UNL     1      35.249 -18.493 -22.895  0.00  0.00    +0.145 C 
ATOM      9  C   UNL     1      36.363 -19.415 -20.960  0.00  0.00    +0.018 C 
ATOM     10  C   UNL     1      34.154 -20.183 -21.562  0.00  0.00    +0.018 C 
ATOM     11  C   UNL     1      36.357 -18.544 -22.049  0.00  0.00    +0.039 C 
ATOM     12  C   UNL     1      34.147 -19.313 -22.652  0.00  0.00    +0.039 C 
BRANCH   8  13
ATOM     13  O   UNL     1      35.244 -17.645 -23.960  0.00  0.00    -0.453 OA
BRANCH  13  14
ATOM     14  C   UNL     1      34.635 -16.412 -23.797  0.00  0.00    +0.145 C 
ATOM     15  C   UNL     1      33.851 -15.907 -24.817  0.00  0.00    +0.037 C 
ATOM     16  C   UNL     1      34.829 -15.717 -22.616  0.00  0.00    +0.037 C 
ATOM     17  C   UNL     1      33.238 -14.665 -24.653  0.00  0.00    +0.003 C 
ATOM     18  C   UNL     1      34.216 -14.474 -22.452  0.00  0.00    +0.003 C 
ATOM     19  C   UNL     1      33.420 -13.948 -23.471  0.00  0.00    +0.000 C 
ENDBRANCH  13  14
ENDBRANCH   8  13
ENDBRANCH   2   7
BRANCH   3  20
ATOM     20  C   UNL     1      33.855 -23.074 -16.870  0.00  0.00    +0.052 C 
ATOM     21  C   UNL     1      32.342 -24.379 -14.923  0.00  0.00    +0.031 C 
ATOM     22  C   UNL     1      34.482 -23.631 -15.757  0.00  0.00    +0.015 C 
ATOM     23  C   UNL     1      32.470 -23.168 -17.011  0.00  0.00    +0.015 C 
ATOM     24  C   UNL     1      33.726 -24.284 -14.783  0.00  0.00    +0.004 C 
ATOM     25  C   UNL     1      31.714 -23.821 -16.038  0.00  0.00    +0.004 C 
BRANCH  21  28
ATOM     26  N   UNL     1      30.181 -25.250 -14.066  0.00  0.00    -0.343 N 
ATOM     27  N   UNL     1      32.135 -25.504 -12.810  0.00  0.00    -0.285 NA
ATOM     28  C   UNL     1      31.552 -25.059 -13.908  0.00  0.00    +0.117 C 
ATOM     29  H   UNL     1      29.666 -25.713 -13.367  0.00  0.00    +0.144 HD
ATOM     30  H   UNL     1      29.728 -24.923 -14.876  0.00  0.00    +0.144 HD
ATOM     31  H   UNL     1      31.603 -25.965 -12.122  0.00  0.00    +0.188 HD
ENDBRANCH  21  28
ENDBRANCH   3  20
TORSDOF 5
ENDMDL
MODEL 6
REMARK VINA RESULT:     -11.0      1.472      2.322
REMARK  Name = 444581
REMARK  5 active torsions:
REMARK  status: ('A' for Active; 'I' for Inactive)
REMARK    1  A    between atoms: N_2  and  C_7
REMARK    2  A    between atoms: N_3  and  C_20
REMARK    3  A    between atoms: C_8  and  O_13
REMARK    4  A    between atoms: O_13  and  C_14
REMARK    5  A    between atoms: C_21  and  C_28
REMARK                            x       y       z     vdW  Elec       q    Type
REMARK                         _______ _______ _______ _____ _____    ______ ____
ROOT
ATOM      1  O   UNL     1      36.327 -21.641 -16.795  0.00  0.00    -0.252 OA
ATOM      2  N   UNL     1      34.820 -22.220 -18.487  0.00  0.00    -0.268 N 
ATOM      3  N   UNL     1      34.877 -23.463 -16.540  0.00  0.00    -0.268 N 
ATOM      4  C   UNL     1      35.436 -22.362 -17.233  0.00  0.00    +0.308 C 
ATOM      5  H   UNL     1      34.118 -22.878 -18.698  0.00  0.00    +0.156 HD
ATOM      6  H   UNL     1      34.168 -23.952 -17.016  0.00  0.00    +0.156 HD
ENDROOT
BRANCH   2   7
ATOM      7  C   UNL     1      35.083 -21.251 -19.482  0.00  0.00    +0.052 C 
ATOM      8  C   UNL     1      35.600 -19.350 -21.430  0.00  0.00    +0.145 C 
ATOM      9  C   UNL     1      36.385 -20.822 -19.683  0.00  0.00    +0.018 C 
ATOM     10  C   UNL     1      34.035 -20.750 -20.235  0.00  0.00    +0.018 C 
ATOM     11  C   UNL     1      36.645 -19.865 -20.663  0.00  0.00    +0.039 C 
ATOM     12  C   UNL     1      34.294 -19.793 -21.217  0.00  0.00    +0.039 C 
BRANCH   8  13
ATOM     13  O   UNL     1      35.854 -18.418 -22.389  0.00  0.00    -0.453 OA
BRANCH  13  14
ATOM     14  C   UNL     1      35.297 -17.160 -22.227  0.00  0.00    +0.145 C 
ATOM     15  C   UNL     1      34.940 -16.432 -23.346  0.00  0.00    +0.037 C 
ATOM     16  C   UNL     1      35.113 -16.666 -20.948  0.00  0.00    +0.037 C 
ATOM     17  C   UNL     1      34.379 -15.165 -23.183  0.00  0.00    +0.003 C 
ATOM     18  C   UNL     1      34.552 -15.399 -20.785  0.00  0.00    +0.003 C 
ATOM     19  C   UNL     1      34.185 -14.648 -21.903  0.00  0.00    +0.000 C 
ENDBRANCH  13  14
ENDBRANCH   8  13
ENDBRANCH   2   7
BRANCH   3  20
ATOM     20  C   UNL     1      35.199 -23.949 -15.272  0.00  0.00    +0.052 C 
ATOM     21  C   UNL     1      35.841 -24.922 -12.738  0.00  0.00    +0.031 C 
ATOM     22  C   UNL     1      34.239 -23.948 -14.261  0.00  0.00    +0.015 C 
ATOM     23  C   UNL     1      36.480 -24.437 -15.017  0.00  0.00    +0.015 C 
ATOM     24  C   UNL     1      34.559 -24.434 -12.993  0.00  0.00    +0.004 C 
ATOM     25  C   UNL     1      36.802 -24.924 -13.750  0.00  0.00    +0.004 C 
BRANCH  21  28
ATOM     26  N   UNL     1      35.860 -24.714 -10.263  0.00  0.00    -0.343 N 
ATOM     27  N   UNL     1      36.796 -26.590 -11.295  0.00  0.00    -0.285 NA
ATOM     28  C   UNL     1      36.176 -25.430 -11.417  0.00  0.00    +0.117 C 
ATOM     29  H   UNL     1      36.095 -25.077  -9.380  0.00  0.00    +0.144 HD
ATOM     30  H   UNL     1      35.401 -23.847 -10.334  0.00  0.00    +0.144 HD
ATOM     31  H   UNL     1      37.024 -26.936 -10.403  0.00  0.00    +0.188 HD
ENDBRANCH  21  28
ENDBRANCH   3  20
TORSDOF 5
ENDMDL
MODEL 7
REMARK VINA RESULT:     -10.9      3.582     10.598
REMARK  Name = 444581
REMARK  5 active torsions:
REMARK  status: ('A' for Active; 'I' for Inactive)
REMARK    1  A    between atoms: N_2  and  C_7
REMARK    2  A    between atoms: N_3  and  C_20
REMARK    3  A    between atoms: C_8  and  O_13
REMARK    4  A    between atoms: O_13  and  C_14
REMARK    5  A    between atoms: C_21  and  C_28
REMARK                            x       y       z     vdW  Elec       q    Type
REMARK                         _______ _______ _______ _____ _____    ______ ____
ROOT
ATOM      1  O   UNL     1      33.779 -19.394 -20.328  0.00  0.00    -0.252 OA
ATOM      2  N   UNL     1      35.729 -20.676 -20.172  0.00  0.00    -0.268 N 
ATOM      3  N   UNL     1      35.590 -19.007 -21.763  0.00  0.00    -0.268 N 
ATOM      4  C   UNL     1      34.912 -19.668 -20.710  0.00  0.00    +0.308 C 
ATOM      5  H   UNL     1      36.617 -20.777 -20.585  0.00  0.00    +0.156 HD
ATOM      6  H   UNL     1      36.496 -19.335 -21.959  0.00  0.00    +0.156 HD
ENDROOT
BRANCH   2   7
ATOM      7  C   UNL     1      35.432 -21.564 -19.111  0.00  0.00    +0.052 C 
ATOM      8  C   UNL     1      34.849 -23.300 -17.033  0.00  0.00    +0.145 C 
ATOM      9  C   UNL     1      34.265 -22.308 -19.157  0.00  0.00    +0.018 C 
ATOM     10  C   UNL     1      36.314 -21.669 -18.049  0.00  0.00    +0.018 C 
ATOM     11  C   UNL     1      33.971 -23.182 -18.110  0.00  0.00    +0.039 C 
ATOM     12  C   UNL     1      36.021 -22.544 -17.002  0.00  0.00    +0.039 C 
BRANCH   8  13
ATOM     13  O   UNL     1      34.564 -24.155 -16.012  0.00  0.00    -0.453 OA
BRANCH  13  14
ATOM     14  C   UNL     1      33.420 -23.911 -15.270  0.00  0.00    +0.145 C 
ATOM     15  C   UNL     1      33.454 -24.096 -13.901  0.00  0.00    +0.037 C 
ATOM     16  C   UNL     1      32.274 -23.489 -15.920  0.00  0.00    +0.037 C 
ATOM     17  C   UNL     1      32.302 -23.852 -13.153  0.00  0.00    +0.003 C 
ATOM     18  C   UNL     1      31.122 -23.244 -15.172  0.00  0.00    +0.003 C 
ATOM     19  C   UNL     1      31.136 -23.426 -13.788  0.00  0.00    +0.000 C 
ENDBRANCH  13  14
ENDBRANCH   8  13
ENDBRANCH   2   7
BRANCH   3  20
ATOM     20  C   UNL     1      35.142 -17.953 -22.560  0.00  0.00    +0.052 C 
ATOM     21  C   UNL     1      34.250 -15.844 -24.153  0.00  0.00    +0.031 C 
ATOM     22  C   UNL     1      35.189 -16.645 -22.077  0.00  0.00    +0.015 C 
ATOM     23  C   UNL     1      34.650 -18.206 -23.840  0.00  0.00    +0.015 C 
ATOM     24  C   UNL     1      34.743 -15.590 -22.873  0.00  0.00    +0.004 C 
ATOM     25  C   UNL     1      34.203 -17.152 -24.637  0.00  0.00    +0.004 C 
BRANCH  21  28
ATOM     26  N   UNL     1      33.561 -13.477 -24.451  0.00  0.00    -0.343 N 
ATOM     27  N   UNL     1      33.564 -14.941 -26.272  0.00  0.00    -0.285 NA
ATOM     28  C   UNL     1      33.785 -14.745 -24.985  0.00  0.00    +0.117 C 
ATOM     29  H   UNL     1      33.247 -12.747 -25.032  0.00  0.00    +0.144 HD
ATOM     30  H   UNL     1      33.717 -13.312 -23.494  0.00  0.00    +0.144 HD
ATOM     31  H   UNL     1      33.249 -14.199 -26.837  0.00  0.00    +0.188 HD
ENDBRANCH  21  28
ENDBRANCH   3  20
TORSDOF 5
ENDMDL
MODEL 8
REMARK VINA RESULT:     -10.8      2.048      2.821
REMARK  Name = 444581
REMARK  5 active torsions:
REMARK  status: ('A' for Active; 'I' for Inactive)
REMARK    1  A    between atoms: N_2  and  C_7
REMARK    2  A    between atoms: N_3  and  C_20
REMARK    3  A    between atoms: C_8  and  O_13
REMARK    4  A    between atoms: O_13  and  C_14
REMARK    5  A    between atoms: C_21  and  C_28
REMARK                            x       y       z     vdW  Elec       q    Type
REMARK                         _______ _______ _______ _____ _____    ______ ____
ROOT
ATOM      1  O   UNL     1      33.527 -20.445 -19.814  0.00  0.00    -0.252 OA
ATOM      2  N   UNL     1      35.504 -20.351 -21.059  0.00  0.00    -0.268 N 
ATOM      3  N   UNL     1      35.395 -21.717 -19.198  0.00  0.00    -0.268 N 
ATOM      4  C   UNL     1      34.686 -20.796 -20.007  0.00  0.00    +0.308 C 
ATOM      5  H   UNL     1      36.415 -20.725 -21.083  0.00  0.00    +0.156 HD
ATOM      6  H   UNL     1      36.320 -21.905 -19.475  0.00  0.00    +0.156 HD
ENDROOT
BRANCH   2   7
ATOM      7  C   UNL     1      35.181 -19.433 -22.085  0.00  0.00    +0.052 C 
ATOM      8  C   UNL     1      34.546 -17.635 -24.094  0.00  0.00    +0.145 C 
ATOM      9  C   UNL     1      35.663 -18.137 -22.011  0.00  0.00    +0.018 C 
ATOM     10  C   UNL     1      34.389 -19.849 -23.142  0.00  0.00    +0.018 C 
ATOM     11  C   UNL     1      35.344 -17.231 -23.023  0.00  0.00    +0.039 C 
ATOM     12  C   UNL     1      34.069 -18.944 -24.154  0.00  0.00    +0.039 C 
BRANCH   8  13
ATOM     13  O   UNL     1      34.236 -16.751 -25.082  0.00  0.00    -0.453 OA
BRANCH  13  14
ATOM     14  C   UNL     1      33.981 -15.440 -24.716  0.00  0.00    +0.145 C 
ATOM     15  C   UNL     1      34.238 -15.041 -23.418  0.00  0.00    +0.037 C 
ATOM     16  C   UNL     1      33.475 -14.565 -25.660  0.00  0.00    +0.037 C 
ATOM     17  C   UNL     1      33.981 -13.720 -23.049  0.00  0.00    +0.003 C 
ATOM     18  C   UNL     1      33.218 -13.244 -25.291  0.00  0.00    +0.003 C 
ATOM     19  C   UNL     1      33.471 -12.822 -23.985  0.00  0.00    +0.000 C 
ENDBRANCH  13  14
ENDBRANCH   8  13
ENDBRANCH   2   7
BRANCH   3  20
ATOM     20  C   UNL     1      34.956 -22.393 -18.059  0.00  0.00    +0.052 C 
ATOM     21  C   UNL     1      34.080 -23.741 -15.780  0.00  0.00    +0.031 C 
ATOM     22  C   UNL     1      35.803 -22.526 -16.959  0.00  0.00    +0.015 C 
ATOM     23  C   UNL     1      33.671 -22.933 -18.020  0.00  0.00    +0.015 C 
ATOM     24  C   UNL     1      35.365 -23.201 -15.819  0.00  0.00    +0.004 C 
ATOM     25  C   UNL     1      33.233 -23.608 -16.881  0.00  0.00    +0.004 C 
BRANCH  21  28
ATOM     26  N   UNL     1      34.449 -25.340 -13.915  0.00  0.00    -0.343 N 
ATOM     27  N   UNL     1      32.399 -24.242 -14.137  0.00  0.00    -0.285 NA
ATOM     28  C   UNL     1      33.622 -24.444 -14.591  0.00  0.00    +0.117 C 
ATOM     29  H   UNL     1      34.119 -25.804 -13.113  0.00  0.00    +0.144 HD
ATOM     30  H   UNL     1      35.363 -25.506 -14.240  0.00  0.00    +0.144 HD
ATOM     31  H   UNL     1      32.086 -24.716 -13.334  0.00  0.00    +0.188 HD
ENDBRANCH  21  28
ENDBRANCH   3  20
TORSDOF 5
ENDMDL
MODEL 9
REMARK VINA RESULT:     -10.7      3.043     10.894
REMARK  Name = 444581
REMARK  5 active torsions:
REMARK  status: ('A' for Active; 'I' for Inactive)
REMARK    1  A    between atoms: N_2  and  C_7
REMARK    2  A    between atoms: N_3  and  C_20
REMARK    3  A    between atoms: C_8  and  O_13
REMARK    4  A    between atoms: O_13  and  C_14
REMARK    5  A    between atoms: C_21  and  C_28
REMARK                            x       y       z     vdW  Elec       q    Type
REMARK                         _______ _______ _______ _____ _____    ______ ____
ROOT
ATOM      1  O   UNL     1      33.717 -19.855 -19.839  0.00  0.00    -0.252 OA
ATOM      2  N   UNL     1      35.538 -21.316 -19.690  0.00  0.00    -0.268 N 
ATOM      3  N   UNL     1      35.492 -19.720 -21.361  0.00  0.00    -0.268 N 
ATOM      4  C   UNL     1      34.800 -20.259 -20.249  0.00  0.00    +0.308 C 
ATOM      5  H   UNL     1      36.393 -21.524 -20.131  0.00  0.00    +0.156 HD
ATOM      6  H   UNL     1      36.353 -20.146 -21.575  0.00  0.00    +0.156 HD
ENDROOT
BRANCH   2   7
ATOM      7  C   UNL     1      35.202 -22.116 -18.574  0.00  0.00    +0.052 C 
ATOM      8  C   UNL     1      34.546 -23.686 -16.388  0.00  0.00    +0.145 C 
ATOM      9  C   UNL     1      36.071 -22.176 -17.497  0.00  0.00    +0.018 C 
ATOM     10  C   UNL     1      34.013 -22.825 -18.581  0.00  0.00    +0.018 C 
ATOM     11  C   UNL     1      35.741 -22.966 -16.396  0.00  0.00    +0.039 C 
ATOM     12  C   UNL     1      33.681 -23.616 -17.480  0.00  0.00    +0.039 C 
BRANCH   8  13
ATOM     13  O   UNL     1      34.223 -24.457 -15.313  0.00  0.00    -0.453 OA
BRANCH  13  14
ATOM     14  C   UNL     1      35.261 -24.980 -14.562  0.00  0.00    +0.145 C 
ATOM     15  C   UNL     1      35.900 -26.125 -15.000  0.00  0.00    +0.037 C 
ATOM     16  C   UNL     1      35.631 -24.344 -13.390  0.00  0.00    +0.037 C 
ATOM     17  C   UNL     1      36.946 -26.653 -14.243  0.00  0.00    +0.003 C 
ATOM     18  C   UNL     1      36.677 -24.872 -12.633  0.00  0.00    +0.003 C 
ATOM     19  C   UNL     1      37.334 -26.027 -13.059  0.00  0.00    +0.000 C 
ENDBRANCH  13  14
ENDBRANCH   8  13
ENDBRANCH   2   7
BRANCH   3  20
ATOM     20  C   UNL     1      35.115 -18.667 -22.195  0.00  0.00    +0.052 C 
ATOM     21  C   UNL     1      34.364 -16.560 -23.862  0.00  0.00    +0.031 C 
ATOM     22  C   UNL     1      35.289 -17.349 -21.775  0.00  0.00    +0.015 C 
ATOM     23  C   UNL     1      34.566 -18.932 -23.449  0.00  0.00    +0.015 C 
ATOM     24  C   UNL     1      34.913 -16.295 -22.608  0.00  0.00    +0.004 C 
ATOM     25  C   UNL     1      34.190 -17.880 -24.283  0.00  0.00    +0.004 C 
BRANCH  21  28
ATOM     26  N   UNL     1      34.062 -14.137 -24.311  0.00  0.00    -0.343 N 
ATOM     27  N   UNL     1      33.516 -15.715 -25.945  0.00  0.00    -0.285 NA
ATOM     28  C   UNL     1      33.972 -15.462 -24.732  0.00  0.00    +0.117 C 
ATOM     29  H   UNL     1      33.793 -13.409 -24.917  0.00  0.00    +0.144 HD
ATOM     30  H   UNL     1      34.397 -13.929 -23.410  0.00  0.00    +0.144 HD
ATOM     31  H   UNL     1      33.250 -14.974 -26.536  0.00  0.00    +0.188 HD
ENDBRANCH  21  28
ENDBRANCH   3  20
TORSDOF 5
ENDMDL
