MODEL 1
REMARK VINA RESULT:     -11.7      0.000      0.000
REMARK  Name = 25147644
REMARK  4 active torsions:
REMARK  status: ('A' for Active; 'I' for Inactive)
REMARK    1  A    between atoms: C_3  and  N_11
REMARK    2  A    between atoms: C_4  and  C_23
REMARK    3  A    between atoms: C_12  and  C_15
REMARK    4  A    between atoms: C_23  and  C_25
REMARK                            x       y       z     vdW  Elec       q    Type
REMARK                         _______ _______ _______ _____ _____    ______ ____
ROOT
ATOM      1  N   UNL     1      32.194 -24.142 -13.223  0.00  0.00    +0.390 N 
ATOM      2  C   UNL     1      31.006 -24.038 -15.537  0.00  0.00    +0.012 C 
ATOM      3  C   UNL     1      32.539 -24.124 -15.702  0.00  0.00    +0.053 C 
ATOM      4  C   UNL     1      33.201 -23.971 -14.308  0.00  0.00    -0.035 C 
ATOM      5  C   UNL     1      30.655 -22.814 -14.672  0.00  0.00    -0.021 C 
ATOM      6  C   UNL     1      30.577 -25.289 -14.751  0.00  0.00    -0.021 C 
ATOM      7  C   UNL     1      31.278 -22.977 -13.274  0.00  0.00    -0.077 C 
ATOM      8  C   UNL     1      31.385 -25.364 -13.443  0.00  0.00    -0.077 C 
ATOM      9  H   UNL     1      32.675 -24.217 -12.326  0.00  0.00    -0.080 HD
ENDROOT
BRANCH   3  11
ATOM     10  O   UNL     1      33.576 -24.648 -18.328  0.00  0.00    -0.267 OA
ATOM     11  N   UNL     1      33.043 -23.150 -16.639  0.00  0.00    -0.302 N 
ATOM     12  C   UNL     1      33.526 -23.501 -17.891  0.00  0.00    +0.280 C 
ATOM     13  H   UNL     1      33.045 -22.200 -16.379  0.00  0.00    +0.150 HD
BRANCH  12  15
ATOM     14  O   UNL     1      35.374 -22.154 -18.733  0.00  0.00    -0.449 OA
ATOM     15  C   UNL     1      34.035 -22.383 -18.728  0.00  0.00    +0.198 C 
ATOM     16  C   UNL     1      33.384 -21.487 -19.543  0.00  0.00    +0.045 C 
ATOM     17  C   UNL     1      34.385 -20.643 -20.091  0.00  0.00    +0.038 C 
ATOM     18  C   UNL     1      35.591 -21.095 -19.562  0.00  0.00    +0.146 C 
ATOM     19  C   UNL     1      34.408 -19.550 -20.974  0.00  0.00    +0.003 C 
ATOM     20  C   UNL     1      36.832 -20.530 -19.851  0.00  0.00    +0.037 C 
ATOM     21  C   UNL     1      35.641 -18.960 -21.283  0.00  0.00    +0.000 C 
ATOM     22  C   UNL     1      36.830 -19.444 -20.732  0.00  0.00    +0.003 C 
ENDBRANCH  12  15
ENDBRANCH   3  11
BRANCH   4  23
ATOM     23  C   UNL     1      34.386 -24.925 -14.137  0.00  0.00    +0.009 C 
BRANCH  23  25
ATOM     24  N   UNL     1      37.454 -23.079 -12.917  0.00  0.00    -0.243 NA
ATOM     25  C   UNL     1      35.422 -24.355 -13.209  0.00  0.00    -0.005 C 
ATOM     26  C   UNL     1      35.340 -24.556 -11.836  0.00  0.00    -0.001 C 
ATOM     27  C   UNL     1      36.488 -23.616 -13.696  0.00  0.00    +0.095 C 
ATOM     28  C   UNL     1      36.315 -24.018 -11.001  0.00  0.00    +0.020 C 
ATOM     29  C   UNL     1      37.342 -23.294 -11.586  0.00  0.00    +0.099 C 
ENDBRANCH  23  25
ENDBRANCH   4  23
TORSDOF 4
ENDMDL
MODEL 2
REMARK VINA RESULT:     -10.9      1.567      4.382
REMARK  Name = 25147644
REMARK  4 active torsions:
REMARK  status: ('A' for Active; 'I' for Inactive)
REMARK    1  A    between atoms: C_3  and  N_11
REMARK    2  A    between atoms: C_4  and  C_23
REMARK    3  A    between atoms: C_12  and  C_15
REMARK    4  A    between atoms: C_23  and  C_25
REMARK                            x       y       z     vdW  Elec       q    Type
REMARK                         _______ _______ _______ _____ _____    ______ ____
ROOT
ATOM      1  N   UNL     1      35.762 -25.845 -13.069  0.00  0.00    +0.390 N 
ATOM      2  C   UNL     1      37.335 -23.937 -13.881  0.00  0.00    +0.012 C 
ATOM      3  C   UNL     1      35.859 -23.483 -13.893  0.00  0.00    +0.053 C 
ATOM      4  C   UNL     1      34.958 -24.712 -13.606  0.00  0.00    -0.035 C 
ATOM      5  C   UNL     1      37.488 -25.197 -14.753  0.00  0.00    -0.021 C 
ATOM      6  C   UNL     1      37.660 -24.343 -12.434  0.00  0.00    -0.021 C 
ATOM      7  C   UNL     1      36.633 -26.334 -14.164  0.00  0.00    -0.077 C 
ATOM      8  C   UNL     1      36.637 -25.392 -11.963  0.00  0.00    -0.077 C 
ATOM      9  H   UNL     1      35.133 -26.570 -12.722  0.00  0.00    -0.080 HD
ENDROOT
BRANCH   3  11
ATOM     10  O   UNL     1      34.585 -24.704 -16.158  0.00  0.00    -0.267 OA
ATOM     11  N   UNL     1      35.496 -22.835 -15.129  0.00  0.00    -0.302 N 
ATOM     12  C   UNL     1      34.880 -23.512 -16.172  0.00  0.00    +0.280 C 
ATOM     13  H   UNL     1      35.693 -21.877 -15.236  0.00  0.00    +0.150 HD
BRANCH  12  15
ATOM     14  O   UNL     1      35.649 -22.172 -18.056  0.00  0.00    -0.449 OA
ATOM     15  C   UNL     1      34.594 -22.707 -17.389  0.00  0.00    +0.198 C 
ATOM     16  C   UNL     1      33.410 -22.381 -18.006  0.00  0.00    +0.045 C 
ATOM     17  C   UNL     1      33.752 -21.589 -19.134  0.00  0.00    +0.038 C 
ATOM     18  C   UNL     1      35.139 -21.489 -19.120  0.00  0.00    +0.146 C 
ATOM     19  C   UNL     1      33.043 -20.944 -20.163  0.00  0.00    +0.003 C 
ATOM     20  C   UNL     1      35.883 -20.788 -20.067  0.00  0.00    +0.037 C 
ATOM     21  C   UNL     1      33.764 -20.230 -21.130  0.00  0.00    +0.000 C 
ATOM     22  C   UNL     1      35.158 -20.155 -21.081  0.00  0.00    +0.003 C 
ENDBRANCH  12  15
ENDBRANCH   3  11
BRANCH   4  23
ATOM     23  C   UNL     1      33.793 -24.354 -12.679  0.00  0.00    +0.009 C 
BRANCH  23  25
ATOM     24  N   UNL     1      30.510 -25.555 -14.124  0.00  0.00    -0.243 NA
ATOM     25  C   UNL     1      32.483 -24.351 -13.415  0.00  0.00    -0.005 C 
ATOM     26  C   UNL     1      32.024 -23.206 -14.056  0.00  0.00    -0.001 C 
ATOM     27  C   UNL     1      31.696 -25.490 -13.478  0.00  0.00    +0.095 C 
ATOM     28  C   UNL     1      30.808 -23.234 -14.731  0.00  0.00    +0.020 C 
ATOM     29  C   UNL     1      30.096 -24.422 -14.736  0.00  0.00    +0.099 C 
ENDBRANCH  23  25
ENDBRANCH   4  23
TORSDOF 4
ENDMDL
MODEL 3
REMARK VINA RESULT:      -9.1      1.499      4.383
REMARK  Name = 25147644
REMARK  4 active torsions:
REMARK  status: ('A' for Active; 'I' for Inactive)
REMARK    1  A    between atoms: C_3  and  N_11
REMARK    2  A    between atoms: C_4  and  C_23
REMARK    3  A    between atoms: C_12  and  C_15
REMARK    4  A    between atoms: C_23  and  C_25
REMARK                            x       y       z     vdW  Elec       q    Type
REMARK                         _______ _______ _______ _____ _____    ______ ____
ROOT
ATOM      1  N   UNL     1      34.070 -25.211 -13.969  0.00  0.00    +0.390 N 
ATOM      2  C   UNL     1      36.300 -23.876 -14.109  0.00  0.00    +0.012 C 
ATOM      3  C   UNL     1      35.101 -23.004 -14.541  0.00  0.00    +0.053 C 
ATOM      4  C   UNL     1      33.840 -23.902 -14.640  0.00  0.00    -0.035 C 
ATOM      5  C   UNL     1      36.350 -25.141 -14.984  0.00  0.00    -0.021 C 
ATOM      6  C   UNL     1      36.017 -24.331 -12.667  0.00  0.00    -0.021 C 
ATOM      7  C   UNL     1      35.063 -25.961 -14.776  0.00  0.00    -0.077 C 
ATOM      8  C   UNL     1      34.642 -25.018 -12.616  0.00  0.00    -0.077 C 
ATOM      9  H   UNL     1      33.182 -25.709 -13.889  0.00  0.00    -0.080 HD
ENDROOT
BRANCH   3  11
ATOM     10  O   UNL     1      34.228 -23.783 -17.162  0.00  0.00    -0.267 OA
ATOM     11  N   UNL     1      35.351 -22.302 -15.776  0.00  0.00    -0.302 N 
ATOM     12  C   UNL     1      34.886 -22.759 -17.000  0.00  0.00    +0.280 C 
ATOM     13  H   UNL     1      35.872 -21.467 -15.748  0.00  0.00    +0.150 HD
BRANCH  12  15
ATOM     14  O   UNL     1      34.251 -21.547 -19.016  0.00  0.00    -0.449 OA
ATOM     15  C   UNL     1      35.251 -21.936 -18.182  0.00  0.00    +0.198 C 
ATOM     16  C   UNL     1      36.464 -21.463 -18.623  0.00  0.00    +0.045 C 
ATOM     17  C   UNL     1      36.202 -20.732 -19.810  0.00  0.00    +0.038 C 
ATOM     18  C   UNL     1      34.828 -20.813 -20.009  0.00  0.00    +0.146 C 
ATOM     19  C   UNL     1      36.973 -20.011 -20.740  0.00  0.00    +0.003 C 
ATOM     20  C   UNL     1      34.155 -20.223 -21.077  0.00  0.00    +0.037 C 
ATOM     21  C   UNL     1      36.325 -19.406 -21.825  0.00  0.00    +0.000 C 
ATOM     22  C   UNL     1      34.941 -19.511 -21.989  0.00  0.00    +0.003 C 
ENDBRANCH  12  15
ENDBRANCH   3  11
BRANCH   4  23
ATOM     23  C   UNL     1      32.597 -23.195 -14.092  0.00  0.00    +0.009 C 
BRANCH  23  25
ATOM     24  N   UNL     1      29.647 -23.779 -16.386  0.00  0.00    -0.243 NA
ATOM     25  C   UNL     1      31.335 -23.784 -14.655  0.00  0.00    -0.005 C 
ATOM     26  C   UNL     1      30.688 -24.835 -14.015  0.00  0.00    -0.001 C 
ATOM     27  C   UNL     1      30.779 -23.296 -15.827  0.00  0.00    +0.095 C 
ATOM     28  C   UNL     1      29.520 -25.359 -14.560  0.00  0.00    +0.020 C 
ATOM     29  C   UNL     1      29.045 -24.801 -15.736  0.00  0.00    +0.099 C 
ENDBRANCH  23  25
ENDBRANCH   4  23
TORSDOF 4
ENDMDL
