MODEL 1
REMARK VINA RESULT:     -11.8      0.000      0.000
REMARK  Name = 24180720
REMARK  6 active torsions:
REMARK  status: ('A' for Active; 'I' for Inactive)
REMARK    1  A    between atoms: C_2  and  C_6
REMARK    2  A    between atoms: C_2  and  C_21
REMARK    3  A    between atoms: C_10  and  C_14
REMARK    4  A    between atoms: C_22  and  N_27
REMARK    5  A    between atoms: N_27  and  S_29
REMARK    6  A    between atoms: S_29  and  C_32
REMARK                            x       y       z     vdW  Elec       q    Type
REMARK                         _______ _______ _______ _____ _____    ______ ____
ROOT
ATOM      1  O   UNL     1      34.937 -13.458 -21.521  0.00  0.00    -0.286 OA
ATOM      2  C   UNL     1      34.023 -13.514 -22.365  0.00  0.00    +0.201 C 
ENDROOT
BRANCH   2   6
ATOM      3  N   UNL     1      33.522 -15.525 -25.317  0.00  0.00    -0.297 N 
ATOM      4  N   UNL     1      34.202 -17.785 -24.830  0.00  0.00    -0.229 NA
ATOM      5  C   UNL     1      34.286 -15.909 -23.253  0.00  0.00    +0.036 C 
ATOM      6  C   UNL     1      33.932 -14.538 -23.365  0.00  0.00    +0.056 C 
ATOM      7  C   UNL     1      34.017 -16.496 -24.487  0.00  0.00    +0.132 C 
ATOM      8  C   UNL     1      34.806 -16.734 -22.244  0.00  0.00    +0.005 C 
ATOM      9  C   UNL     1      33.466 -14.331 -24.646  0.00  0.00    +0.066 C 
ATOM     10  C   UNL     1      35.017 -18.078 -22.547  0.00  0.00    +0.021 C 
ATOM     11  C   UNL     1      34.705 -18.532 -23.821  0.00  0.00    +0.100 C 
ATOM     12  H   UNL     1      33.248 -15.664 -26.251  0.00  0.00    +0.154 HD
BRANCH  10  14
ATOM     13  N   UNL     1      37.367 -19.589 -20.078  0.00  0.00    -0.242 NA
ATOM     14  C   UNL     1      35.550 -18.981 -21.553  0.00  0.00    +0.021 C 
ATOM     15  C   UNL     1      34.817 -20.078 -21.113  0.00  0.00    +0.003 C 
ATOM     16  C   UNL     1      36.809 -18.783 -21.009  0.00  0.00    +0.099 C 
ATOM     17  C   UNL     1      35.358 -20.931 -20.157  0.00  0.00    +0.021 C 
ATOM     18  C   UNL     1      36.625 -20.645 -19.676  0.00  0.00    +0.099 C 
ENDBRANCH  10  14
ENDBRANCH   2   6
BRANCH   2  21
ATOM     19  F   UNL     1      34.323 -11.060 -23.717  0.00  0.00    -0.203 F 
ATOM     20  F   UNL     1      31.644 -13.731 -20.851  0.00  0.00    -0.204 F 
ATOM     21  C   UNL     1      33.007 -12.418 -22.288  0.00  0.00    +0.095 C 
ATOM     22  C   UNL     1      32.266 -10.204 -22.908  0.00  0.00    +0.092 C 
ATOM     23  C   UNL     1      33.213 -11.226 -22.981  0.00  0.00    +0.160 C 
ATOM     24  C   UNL     1      31.854 -12.590 -21.522  0.00  0.00    +0.145 C 
ATOM     25  C   UNL     1      31.113 -10.376 -22.142  0.00  0.00    +0.020 C 
ATOM     26  C   UNL     1      30.907 -11.569 -21.449  0.00  0.00    +0.031 C 
BRANCH  22  27
ATOM     27  N   UNL     1      32.475  -8.982 -23.616  0.00  0.00    -0.217 N 
ATOM     28  H   UNL     1      32.523  -8.969 -24.600  0.00  0.00    +0.173 HD
BRANCH  27  29
ATOM     29  S   UNL     1      32.640  -7.532 -22.703  0.00  0.00    +0.054 S 
ATOM     30  O   UNL     1      31.444  -6.731 -22.893  0.00  0.00    -0.154 OA
ATOM     31  O   UNL     1      33.135  -7.812 -21.370  0.00  0.00    -0.154 OA
BRANCH  29  32
ATOM     32  C   UNL     1      33.944  -6.734 -23.613  0.00  0.00    +0.172 C 
ATOM     33  C   UNL     1      35.292  -7.345 -23.301  0.00  0.00    +0.029 C 
ENDBRANCH  29  32
ENDBRANCH  27  29
ENDBRANCH  22  27
ENDBRANCH   2  21
TORSDOF 6
ENDMDL
MODEL 2
REMARK VINA RESULT:     -11.4      4.044      7.069
REMARK  Name = 24180720
REMARK  6 active torsions:
REMARK  status: ('A' for Active; 'I' for Inactive)
REMARK    1  A    between atoms: C_2  and  C_6
REMARK    2  A    between atoms: C_2  and  C_21
REMARK    3  A    between atoms: C_10  and  C_14
REMARK    4  A    between atoms: C_22  and  N_27
REMARK    5  A    between atoms: N_27  and  S_29
REMARK    6  A    between atoms: S_29  and  C_32
REMARK                            x       y       z     vdW  Elec       q    Type
REMARK                         _______ _______ _______ _____ _____    ______ ____
ROOT
ATOM      1  O   UNL     1      36.593 -19.735 -20.383  0.00  0.00    -0.286 OA
ATOM      2  C   UNL     1      35.417 -19.634 -20.781  0.00  0.00    +0.201 C 
ENDROOT
BRANCH   2   6
ATOM      3  N   UNL     1      32.299 -21.288 -20.037  0.00  0.00    -0.297 N 
ATOM      4  N   UNL     1      32.631 -22.734 -18.139  0.00  0.00    -0.229 NA
ATOM      5  C   UNL     1      34.353 -21.320 -19.160  0.00  0.00    +0.036 C 
ATOM      6  C   UNL     1      34.337 -20.422 -20.261  0.00  0.00    +0.056 C 
ATOM      7  C   UNL     1      33.068 -21.842 -19.047  0.00  0.00    +0.132 C 
ATOM      8  C   UNL     1      35.313 -21.758 -18.235  0.00  0.00    +0.005 C 
ATOM      9  C   UNL     1      33.059 -20.423 -20.781  0.00  0.00    +0.066 C 
ATOM     10  C   UNL     1      34.913 -22.682 -17.272  0.00  0.00    +0.021 C 
ATOM     11  C   UNL     1      33.596 -23.121 -17.274  0.00  0.00    +0.100 C 
ATOM     12  H   UNL     1      31.347 -21.481 -20.190  0.00  0.00    +0.154 HD
BRANCH  10  14
ATOM     13  N   UNL     1      38.071 -23.094 -15.334  0.00  0.00    -0.242 NA
ATOM     14  C   UNL     1      35.852 -23.173 -16.290  0.00  0.00    +0.021 C 
ATOM     15  C   UNL     1      35.488 -24.162 -15.381  0.00  0.00    +0.003 C 
ATOM     16  C   UNL     1      37.145 -22.678 -16.225  0.00  0.00    +0.099 C 
ATOM     17  C   UNL     1      36.415 -24.616 -14.449  0.00  0.00    +0.021 C 
ATOM     18  C   UNL     1      37.681 -24.056 -14.467  0.00  0.00    +0.099 C 
ENDBRANCH  10  14
ENDBRANCH   2   6
BRANCH   2  21
ATOM     19  F   UNL     1      35.258 -16.864 -20.291  0.00  0.00    -0.203 F 
ATOM     20  F   UNL     1      35.108 -20.361 -23.496  0.00  0.00    -0.204 F 
ATOM     21  C   UNL     1      35.189 -18.633 -21.868  0.00  0.00    +0.095 C 
ATOM     22  C   UNL     1      34.906 -16.340 -22.575  0.00  0.00    +0.092 C 
ATOM     23  C   UNL     1      35.119 -17.274 -21.561  0.00  0.00    +0.160 C 
ATOM     24  C   UNL     1      35.045 -19.058 -23.188  0.00  0.00    +0.145 C 
ATOM     25  C   UNL     1      34.761 -16.766 -23.896  0.00  0.00    +0.020 C 
ATOM     26  C   UNL     1      34.831 -18.125 -24.202  0.00  0.00    +0.031 C 
BRANCH  22  27
ATOM     27  N   UNL     1      34.833 -14.949 -22.264  0.00  0.00    -0.217 N 
ATOM     28  H   UNL     1      35.416 -14.554 -21.575  0.00  0.00    +0.173 HD
BRANCH  27  29
ATOM     29  S   UNL     1      33.700 -13.980 -23.126  0.00  0.00    +0.054 S 
ATOM     30  O   UNL     1      34.311 -12.691 -23.396  0.00  0.00    -0.154 OA
ATOM     31  O   UNL     1      33.077 -14.738 -24.192  0.00  0.00    -0.154 OA
BRANCH  29  32
ATOM     32  C   UNL     1      32.482 -13.718 -21.857  0.00  0.00    +0.172 C 
ATOM     33  C   UNL     1      33.020 -14.074 -20.489  0.00  0.00    +0.029 C 
ENDBRANCH  29  32
ENDBRANCH  27  29
ENDBRANCH  22  27
ENDBRANCH   2  21
TORSDOF 6
ENDMDL
MODEL 3
REMARK VINA RESULT:     -11.3      6.756     11.046
REMARK  Name = 24180720
REMARK  6 active torsions:
REMARK  status: ('A' for Active; 'I' for Inactive)
REMARK    1  A    between atoms: C_2  and  C_6
REMARK    2  A    between atoms: C_2  and  C_21
REMARK    3  A    between atoms: C_10  and  C_14
REMARK    4  A    between atoms: C_22  and  N_27
REMARK    5  A    between atoms: N_27  and  S_29
REMARK    6  A    between atoms: S_29  and  C_32
REMARK                            x       y       z     vdW  Elec       q    Type
REMARK                         _______ _______ _______ _____ _____    ______ ____
ROOT
ATOM      1  O   UNL     1      33.773 -24.455 -19.066  0.00  0.00    -0.286 OA
ATOM      2  C   UNL     1      33.817 -23.454 -18.328  0.00  0.00    +0.201 C 
ENDROOT
BRANCH   2   6
ATOM      3  N   UNL     1      31.450 -22.900 -15.664  0.00  0.00    -0.297 N 
ATOM      4  N   UNL     1      32.444 -23.620 -13.591  0.00  0.00    -0.229 NA
ATOM      5  C   UNL     1      33.522 -23.722 -15.791  0.00  0.00    +0.036 C 
ATOM      6  C   UNL     1      33.095 -23.349 -17.093  0.00  0.00    +0.056 C 
ATOM      7  C   UNL     1      32.473 -23.428 -14.924  0.00  0.00    +0.132 C 
ATOM      8  C   UNL     1      34.684 -24.280 -15.236  0.00  0.00    +0.005 C 
ATOM      9  C   UNL     1      31.815 -22.846 -16.984  0.00  0.00    +0.066 C 
ATOM     10  C   UNL     1      34.706 -24.500 -13.860  0.00  0.00    +0.021 C 
ATOM     11  C   UNL     1      33.588 -24.160 -13.111  0.00  0.00    +0.100 C 
ATOM     12  H   UNL     1      30.584 -22.602 -15.303  0.00  0.00    +0.154 HD
BRANCH  10  14
ATOM     13  N   UNL     1      36.926 -25.919 -11.222  0.00  0.00    -0.242 NA
ATOM     14  C   UNL     1      35.872 -25.071 -13.225  0.00  0.00    +0.021 C 
ATOM     15  C   UNL     1      37.033 -25.320 -13.950  0.00  0.00    +0.003 C 
ATOM     16  C   UNL     1      35.871 -25.385 -11.876  0.00  0.00    +0.099 C 
ATOM     17  C   UNL     1      38.140 -25.868 -13.311  0.00  0.00    +0.021 C 
ATOM     18  C   UNL     1      38.037 -26.147 -11.959  0.00  0.00    +0.099 C 
ENDBRANCH  10  14
ENDBRANCH   2   6
BRANCH   2  21
ATOM     19  F   UNL     1      32.976 -21.659 -20.331  0.00  0.00    -0.203 F 
ATOM     20  F   UNL     1      36.414 -22.954 -17.327  0.00  0.00    -0.204 F 
ATOM     21  C   UNL     1      34.674 -22.330 -18.819  0.00  0.00    +0.095 C 
ATOM     22  C   UNL     1      35.000 -20.427 -20.271  0.00  0.00    +0.092 C 
ATOM     23  C   UNL     1      34.200 -21.474 -19.814  0.00  0.00    +0.160 C 
ATOM     24  C   UNL     1      35.947 -22.138 -18.282  0.00  0.00    +0.145 C 
ATOM     25  C   UNL     1      36.273 -20.235 -19.734  0.00  0.00    +0.020 C 
ATOM     26  C   UNL     1      36.746 -21.091 -18.740  0.00  0.00    +0.031 C 
BRANCH  22  27
ATOM     27  N   UNL     1      34.518 -19.550 -21.290  0.00  0.00    -0.217 N 
ATOM     28  H   UNL     1      33.652 -19.715 -21.731  0.00  0.00    +0.173 HD
BRANCH  27  29
ATOM     29  S   UNL     1      35.489 -18.197 -21.725  0.00  0.00    +0.054 S 
ATOM     30  O   UNL     1      35.188 -17.105 -20.816  0.00  0.00    -0.154 OA
ATOM     31  O   UNL     1      36.861 -18.600 -21.964  0.00  0.00    -0.154 OA
BRANCH  29  32
ATOM     32  C   UNL     1      34.760 -17.779 -23.293  0.00  0.00    +0.172 C 
ATOM     33  C   UNL     1      34.179 -18.996 -23.976  0.00  0.00    +0.029 C 
ENDBRANCH  29  32
ENDBRANCH  27  29
ENDBRANCH  22  27
ENDBRANCH   2  21
TORSDOF 6
ENDMDL
MODEL 4
REMARK VINA RESULT:     -10.8      4.821     10.043
REMARK  Name = 24180720
REMARK  6 active torsions:
REMARK  status: ('A' for Active; 'I' for Inactive)
REMARK    1  A    between atoms: C_2  and  C_6
REMARK    2  A    between atoms: C_2  and  C_21
REMARK    3  A    between atoms: C_10  and  C_14
REMARK    4  A    between atoms: C_22  and  N_27
REMARK    5  A    between atoms: N_27  and  S_29
REMARK    6  A    between atoms: S_29  and  C_32
REMARK                            x       y       z     vdW  Elec       q    Type
REMARK                         _______ _______ _______ _____ _____    ______ ____
ROOT
ATOM      1  O   UNL     1      35.291 -16.882 -20.392  0.00  0.00    -0.286 OA
ATOM      2  C   UNL     1      35.183 -17.800 -21.225  0.00  0.00    +0.201 C 
ENDROOT
BRANCH   2   6
ATOM      3  N   UNL     1      34.498 -17.989 -24.762  0.00  0.00    -0.297 N 
ATOM      4  N   UNL     1      33.685 -15.845 -25.501  0.00  0.00    -0.229 NA
ATOM      5  C   UNL     1      34.336 -16.397 -23.203  0.00  0.00    +0.036 C 
ATOM      6  C   UNL     1      34.829 -17.584 -22.599  0.00  0.00    +0.056 C 
ATOM      7  C   UNL     1      34.141 -16.683 -24.552  0.00  0.00    +0.132 C 
ATOM      8  C   UNL     1      34.029 -15.099 -22.766  0.00  0.00    +0.005 C 
ATOM      9  C   UNL     1      34.918 -18.547 -23.582  0.00  0.00    +0.066 C 
ATOM     10  C   UNL     1      33.552 -14.192 -23.710  0.00  0.00    +0.021 C 
ATOM     11  C   UNL     1      33.405 -14.610 -25.025  0.00  0.00    +0.100 C 
ATOM     12  H   UNL     1      34.460 -18.455 -25.628  0.00  0.00    +0.154 HD
BRANCH  10  14
ATOM     13  N   UNL     1      31.795 -11.342 -22.068  0.00  0.00    -0.242 NA
ATOM     14  C   UNL     1      33.217 -12.839 -23.325  0.00  0.00    +0.021 C 
ATOM     15  C   UNL     1      33.943 -11.756 -23.809  0.00  0.00    +0.003 C 
ATOM     16  C   UNL     1      32.162 -12.581 -22.466  0.00  0.00    +0.099 C 
ATOM     17  C   UNL     1      33.595 -10.466 -23.422  0.00  0.00    +0.021 C 
ATOM     18  C   UNL     1      32.524 -10.314 -22.558  0.00  0.00    +0.099 C 
ENDBRANCH  10  14
ENDBRANCH   2   6
BRANCH   2  21
ATOM     19  F   UNL     1      33.109 -19.510 -20.381  0.00  0.00    -0.203 F 
ATOM     20  F   UNL     1      37.776 -18.907 -20.997  0.00  0.00    -0.204 F 
ATOM     21  C   UNL     1      35.434 -19.179 -20.701  0.00  0.00    +0.095 C 
ATOM     22  C   UNL     1      34.598 -21.262 -19.809  0.00  0.00    +0.092 C 
ATOM     23  C   UNL     1      34.363 -19.977 -20.298  0.00  0.00    +0.160 C 
ATOM     24  C   UNL     1      36.738 -19.665 -20.614  0.00  0.00    +0.145 C 
ATOM     25  C   UNL     1      35.902 -21.748 -19.722  0.00  0.00    +0.020 C 
ATOM     26  C   UNL     1      36.973 -20.950 -20.125  0.00  0.00    +0.031 C 
BRANCH  22  27
ATOM     27  N   UNL     1      33.504 -22.082 -19.395  0.00  0.00    -0.217 N 
ATOM     28  H   UNL     1      32.621 -22.000 -19.824  0.00  0.00    +0.173 HD
BRANCH  27  29
ATOM     29  S   UNL     1      33.771 -23.216 -18.128  0.00  0.00    +0.054 S 
ATOM     30  O   UNL     1      33.657 -24.554 -18.678  0.00  0.00    -0.154 OA
ATOM     31  O   UNL     1      34.924 -22.842 -17.333  0.00  0.00    -0.154 OA
BRANCH  29  32
ATOM     32  C   UNL     1      32.315 -22.936 -17.144  0.00  0.00    +0.172 C 
ATOM     33  C   UNL     1      32.432 -23.588 -15.784  0.00  0.00    +0.029 C 
ENDBRANCH  29  32
ENDBRANCH  27  29
ENDBRANCH  22  27
ENDBRANCH   2  21
TORSDOF 6
ENDMDL
MODEL 5
REMARK VINA RESULT:     -10.7      7.951     11.731
REMARK  Name = 24180720
REMARK  6 active torsions:
REMARK  status: ('A' for Active; 'I' for Inactive)
REMARK    1  A    between atoms: C_2  and  C_6
REMARK    2  A    between atoms: C_2  and  C_21
REMARK    3  A    between atoms: C_10  and  C_14
REMARK    4  A    between atoms: C_22  and  N_27
REMARK    5  A    between atoms: N_27  and  S_29
REMARK    6  A    between atoms: S_29  and  C_32
REMARK                            x       y       z     vdW  Elec       q    Type
REMARK                         _______ _______ _______ _____ _____    ______ ____
ROOT
ATOM      1  O   UNL     1      33.753 -23.840 -19.140  0.00  0.00    -0.286 OA
ATOM      2  C   UNL     1      34.115 -23.193 -18.140  0.00  0.00    +0.201 C 
ENDROOT
BRANCH   2   6
ATOM      3  N   UNL     1      37.172 -21.398 -17.474  0.00  0.00    -0.297 N 
ATOM      4  N   UNL     1      37.490 -19.755 -19.207  0.00  0.00    -0.229 NA
ATOM      5  C   UNL     1      35.603 -21.313 -19.061  0.00  0.00    +0.036 C 
ATOM      6  C   UNL     1      35.260 -22.328 -18.129  0.00  0.00    +0.056 C 
ATOM      7  C   UNL     1      36.800 -20.753 -18.624  0.00  0.00    +0.132 C 
ATOM      8  C   UNL     1      35.038 -20.795 -20.237  0.00  0.00    +0.005 C 
ATOM      9  C   UNL     1      36.244 -22.357 -17.163  0.00  0.00    +0.066 C 
ATOM     10  C   UNL     1      35.713 -19.760 -20.881  0.00  0.00    +0.021 C 
ATOM     11  C   UNL     1      36.900 -19.295 -20.334  0.00  0.00    +0.100 C 
ATOM     12  H   UNL     1      37.982 -21.202 -16.951  0.00  0.00    +0.154 HD
BRANCH  10  14
ATOM     13  N   UNL     1      34.828 -17.223 -23.466  0.00  0.00    -0.242 NA
ATOM     14  C   UNL     1      35.184 -19.182 -22.096  0.00  0.00    +0.021 C 
ATOM     15  C   UNL     1      34.539 -19.971 -23.043  0.00  0.00    +0.003 C 
ATOM     16  C   UNL     1      35.301 -17.826 -22.353  0.00  0.00    +0.099 C 
ATOM     17  C   UNL     1      34.038 -19.386 -24.201  0.00  0.00    +0.021 C 
ATOM     18  C   UNL     1      34.207 -18.021 -24.364  0.00  0.00    +0.099 C 
ENDBRANCH  10  14
ENDBRANCH   2   6
BRANCH   2  21
ATOM     19  F   UNL     1      31.491 -22.194 -17.914  0.00  0.00    -0.203 F 
ATOM     20  F   UNL     1      35.038 -24.583 -15.855  0.00  0.00    -0.204 F 
ATOM     21  C   UNL     1      33.280 -23.383 -16.913  0.00  0.00    +0.095 C 
ATOM     22  C   UNL     1      31.208 -23.041 -15.718  0.00  0.00    +0.092 C 
ATOM     23  C   UNL     1      31.987 -22.864 -16.862  0.00  0.00    +0.160 C 
ATOM     24  C   UNL     1      33.796 -24.080 -15.820  0.00  0.00    +0.145 C 
ATOM     25  C   UNL     1      31.724 -23.737 -14.625  0.00  0.00    +0.020 C 
ATOM     26  C   UNL     1      33.018 -24.257 -14.676  0.00  0.00    +0.031 C 
BRANCH  22  27
ATOM     27  N   UNL     1      29.884 -22.510 -15.664  0.00  0.00    -0.217 N 
ATOM     28  H   UNL     1      29.729 -21.560 -15.456  0.00  0.00    +0.173 HD
BRANCH  27  29
ATOM     29  S   UNL     1      28.567 -23.576 -15.971  0.00  0.00    +0.054 S 
ATOM     30  O   UNL     1      28.448 -23.755 -17.406  0.00  0.00    -0.154 OA
ATOM     31  O   UNL     1      28.612 -24.723 -15.086  0.00  0.00    -0.154 OA
BRANCH  29  32
ATOM     32  C   UNL     1      27.207 -22.548 -15.464  0.00  0.00    +0.172 C 
ATOM     33  C   UNL     1      26.399 -22.073 -16.651  0.00  0.00    +0.029 C 
ENDBRANCH  29  32
ENDBRANCH  27  29
ENDBRANCH  22  27
ENDBRANCH   2  21
TORSDOF 6
ENDMDL
MODEL 6
REMARK VINA RESULT:     -10.6      3.393      9.578
REMARK  Name = 24180720
REMARK  6 active torsions:
REMARK  status: ('A' for Active; 'I' for Inactive)
REMARK    1  A    between atoms: C_2  and  C_6
REMARK    2  A    between atoms: C_2  and  C_21
REMARK    3  A    between atoms: C_10  and  C_14
REMARK    4  A    between atoms: C_22  and  N_27
REMARK    5  A    between atoms: N_27  and  S_29
REMARK    6  A    between atoms: S_29  and  C_32
REMARK                            x       y       z     vdW  Elec       q    Type
REMARK                         _______ _______ _______ _____ _____    ______ ____
ROOT
ATOM      1  O   UNL     1      34.577 -12.893 -24.413  0.00  0.00    -0.286 OA
ATOM      2  C   UNL     1      33.913 -13.512 -23.560  0.00  0.00    +0.201 C 
ENDROOT
BRANCH   2   6
ATOM      3  N   UNL     1      31.349 -12.654 -21.174  0.00  0.00    -0.297 N 
ATOM      4  N   UNL     1      31.069 -10.261 -21.174  0.00  0.00    -0.229 NA
ATOM      5  C   UNL     1      32.657 -11.503 -22.570  0.00  0.00    +0.036 C 
ATOM      6  C   UNL     1      32.951 -12.886 -22.700  0.00  0.00    +0.056 C 
ATOM      7  C   UNL     1      31.653 -11.392 -21.612  0.00  0.00    +0.132 C 
ATOM      8  C   UNL     1      33.125 -10.316 -23.156  0.00  0.00    +0.005 C 
ATOM      9  C   UNL     1      32.131 -13.570 -21.828  0.00  0.00    +0.066 C 
ATOM     10  C   UNL     1      32.553  -9.116 -22.739  0.00  0.00    +0.021 C 
ATOM     11  C   UNL     1      31.558  -9.150 -21.772  0.00  0.00    +0.100 C 
ATOM     12  H   UNL     1      30.671 -12.870 -20.494  0.00  0.00    +0.154 HD
BRANCH  10  14
ATOM     13  N   UNL     1      32.416  -5.741 -24.319  0.00  0.00    -0.242 NA
ATOM     14  C   UNL     1      32.990  -7.859 -23.303  0.00  0.00    +0.021 C 
ATOM     15  C   UNL     1      34.342  -7.542 -23.387  0.00  0.00    +0.003 C 
ATOM     16  C   UNL     1      32.076  -6.933 -23.779  0.00  0.00    +0.099 C 
ATOM     17  C   UNL     1      34.731  -6.325 -23.937  0.00  0.00    +0.021 C 
ATOM     18  C   UNL     1      33.739  -5.468 -24.384  0.00  0.00    +0.099 C 
ENDBRANCH  10  14
ENDBRANCH   2   6
BRANCH   2  21
ATOM     19  F   UNL     1      34.942 -14.726 -21.235  0.00  0.00    -0.203 F 
ATOM     20  F   UNL     1      33.451 -15.298 -25.704  0.00  0.00    -0.204 F 
ATOM     21  C   UNL     1      34.191 -14.979 -23.469  0.00  0.00    +0.095 C 
ATOM     22  C   UNL     1      34.959 -16.888 -22.204  0.00  0.00    +0.092 C 
ATOM     23  C   UNL     1      34.700 -15.521 -22.288  0.00  0.00    +0.160 C 
ATOM     24  C   UNL     1      33.940 -15.806 -24.564  0.00  0.00    +0.145 C 
ATOM     25  C   UNL     1      34.709 -17.715 -23.299  0.00  0.00    +0.020 C 
ATOM     26  C   UNL     1      34.199 -17.173 -24.479  0.00  0.00    +0.031 C 
BRANCH  22  27
ATOM     27  N   UNL     1      35.482 -17.445 -20.997  0.00  0.00    -0.217 N 
ATOM     28  H   UNL     1      35.303 -17.021 -20.126  0.00  0.00    +0.173 HD
BRANCH  27  29
ATOM     29  S   UNL     1      36.432 -18.876 -21.106  0.00  0.00    +0.054 S 
ATOM     30  O   UNL     1      36.889 -19.021 -22.477  0.00  0.00    -0.154 OA
ATOM     31  O   UNL     1      37.370 -18.961 -20.004  0.00  0.00    -0.154 OA
BRANCH  29  32
ATOM     32  C   UNL     1      35.174 -20.108 -20.849  0.00  0.00    +0.172 C 
ATOM     33  C   UNL     1      35.606 -21.137 -19.829  0.00  0.00    +0.029 C 
ENDBRANCH  29  32
ENDBRANCH  27  29
ENDBRANCH  22  27
ENDBRANCH   2  21
TORSDOF 6
ENDMDL
MODEL 7
REMARK VINA RESULT:     -10.6      7.988     12.333
REMARK  Name = 24180720
REMARK  6 active torsions:
REMARK  status: ('A' for Active; 'I' for Inactive)
REMARK    1  A    between atoms: C_2  and  C_6
REMARK    2  A    between atoms: C_2  and  C_21
REMARK    3  A    between atoms: C_10  and  C_14
REMARK    4  A    between atoms: C_22  and  N_27
REMARK    5  A    between atoms: N_27  and  S_29
REMARK    6  A    between atoms: S_29  and  C_32
REMARK                            x       y       z     vdW  Elec       q    Type
REMARK                         _______ _______ _______ _____ _____    ______ ____
ROOT
ATOM      1  O   UNL     1      33.730 -23.588 -19.289  0.00  0.00    -0.286 OA
ATOM      2  C   UNL     1      34.189 -23.019 -18.282  0.00  0.00    +0.201 C 
ENDROOT
BRANCH   2   6
ATOM      3  N   UNL     1      37.241 -21.175 -17.737  0.00  0.00    -0.297 N 
ATOM      4  N   UNL     1      37.481 -19.550 -19.499  0.00  0.00    -0.229 NA
ATOM      5  C   UNL     1      35.621 -21.131 -19.274  0.00  0.00    +0.036 C 
ATOM      6  C   UNL     1      35.321 -22.138 -18.318  0.00  0.00    +0.056 C 
ATOM      7  C   UNL     1      36.824 -20.549 -18.882  0.00  0.00    +0.132 C 
ATOM      8  C   UNL     1      35.012 -20.635 -20.437  0.00  0.00    +0.005 C 
ATOM      9  C   UNL     1      36.336 -22.143 -17.385  0.00  0.00    +0.066 C 
ATOM     10  C   UNL     1      35.651 -19.599 -21.115  0.00  0.00    +0.021 C 
ATOM     11  C   UNL     1      36.850 -19.111 -20.612  0.00  0.00    +0.100 C 
ATOM     12  H   UNL     1      38.065 -20.962 -17.242  0.00  0.00    +0.154 HD
BRANCH  10  14
ATOM     13  N   UNL     1      34.720 -17.121 -23.740  0.00  0.00    -0.242 NA
ATOM     14  C   UNL     1      35.076 -19.043 -22.319  0.00  0.00    +0.021 C 
ATOM     15  C   UNL     1      34.346 -19.838 -23.197  0.00  0.00    +0.003 C 
ATOM     16  C   UNL     1      35.232 -17.703 -22.633  0.00  0.00    +0.099 C 
ATOM     17  C   UNL     1      33.803 -19.274 -24.346  0.00  0.00    +0.021 C 
ATOM     18  C   UNL     1      34.016 -17.924 -24.570  0.00  0.00    +0.099 C 
ENDBRANCH  10  14
ENDBRANCH   2   6
BRANCH   2  21
ATOM     19  F   UNL     1      35.377 -24.521 -16.216  0.00  0.00    -0.203 F 
ATOM     20  F   UNL     1      31.563 -22.132 -17.721  0.00  0.00    -0.204 F 
ATOM     21  C   UNL     1      33.488 -23.321 -16.996  0.00  0.00    +0.095 C 
ATOM     22  C   UNL     1      33.476 -24.353 -14.812  0.00  0.00    +0.092 C 
ATOM     23  C   UNL     1      34.131 -24.071 -16.011  0.00  0.00    +0.160 C 
ATOM     24  C   UNL     1      32.192 -22.853 -16.782  0.00  0.00    +0.145 C 
ATOM     25  C   UNL     1      32.180 -23.886 -14.598  0.00  0.00    +0.020 C 
ATOM     26  C   UNL     1      31.537 -23.136 -15.583  0.00  0.00    +0.031 C 
BRANCH  22  27
ATOM     27  N   UNL     1      34.131 -25.122 -13.802  0.00  0.00    -0.217 N 
ATOM     28  H   UNL     1      33.989 -26.094 -13.735  0.00  0.00    +0.173 HD
BRANCH  27  29
ATOM     29  S   UNL     1      35.176 -24.302 -12.706  0.00  0.00    +0.054 S 
ATOM     30  O   UNL     1      35.886 -23.268 -13.436  0.00  0.00    -0.154 OA
ATOM     31  O   UNL     1      34.488 -23.991 -11.469  0.00  0.00    -0.154 OA
BRANCH  29  32
ATOM     32  C   UNL     1      36.352 -25.594 -12.368  0.00  0.00    +0.172 C 
ATOM     33  C   UNL     1      37.141 -25.963 -13.604  0.00  0.00    +0.029 C 
ENDBRANCH  29  32
ENDBRANCH  27  29
ENDBRANCH  22  27
ENDBRANCH   2  21
TORSDOF 6
ENDMDL
MODEL 8
REMARK VINA RESULT:     -10.5      6.841     11.089
REMARK  Name = 24180720
REMARK  6 active torsions:
REMARK  status: ('A' for Active; 'I' for Inactive)
REMARK    1  A    between atoms: C_2  and  C_6
REMARK    2  A    between atoms: C_2  and  C_21
REMARK    3  A    between atoms: C_10  and  C_14
REMARK    4  A    between atoms: C_22  and  N_27
REMARK    5  A    between atoms: N_27  and  S_29
REMARK    6  A    between atoms: S_29  and  C_32
REMARK                            x       y       z     vdW  Elec       q    Type
REMARK                         _______ _______ _______ _____ _____    ______ ____
ROOT
ATOM      1  O   UNL     1      33.812 -24.221 -18.855  0.00  0.00    -0.286 OA
ATOM      2  C   UNL     1      34.193 -23.326 -18.078  0.00  0.00    +0.201 C 
ENDROOT
BRANCH   2   6
ATOM      3  N   UNL     1      34.250 -23.392 -14.472  0.00  0.00    -0.297 N 
ATOM      4  N   UNL     1      31.986 -23.225 -13.665  0.00  0.00    -0.229 NA
ATOM      5  C   UNL     1      32.652 -23.238 -16.024  0.00  0.00    +0.036 C 
ATOM      6  C   UNL     1      33.914 -23.328 -16.670  0.00  0.00    +0.056 C 
ATOM      7  C   UNL     1      32.897 -23.281 -14.655  0.00  0.00    +0.132 C 
ATOM      8  C   UNL     1      31.316 -23.123 -16.439  0.00  0.00    +0.005 C 
ATOM      9  C   UNL     1      34.879 -23.422 -15.689  0.00  0.00    +0.066 C 
ATOM     10  C   UNL     1      30.333 -23.061 -15.454  0.00  0.00    +0.021 C 
ATOM     11  C   UNL     1      30.718 -23.115 -14.122  0.00  0.00    +0.100 C 
ATOM     12  H   UNL     1      34.702 -23.444 -13.599  0.00  0.00    +0.154 HD
BRANCH  10  14
ATOM     13  N   UNL     1      27.187 -23.312 -17.439  0.00  0.00    -0.242 NA
ATOM     14  C   UNL     1      28.938 -22.943 -15.814  0.00  0.00    +0.021 C 
ATOM     15  C   UNL     1      28.019 -22.370 -14.942  0.00  0.00    +0.003 C 
ATOM     16  C   UNL     1      28.475 -23.394 -17.040  0.00  0.00    +0.099 C 
ATOM     17  C   UNL     1      26.684 -22.267 -15.318  0.00  0.00    +0.021 C 
ATOM     18  C   UNL     1      26.322 -22.749 -16.565  0.00  0.00    +0.099 C 
ENDBRANCH  10  14
ENDBRANCH   2   6
BRANCH   2  21
ATOM     19  F   UNL     1      33.096 -21.637 -20.048  0.00  0.00    -0.203 F 
ATOM     20  F   UNL     1      36.875 -22.738 -17.396  0.00  0.00    -0.204 F 
ATOM     21  C   UNL     1      34.966 -22.211 -18.709  0.00  0.00    +0.095 C 
ATOM     22  C   UNL     1      35.087 -20.370 -20.269  0.00  0.00    +0.092 C 
ATOM     23  C   UNL     1      34.366 -21.409 -19.680  0.00  0.00    +0.160 C 
ATOM     24  C   UNL     1      36.286 -21.975 -18.327  0.00  0.00    +0.145 C 
ATOM     25  C   UNL     1      36.407 -20.134 -19.887  0.00  0.00    +0.020 C 
ATOM     26  C   UNL     1      37.007 -20.936 -18.916  0.00  0.00    +0.031 C 
BRANCH  22  27
ATOM     27  N   UNL     1      34.475 -19.549 -21.263  0.00  0.00    -0.217 N 
ATOM     28  H   UNL     1      33.549 -19.713 -21.556  0.00  0.00    +0.173 HD
BRANCH  27  29
ATOM     29  S   UNL     1      35.400 -18.262 -21.937  0.00  0.00    +0.054 S 
ATOM     30  O   UNL     1      35.186 -17.073 -21.133  0.00  0.00    -0.154 OA
ATOM     31  O   UNL     1      36.744 -18.703 -22.256  0.00  0.00    -0.154 OA
BRANCH  29  32
ATOM     32  C   UNL     1      34.528 -18.015 -23.467  0.00  0.00    +0.172 C 
ATOM     33  C   UNL     1      34.170 -19.331 -24.120  0.00  0.00    +0.029 C 
ENDBRANCH  29  32
ENDBRANCH  27  29
ENDBRANCH  22  27
ENDBRANCH   2  21
TORSDOF 6
ENDMDL
MODEL 9
REMARK VINA RESULT:     -10.0      2.090      2.572
REMARK  Name = 24180720
REMARK  6 active torsions:
REMARK  status: ('A' for Active; 'I' for Inactive)
REMARK    1  A    between atoms: C_2  and  C_6
REMARK    2  A    between atoms: C_2  and  C_21
REMARK    3  A    between atoms: C_10  and  C_14
REMARK    4  A    between atoms: C_22  and  N_27
REMARK    5  A    between atoms: N_27  and  S_29
REMARK    6  A    between atoms: S_29  and  C_32
REMARK                            x       y       z     vdW  Elec       q    Type
REMARK                         _______ _______ _______ _____ _____    ______ ____
ROOT
ATOM      1  O   UNL     1      35.184 -14.163 -21.437  0.00  0.00    -0.286 OA
ATOM      2  C   UNL     1      34.361 -14.151 -22.372  0.00  0.00    +0.201 C 
ENDROOT
BRANCH   2   6
ATOM      3  N   UNL     1      33.711 -16.343 -25.162  0.00  0.00    -0.297 N 
ATOM      4  N   UNL     1      34.189 -18.606 -24.487  0.00  0.00    -0.229 NA
ATOM      5  C   UNL     1      34.422 -16.624 -23.063  0.00  0.00    +0.036 C 
ATOM      6  C   UNL     1      34.189 -15.241 -23.289  0.00  0.00    +0.056 C 
ATOM      7  C   UNL     1      34.113 -17.283 -24.250  0.00  0.00    +0.132 C 
ATOM      8  C   UNL     1      34.861 -17.407 -21.984  0.00  0.00    +0.005 C 
ATOM      9  C   UNL     1      33.753 -15.098 -24.589  0.00  0.00    +0.066 C 
ATOM     10  C   UNL     1      34.957 -18.784 -22.177  0.00  0.00    +0.021 C 
ATOM     11  C   UNL     1      34.617 -19.310 -23.415  0.00  0.00    +0.100 C 
ATOM     12  H   UNL     1      33.434 -16.532 -26.087  0.00  0.00    +0.154 HD
BRANCH  10  14
ATOM     13  N   UNL     1      37.161 -20.315 -19.588  0.00  0.00    -0.242 NA
ATOM     14  C   UNL     1      35.402 -19.646 -21.106  0.00  0.00    +0.021 C 
ATOM     15  C   UNL     1      34.559 -20.612 -20.565  0.00  0.00    +0.003 C 
ATOM     16  C   UNL     1      36.682 -19.540 -20.587  0.00  0.00    +0.099 C 
ATOM     17  C   UNL     1      35.017 -21.429 -19.537  0.00  0.00    +0.021 C 
ATOM     18  C   UNL     1      36.313 -21.242 -19.088  0.00  0.00    +0.099 C 
ENDBRANCH  10  14
ENDBRANCH   2   6
BRANCH   2  21
ATOM     19  F   UNL     1      32.368 -13.431 -20.515  0.00  0.00    -0.203 F 
ATOM     20  F   UNL     1      34.698 -12.314 -24.496  0.00  0.00    -0.204 F 
ATOM     21  C   UNL     1      33.550 -12.900 -22.500  0.00  0.00    +0.095 C 
ATOM     22  C   UNL     1      31.821 -11.433 -21.667  0.00  0.00    +0.092 C 
ATOM     23  C   UNL     1      32.577 -12.599 -21.547  0.00  0.00    +0.160 C 
ATOM     24  C   UNL     1      33.767 -12.036 -23.573  0.00  0.00    +0.145 C 
ATOM     25  C   UNL     1      32.038 -10.569 -22.740  0.00  0.00    +0.020 C 
ATOM     26  C   UNL     1      33.011 -10.870 -23.693  0.00  0.00    +0.031 C 
BRANCH  22  27
ATOM     27  N   UNL     1      30.824 -11.123 -20.693  0.00  0.00    -0.217 N 
ATOM     28  H   UNL     1      29.904 -11.461 -20.786  0.00  0.00    +0.173 HD
BRANCH  27  29
ATOM     29  S   UNL     1      31.274 -10.143 -19.352  0.00  0.00    +0.054 S 
ATOM     30  O   UNL     1      30.120  -9.993 -18.484  0.00  0.00    -0.154 OA
ATOM     31  O   UNL     1      32.553 -10.560 -18.811  0.00  0.00    -0.154 OA
BRANCH  29  32
ATOM     32  C   UNL     1      31.510  -8.580 -20.170  0.00  0.00    +0.172 C 
ATOM     33  C   UNL     1      32.845  -7.964 -19.813  0.00  0.00    +0.029 C 
ENDBRANCH  29  32
ENDBRANCH  27  29
ENDBRANCH  22  27
ENDBRANCH   2  21
TORSDOF 6
ENDMDL
