MODEL 1
REMARK VINA RESULT:     -11.7      0.000      0.000
REMARK  Name = 59174488
REMARK  8 active torsions:
REMARK  status: ('A' for Active; 'I' for Inactive)
REMARK    1  A    between atoms: N_2  and  C_12
REMARK    2  A    between atoms: N_3  and  C_24
REMARK    3  A    between atoms: C_14  and  N_19
REMARK    4  A    between atoms: C_20  and  C_22
REMARK    5  A    between atoms: C_25  and  O_30
REMARK    6  A    between atoms: O_30  and  C_31
REMARK    7  A    between atoms: C_31  and  C_32
REMARK    8  A    between atoms: C_32  and  O_33
REMARK                            x       y       z     vdW  Elec       q    Type
REMARK                         _______ _______ _______ _____ _____    ______ ____
ROOT
ATOM      1  F   UNL     1      29.558 -22.834 -16.969  0.00  0.00    -0.198 F 
ATOM      2  N   UNL     1      32.237 -22.964 -17.622  0.00  0.00    -0.285 N 
ATOM      3  N   UNL     1      33.216 -23.854 -13.087  0.00  0.00    -0.247 N 
ATOM      4  N   UNL     1      32.751 -23.413 -15.342  0.00  0.00    -0.320 NA
ATOM      5  N   UNL     1      30.980 -23.539 -13.713  0.00  0.00    -0.167 NA
ATOM      6  C   UNL     1      31.818 -23.162 -16.283  0.00  0.00    +0.226 C 
ATOM      7  C   UNL     1      32.269 -23.589 -14.096  0.00  0.00    +0.150 C 
ATOM      8  C   UNL     1      30.466 -23.084 -16.020  0.00  0.00    +0.205 C 
ATOM      9  C   UNL     1      30.101 -23.283 -14.705  0.00  0.00    +0.145 C 
ATOM     10  H   UNL     1      31.573 -23.244 -18.291  0.00  0.00    +0.155 HD
ATOM     11  H   UNL     1      32.818 -23.976 -12.195  0.00  0.00    +0.165 HD
ENDROOT
BRANCH   2  12
ATOM     12  C   UNL     1      33.418 -22.445 -18.179  0.00  0.00    +0.051 C 
ATOM     13  C   UNL     1      33.355 -21.604 -19.290  0.00  0.00    +0.029 C 
ATOM     14  C   UNL     1      34.528 -21.090 -19.842  0.00  0.00    +0.052 C 
ATOM     15  C   UNL     1      34.654 -22.770 -17.619  0.00  0.00    +0.015 C 
ATOM     16  C   UNL     1      35.763 -21.414 -19.282  0.00  0.00    +0.015 C 
ATOM     17  C   UNL     1      35.827 -22.255 -18.170  0.00  0.00    +0.003 C 
BRANCH  14  19
ATOM     18  O   UNL     1      36.164 -18.672 -20.545  0.00  0.00    -0.270 OA
ATOM     19  N   UNL     1      34.465 -20.248 -20.954  0.00  0.00    -0.280 N 
ATOM     20  C   UNL     1      35.257 -19.126 -21.233  0.00  0.00    +0.250 C 
ATOM     21  H   UNL     1      33.778 -20.468 -21.623  0.00  0.00    +0.155 HD
BRANCH  20  22
ATOM     22  C   UNL     1      34.875 -18.491 -22.527  0.00  0.00    +0.058 C 
ATOM     23  C   UNL     1      34.406 -19.231 -23.536  0.00  0.00    +0.005 C 
ENDBRANCH  20  22
ENDBRANCH  14  19
ENDBRANCH   2  12
BRANCH   3  24
ATOM     24  C   UNL     1      34.620 -23.980 -13.104  0.00  0.00    +0.058 C 
ATOM     25  C   UNL     1      37.399 -24.225 -13.136  0.00  0.00    +0.139 C 
ATOM     26  C   UNL     1      35.359 -23.413 -14.144  0.00  0.00    +0.018 C 
ATOM     27  C   UNL     1      35.271 -24.670 -12.082  0.00  0.00    +0.018 C 
ATOM     28  C   UNL     1      36.749 -23.535 -14.159  0.00  0.00    +0.038 C 
ATOM     29  C   UNL     1      36.661 -24.793 -12.097  0.00  0.00    +0.038 C 
BRANCH  25  30
ATOM     30  O   UNL     1      38.755 -24.345 -13.152  0.00  0.00    -0.473 OA
BRANCH  30  31
ATOM     31  C   UNL     1      39.291 -25.668 -13.183  0.00  0.00    +0.237 C 
BRANCH  31  32
ATOM     32  C   UNL     1      38.996 -26.288 -14.534  0.00  0.00    +0.189 C 
BRANCH  32  33
ATOM     33  O   UNL     1      38.134 -27.406 -14.354  0.00  0.00    -0.347 OA
ATOM     34  C   UNL     1      36.880 -27.205 -14.989  0.00  0.00    +0.174 C 
ENDBRANCH  32  33
ENDBRANCH  31  32
ENDBRANCH  30  31
ENDBRANCH  25  30
ENDBRANCH   3  24
TORSDOF 8
ENDMDL
MODEL 2
REMARK VINA RESULT:      -9.7      1.035      1.513
REMARK  Name = 59174488
REMARK  8 active torsions:
REMARK  status: ('A' for Active; 'I' for Inactive)
REMARK    1  A    between atoms: N_2  and  C_12
REMARK    2  A    between atoms: N_3  and  C_24
REMARK    3  A    between atoms: C_14  and  N_19
REMARK    4  A    between atoms: C_20  and  C_22
REMARK    5  A    between atoms: C_25  and  O_30
REMARK    6  A    between atoms: O_30  and  C_31
REMARK    7  A    between atoms: C_31  and  C_32
REMARK    8  A    between atoms: C_32  and  O_33
REMARK                            x       y       z     vdW  Elec       q    Type
REMARK                         _______ _______ _______ _____ _____    ______ ____
ROOT
ATOM      1  F   UNL     1      29.311 -22.266 -16.671  0.00  0.00    -0.198 F 
ATOM      2  N   UNL     1      31.874 -22.780 -17.560  0.00  0.00    -0.285 N 
ATOM      3  N   UNL     1      32.873 -24.661 -13.344  0.00  0.00    -0.247 N 
ATOM      4  N   UNL     1      32.397 -23.732 -15.442  0.00  0.00    -0.320 NA
ATOM      5  N   UNL     1      30.719 -23.817 -13.716  0.00  0.00    -0.167 NA
ATOM      6  C   UNL     1      31.489 -23.138 -16.245  0.00  0.00    +0.226 C 
ATOM      7  C   UNL     1      31.951 -24.039 -14.209  0.00  0.00    +0.150 C 
ATOM      8  C   UNL     1      30.195 -22.855 -15.859  0.00  0.00    +0.205 C 
ATOM      9  C   UNL     1      29.862 -23.221 -14.571  0.00  0.00    +0.145 C 
ATOM     10  H   UNL     1      31.134 -22.800 -18.209  0.00  0.00    +0.155 HD
ATOM     11  H   UNL     1      32.503 -24.868 -12.456  0.00  0.00    +0.165 HD
ENDROOT
BRANCH   2  12
ATOM     12  C   UNL     1      33.106 -22.400 -18.117  0.00  0.00    +0.051 C 
ATOM     13  C   UNL     1      33.140 -21.562 -19.232  0.00  0.00    +0.029 C 
ATOM     14  C   UNL     1      34.364 -21.187 -19.785  0.00  0.00    +0.052 C 
ATOM     15  C   UNL     1      34.296 -22.861 -17.555  0.00  0.00    +0.015 C 
ATOM     16  C   UNL     1      35.554 -21.648 -19.222  0.00  0.00    +0.015 C 
ATOM     17  C   UNL     1      35.521 -22.485 -18.107  0.00  0.00    +0.003 C 
BRANCH  14  19
ATOM     18  O   UNL     1      36.170 -18.874 -20.424  0.00  0.00    -0.270 OA
ATOM     19  N   UNL     1      34.398 -20.348 -20.900  0.00  0.00    -0.280 N 
ATOM     20  C   UNL     1      35.267 -19.277 -21.148  0.00  0.00    +0.250 C 
ATOM     21  H   UNL     1      33.728 -20.530 -21.597  0.00  0.00    +0.155 HD
BRANCH  20  22
ATOM     22  C   UNL     1      34.978 -18.626 -22.459  0.00  0.00    +0.058 C 
ATOM     23  C   UNL     1      34.454 -19.330 -23.467  0.00  0.00    +0.005 C 
ENDBRANCH  20  22
ENDBRANCH  14  19
ENDBRANCH   2  12
BRANCH   3  24
ATOM     24  C   UNL     1      34.221 -25.046 -13.501  0.00  0.00    +0.058 C 
ATOM     25  C   UNL     1      36.886 -25.810 -13.809  0.00  0.00    +0.139 C 
ATOM     26  C   UNL     1      35.106 -24.941 -12.427  0.00  0.00    +0.018 C 
ATOM     27  C   UNL     1      34.669 -25.532 -14.728  0.00  0.00    +0.018 C 
ATOM     28  C   UNL     1      36.438 -25.324 -12.581  0.00  0.00    +0.038 C 
ATOM     29  C   UNL     1      36.002 -25.914 -14.883  0.00  0.00    +0.038 C 
BRANCH  25  30
ATOM     30  O   UNL     1      38.187 -26.183 -13.960  0.00  0.00    -0.473 OA
BRANCH  30  31
ATOM     31  C   UNL     1      39.133 -25.620 -13.052  0.00  0.00    +0.237 C 
BRANCH  31  32
ATOM     32  C   UNL     1      40.525 -26.077 -13.442  0.00  0.00    +0.189 C 
BRANCH  32  33
ATOM     33  O   UNL     1      40.687 -25.922 -14.847  0.00  0.00    -0.347 OA
ATOM     34  C   UNL     1      40.176 -24.675 -15.296  0.00  0.00    +0.174 C 
ENDBRANCH  32  33
ENDBRANCH  31  32
ENDBRANCH  30  31
ENDBRANCH  25  30
ENDBRANCH   3  24
TORSDOF 8
ENDMDL
MODEL 3
REMARK VINA RESULT:      -9.6      2.168      8.284
REMARK  Name = 59174488
REMARK  8 active torsions:
REMARK  status: ('A' for Active; 'I' for Inactive)
REMARK    1  A    between atoms: N_2  and  C_12
REMARK    2  A    between atoms: N_3  and  C_24
REMARK    3  A    between atoms: C_14  and  N_19
REMARK    4  A    between atoms: C_20  and  C_22
REMARK    5  A    between atoms: C_25  and  O_30
REMARK    6  A    between atoms: O_30  and  C_31
REMARK    7  A    between atoms: C_31  and  C_32
REMARK    8  A    between atoms: C_32  and  O_33
REMARK                            x       y       z     vdW  Elec       q    Type
REMARK                         _______ _______ _______ _____ _____    ______ ____
ROOT
ATOM      1  F   UNL     1      32.408 -24.854 -13.028  0.00  0.00    -0.198 F 
ATOM      2  N   UNL     1      34.659 -23.678 -14.112  0.00  0.00    -0.285 N 
ATOM      3  N   UNL     1      32.145 -22.605 -17.965  0.00  0.00    -0.247 N 
ATOM      4  N   UNL     1      33.409 -23.129 -16.062  0.00  0.00    -0.320 NA
ATOM      5  N   UNL     1      31.085 -23.744 -16.213  0.00  0.00    -0.167 NA
ATOM      6  C   UNL     1      33.442 -23.695 -14.838  0.00  0.00    +0.226 C 
ATOM      7  C   UNL     1      32.216 -23.188 -16.684  0.00  0.00    +0.150 C 
ATOM      8  C   UNL     1      32.353 -24.298 -14.244  0.00  0.00    +0.205 C 
ATOM      9  C   UNL     1      31.189 -24.293 -14.984  0.00  0.00    +0.145 C 
ATOM     10  H   UNL     1      34.537 -23.659 -13.136  0.00  0.00    +0.155 HD
ATOM     11  H   UNL     1      31.255 -22.672 -18.380  0.00  0.00    +0.165 HD
ENDROOT
BRANCH   2  12
ATOM     12  C   UNL     1      36.004 -23.684 -14.516  0.00  0.00    +0.051 C 
ATOM     13  C   UNL     1      36.921 -24.519 -13.878  0.00  0.00    +0.029 C 
ATOM     14  C   UNL     1      38.257 -24.524 -14.280  0.00  0.00    +0.052 C 
ATOM     15  C   UNL     1      36.422 -22.855 -15.557  0.00  0.00    +0.015 C 
ATOM     16  C   UNL     1      38.675 -23.694 -15.320  0.00  0.00    +0.015 C 
ATOM     17  C   UNL     1      37.758 -22.859 -15.959  0.00  0.00    +0.003 C 
BRANCH  14  19
ATOM     18  O   UNL     1      40.525 -26.138 -15.404  0.00  0.00    -0.270 OA
ATOM     19  N   UNL     1      39.174 -25.360 -13.642  0.00  0.00    -0.280 N 
ATOM     20  C   UNL     1      40.219 -26.094 -14.218  0.00  0.00    +0.250 C 
ATOM     21  H   UNL     1      39.074 -25.445 -12.667  0.00  0.00    +0.155 HD
BRANCH  20  22
ATOM     22  C   UNL     1      40.977 -26.870 -13.195  0.00  0.00    +0.058 C 
ATOM     23  C   UNL     1      41.693 -27.942 -13.547  0.00  0.00    +0.005 C 
ENDBRANCH  20  22
ENDBRANCH  14  19
ENDBRANCH   2  12
BRANCH   3  24
ATOM     24  C   UNL     1      33.097 -21.945 -18.768  0.00  0.00    +0.058 C 
ATOM     25  C   UNL     1      34.981 -20.642 -20.360  0.00  0.00    +0.139 C 
ATOM     26  C   UNL     1      34.443 -22.309 -18.697  0.00  0.00    +0.018 C 
ATOM     27  C   UNL     1      32.695 -20.929 -19.634  0.00  0.00    +0.018 C 
ATOM     28  C   UNL     1      35.385 -21.658 -19.493  0.00  0.00    +0.038 C 
ATOM     29  C   UNL     1      33.637 -20.277 -20.431  0.00  0.00    +0.038 C 
BRANCH  25  30
ATOM     30  O   UNL     1      35.901 -20.006 -21.137  0.00  0.00    -0.473 OA
BRANCH  30  31
ATOM     31  C   UNL     1      35.699 -18.613 -21.374  0.00  0.00    +0.237 C 
BRANCH  31  32
ATOM     32  C   UNL     1      35.408 -18.399 -22.846  0.00  0.00    +0.189 C 
BRANCH  32  33
ATOM     33  O   UNL     1      34.829 -17.111 -23.022  0.00  0.00    -0.347 OA
ATOM     34  C   UNL     1      34.701 -16.782 -24.398  0.00  0.00    +0.174 C 
ENDBRANCH  32  33
ENDBRANCH  31  32
ENDBRANCH  30  31
ENDBRANCH  25  30
ENDBRANCH   3  24
TORSDOF 8
ENDMDL
