MODEL 1
REMARK VINA RESULT:     -13.1      0.000      0.000
REMARK  Name = 10200813
REMARK  4 active torsions:
REMARK  status: ('A' for Active; 'I' for Inactive)
REMARK    1  A    between atoms: C_3  and  C_24
REMARK    2  A    between atoms: C_8  and  C_11
REMARK    3  A    between atoms: N_10  and  C_16
REMARK    4  A    between atoms: C_24  and  C_26
REMARK                            x       y       z     vdW  Elec       q    Type
REMARK                         _______ _______ _______ _____ _____    ______ ____
ROOT
ATOM      1  O   UNL     1      35.018 -17.548 -23.676  0.00  0.00    -0.265 OA
ATOM      2  N   UNL     1      34.674 -15.729 -22.227  0.00  0.00    -0.272 N 
ATOM      3  C   UNL     1      33.025 -13.418 -21.654  0.00  0.00    +0.008 C 
ATOM      4  C   UNL     1      33.100 -14.030 -23.061  0.00  0.00    +0.022 C 
ATOM      5  C   UNL     1      33.307 -14.492 -20.592  0.00  0.00    +0.022 C 
ATOM      6  C   UNL     1      34.430 -14.748 -23.281  0.00  0.00    +0.094 C 
ATOM      7  C   UNL     1      34.632 -15.203 -20.859  0.00  0.00    +0.094 C 
ATOM      8  C   UNL     1      34.966 -17.044 -22.561  0.00  0.00    +0.303 C 
ENDROOT
BRANCH   8  11
ATOM      9  O   UNL     1      36.100 -17.597 -20.630  0.00  0.00    -0.265 OA
ATOM     10  N   UNL     1      34.483 -19.106 -21.471  0.00  0.00    -0.277 N 
ATOM     11  C   UNL     1      35.250 -17.959 -21.432  0.00  0.00    +0.303 C 
ATOM     12  H   UNL     1      33.852 -19.185 -22.223  0.00  0.00    +0.155 HD
BRANCH  10  16
ATOM     13  O   UNL     1      32.336 -22.149 -18.329  0.00  0.00    -0.407 OA
ATOM     14  O   UNL     1      32.345 -23.906 -16.825  0.00  0.00    -0.223 OA
ATOM     15  N   UNL     1      34.311 -23.236 -17.881  0.00  0.00    -0.287 N 
ATOM     16  C   UNL     1      34.503 -20.180 -20.552  0.00  0.00    +0.054 C 
ATOM     17  C   UNL     1      33.317 -20.560 -19.935  0.00  0.00    +0.054 C 
ATOM     18  C   UNL     1      35.720 -20.827 -20.295  0.00  0.00    +0.016 C 
ATOM     19  C   UNL     1      33.392 -21.613 -19.049  0.00  0.00    +0.167 A 
ATOM     20  C   UNL     1      34.585 -22.252 -18.793  0.00  0.00    +0.096 A 
ATOM     21  C   UNL     1      35.772 -21.892 -19.393  0.00  0.00    +0.022 C 
ATOM     22  C   UNL     1      32.956 -23.179 -17.598  0.00  0.00    +0.419 A 
ATOM     23  H   UNL     1      34.960 -23.870 -17.496  0.00  0.00    +0.172 HD
ENDBRANCH  10  16
ENDBRANCH   8  11
BRANCH   3  24
ATOM     24  C   UNL     1      31.666 -12.763 -21.418  0.00  0.00    +0.026 C 
BRANCH  24  26
ATOM     25  F   UNL     1      32.202  -7.590 -19.289  0.00  0.00    -0.204 F 
ATOM     26  C   UNL     1      31.808 -11.379 -20.849  0.00  0.00    -0.022 C 
ATOM     27  C   UNL     1      31.904 -10.292 -21.707  0.00  0.00    -0.002 C 
ATOM     28  C   UNL     1      31.844 -11.206 -19.471  0.00  0.00    -0.002 C 
ATOM     29  C   UNL     1      32.037  -9.008 -21.178  0.00  0.00    +0.029 C 
ATOM     30  C   UNL     1      31.977  -9.922 -18.942  0.00  0.00    +0.029 C 
ATOM     31  C   UNL     1      32.073  -8.823 -19.796  0.00  0.00    +0.140 C 
ENDBRANCH  24  26
ENDBRANCH   3  24
TORSDOF 4
ENDMDL
MODEL 2
REMARK VINA RESULT:     -12.7      4.795      7.445
REMARK  Name = 10200813
REMARK  4 active torsions:
REMARK  status: ('A' for Active; 'I' for Inactive)
REMARK    1  A    between atoms: C_3  and  C_24
REMARK    2  A    between atoms: C_8  and  C_11
REMARK    3  A    between atoms: N_10  and  C_16
REMARK    4  A    between atoms: C_24  and  C_26
REMARK                            x       y       z     vdW  Elec       q    Type
REMARK                         _______ _______ _______ _____ _____    ______ ____
ROOT
ATOM      1  O   UNL     1      31.889 -22.277 -17.647  0.00  0.00    -0.265 OA
ATOM      2  N   UNL     1      33.601 -22.031 -19.240  0.00  0.00    -0.272 N 
ATOM      3  C   UNL     1      35.046 -20.162 -20.916  0.00  0.00    +0.008 C 
ATOM      4  C   UNL     1      33.637 -19.852 -20.387  0.00  0.00    +0.022 C 
ATOM      5  C   UNL     1      35.774 -21.119 -19.959  0.00  0.00    +0.022 C 
ATOM      6  C   UNL     1      32.853 -21.136 -20.120  0.00  0.00    +0.094 C 
ATOM      7  C   UNL     1      34.950 -22.377 -19.698  0.00  0.00    +0.094 C 
ATOM      8  C   UNL     1      33.005 -22.523 -18.087  0.00  0.00    +0.303 C 
ENDROOT
BRANCH   8  11
ATOM      9  O   UNL     1      33.588 -24.657 -17.432  0.00  0.00    -0.265 OA
ATOM     10  N   UNL     1      34.727 -22.820 -16.468  0.00  0.00    -0.277 N 
ATOM     11  C   UNL     1      33.816 -23.464 -17.281  0.00  0.00    +0.303 C 
ATOM     12  H   UNL     1      34.735 -21.836 -16.514  0.00  0.00    +0.155 HD
BRANCH  10  16
ATOM     13  O   UNL     1      35.865 -25.736 -12.734  0.00  0.00    -0.407 OA
ATOM     14  O   UNL     1      37.357 -26.724 -11.268  0.00  0.00    -0.223 OA
ATOM     15  N   UNL     1      38.105 -25.249 -12.910  0.00  0.00    -0.287 N 
ATOM     16  C   UNL     1      35.650 -23.415 -15.577  0.00  0.00    +0.054 C 
ATOM     17  C   UNL     1      35.177 -24.291 -14.607  0.00  0.00    +0.054 C 
ATOM     18  C   UNL     1      37.010 -23.103 -15.704  0.00  0.00    +0.016 C 
ATOM     19  C   UNL     1      36.117 -24.844 -13.765  0.00  0.00    +0.167 A 
ATOM     20  C   UNL     1      37.456 -24.540 -13.885  0.00  0.00    +0.096 A 
ATOM     21  C   UNL     1      37.945 -23.676 -14.839  0.00  0.00    +0.022 C 
ATOM     22  C   UNL     1      37.151 -25.972 -12.212  0.00  0.00    +0.419 A 
ATOM     23  H   UNL     1      39.074 -25.246 -12.735  0.00  0.00    +0.172 HD
ENDBRANCH  10  16
ENDBRANCH   8  11
BRANCH   3  24
ATOM     24  C   UNL     1      35.847 -18.876 -21.112  0.00  0.00    +0.026 C 
BRANCH  24  26
ATOM     25  F   UNL     1      33.806 -15.791 -25.344  0.00  0.00    -0.204 F 
ATOM     26  C   UNL     1      35.300 -18.051 -22.245  0.00  0.00    -0.022 C 
ATOM     27  C   UNL     1      34.828 -18.683 -23.387  0.00  0.00    -0.002 C 
ATOM     28  C   UNL     1      35.276 -16.667 -22.133  0.00  0.00    -0.002 C 
ATOM     29  C   UNL     1      34.321 -17.917 -24.436  0.00  0.00    +0.029 C 
ATOM     30  C   UNL     1      34.769 -15.901 -23.183  0.00  0.00    +0.029 C 
ATOM     31  C   UNL     1      34.291 -16.526 -24.334  0.00  0.00    +0.140 C 
ENDBRANCH  24  26
ENDBRANCH   3  24
TORSDOF 4
ENDMDL
MODEL 3
REMARK VINA RESULT:     -12.4      1.480      1.848
REMARK  Name = 10200813
REMARK  4 active torsions:
REMARK  status: ('A' for Active; 'I' for Inactive)
REMARK    1  A    between atoms: C_3  and  C_24
REMARK    2  A    between atoms: C_8  and  C_11
REMARK    3  A    between atoms: N_10  and  C_16
REMARK    4  A    between atoms: C_24  and  C_26
REMARK                            x       y       z     vdW  Elec       q    Type
REMARK                         _______ _______ _______ _____ _____    ______ ____
ROOT
ATOM      1  O   UNL     1      34.541 -16.053 -25.292  0.00  0.00    -0.265 OA
ATOM      2  N   UNL     1      34.323 -15.080 -23.164  0.00  0.00    -0.272 N 
ATOM      3  C   UNL     1      32.885 -13.134 -21.569  0.00  0.00    +0.008 C 
ATOM      4  C   UNL     1      32.952 -13.035 -23.101  0.00  0.00    +0.022 C 
ATOM      5  C   UNL     1      33.023 -14.599 -21.126  0.00  0.00    +0.022 C 
ATOM      6  C   UNL     1      34.213 -13.704 -23.644  0.00  0.00    +0.094 C 
ATOM      7  C   UNL     1      34.282 -15.239 -21.707  0.00  0.00    +0.094 C 
ATOM      8  C   UNL     1      34.498 -16.115 -24.070  0.00  0.00    +0.303 C 
ENDROOT
BRANCH   8  11
ATOM      9  O   UNL     1      34.223 -18.404 -24.159  0.00  0.00    -0.265 OA
ATOM     10  N   UNL     1      35.274 -17.458 -22.262  0.00  0.00    -0.277 N 
ATOM     11  C   UNL     1      34.651 -17.471 -23.493  0.00  0.00    +0.303 C 
ATOM     12  H   UNL     1      35.539 -16.575 -21.914  0.00  0.00    +0.155 HD
BRANCH  10  16
ATOM     13  O   UNL     1      34.018 -21.431 -19.734  0.00  0.00    -0.407 OA
ATOM     14  O   UNL     1      34.487 -23.259 -18.398  0.00  0.00    -0.223 OA
ATOM     15  N   UNL     1      36.190 -21.830 -19.096  0.00  0.00    -0.287 N 
ATOM     16  C   UNL     1      35.575 -18.572 -21.443  0.00  0.00    +0.054 C 
ATOM     17  C   UNL     1      34.540 -19.408 -21.040  0.00  0.00    +0.054 C 
ATOM     18  C   UNL     1      36.906 -18.795 -21.067  0.00  0.00    +0.016 C 
ATOM     19  C   UNL     1      34.887 -20.479 -20.245  0.00  0.00    +0.167 A 
ATOM     20  C   UNL     1      36.194 -20.702 -19.872  0.00  0.00    +0.096 A 
ATOM     21  C   UNL     1      37.234 -19.886 -20.260  0.00  0.00    +0.022 C 
ATOM     22  C   UNL     1      34.881 -22.274 -19.009  0.00  0.00    +0.419 A 
ATOM     23  H   UNL     1      36.975 -22.250 -18.675  0.00  0.00    +0.172 HD
ENDBRANCH  10  16
ENDBRANCH   8  11
BRANCH   3  24
ATOM     24  C   UNL     1      31.588 -12.526 -21.042  0.00  0.00    +0.026 C 
BRANCH  24  26
ATOM     25  F   UNL     1      32.340  -7.233 -19.308  0.00  0.00    -0.204 F 
ATOM     26  C   UNL     1      31.789 -11.110 -20.578  0.00  0.00    -0.022 C 
ATOM     27  C   UNL     1      31.937 -10.097 -21.516  0.00  0.00    -0.002 C 
ATOM     28  C   UNL     1      31.824 -10.834 -19.217  0.00  0.00    -0.002 C 
ATOM     29  C   UNL     1      32.123  -8.783 -21.085  0.00  0.00    +0.029 C 
ATOM     30  C   UNL     1      32.011  -9.520 -18.787  0.00  0.00    +0.029 C 
ATOM     31  C   UNL     1      32.160  -8.495 -19.721  0.00  0.00    +0.140 C 
ENDBRANCH  24  26
ENDBRANCH   3  24
TORSDOF 4
ENDMDL
MODEL 4
REMARK VINA RESULT:     -12.0      5.178     10.480
REMARK  Name = 10200813
REMARK  4 active torsions:
REMARK  status: ('A' for Active; 'I' for Inactive)
REMARK    1  A    between atoms: C_3  and  C_24
REMARK    2  A    between atoms: C_8  and  C_11
REMARK    3  A    between atoms: N_10  and  C_16
REMARK    4  A    between atoms: C_24  and  C_26
REMARK                            x       y       z     vdW  Elec       q    Type
REMARK                         _______ _______ _______ _____ _____    ______ ____
ROOT
ATOM      1  O   UNL     1      33.408 -13.736 -25.826  0.00  0.00    -0.265 OA
ATOM      2  N   UNL     1      33.645 -14.996 -23.856  0.00  0.00    -0.272 N 
ATOM      3  C   UNL     1      34.877 -17.324 -22.649  0.00  0.00    +0.008 C 
ATOM      4  C   UNL     1      34.667 -17.215 -24.167  0.00  0.00    +0.022 C 
ATOM      5  C   UNL     1      35.016 -15.924 -22.030  0.00  0.00    +0.022 C 
ATOM      6  C   UNL     1      33.489 -16.300 -24.498  0.00  0.00    +0.094 C 
ATOM      7  C   UNL     1      33.833 -15.033 -22.402  0.00  0.00    +0.094 C 
ATOM      8  C   UNL     1      33.564 -13.839 -24.615  0.00  0.00    +0.303 C 
ENDROOT
BRANCH   8  11
ATOM      9  O   UNL     1      34.745 -11.963 -23.974  0.00  0.00    -0.265 OA
ATOM     10  N   UNL     1      32.533 -12.242 -23.179  0.00  0.00    -0.277 N 
ATOM     11  C   UNL     1      33.681 -12.560 -23.876  0.00  0.00    +0.303 C 
ATOM     12  H   UNL     1      31.787 -12.882 -23.248  0.00  0.00    +0.155 HD
BRANCH  10  16
ATOM     13  O   UNL     1      32.690  -7.444 -22.344  0.00  0.00    -0.407 OA
ATOM     14  O   UNL     1      32.330  -5.563 -21.047  0.00  0.00    -0.223 OA
ATOM     15  N   UNL     1      31.759  -7.679 -20.255  0.00  0.00    -0.287 N 
ATOM     16  C   UNL     1      32.309 -11.100 -22.375  0.00  0.00    +0.054 C 
ATOM     17  C   UNL     1      32.659  -9.850 -22.871  0.00  0.00    +0.054 C 
ATOM     18  C   UNL     1      31.740 -11.268 -21.105  0.00  0.00    +0.016 C 
ATOM     19  C   UNL     1      32.419  -8.771 -22.048  0.00  0.00    +0.167 A 
ATOM     20  C   UNL     1      31.860  -8.931 -20.799  0.00  0.00    +0.096 A 
ATOM     21  C   UNL     1      31.506 -10.160 -20.289  0.00  0.00    +0.022 C 
ATOM     22  C   UNL     1      32.258  -6.778 -21.182  0.00  0.00    +0.419 A 
ATOM     23  H   UNL     1      31.397  -7.457 -19.366  0.00  0.00    +0.172 HD
ENDBRANCH  10  16
ENDBRANCH   8  11
BRANCH   3  24
ATOM     24  C   UNL     1      36.099 -18.183 -22.331  0.00  0.00    +0.026 C 
BRANCH  24  26
ATOM     25  F   UNL     1      34.869 -22.246 -18.647  0.00  0.00    -0.204 F 
ATOM     26  C   UNL     1      35.769 -19.270 -21.346  0.00  0.00    -0.022 C 
ATOM     27  C   UNL     1      34.461 -19.721 -21.236  0.00  0.00    -0.002 C 
ATOM     28  C   UNL     1      36.779 -19.808 -20.558  0.00  0.00    -0.002 C 
ATOM     29  C   UNL     1      34.156 -20.730 -20.322  0.00  0.00    +0.029 C 
ATOM     30  C   UNL     1      36.474 -20.817 -19.644  0.00  0.00    +0.029 C 
ATOM     31  C   UNL     1      35.163 -21.278 -19.526  0.00  0.00    +0.140 C 
ENDBRANCH  24  26
ENDBRANCH   3  24
TORSDOF 4
ENDMDL
MODEL 5
REMARK VINA RESULT:     -11.6      1.799      2.171
REMARK  Name = 10200813
REMARK  4 active torsions:
REMARK  status: ('A' for Active; 'I' for Inactive)
REMARK    1  A    between atoms: C_3  and  C_24
REMARK    2  A    between atoms: C_8  and  C_11
REMARK    3  A    between atoms: N_10  and  C_16
REMARK    4  A    between atoms: C_24  and  C_26
REMARK                            x       y       z     vdW  Elec       q    Type
REMARK                         _______ _______ _______ _____ _____    ______ ____
ROOT
ATOM      1  O   UNL     1      34.424 -18.017 -24.856  0.00  0.00    -0.265 OA
ATOM      2  N   UNL     1      34.549 -16.110 -23.487  0.00  0.00    -0.272 N 
ATOM      3  C   UNL     1      33.224 -13.661 -22.685  0.00  0.00    +0.008 C 
ATOM      4  C   UNL     1      32.918 -14.345 -24.026  0.00  0.00    +0.022 C 
ATOM      5  C   UNL     1      33.696 -14.700 -21.655  0.00  0.00    +0.022 C 
ATOM      6  C   UNL     1      34.111 -15.166 -24.513  0.00  0.00    +0.094 C 
ATOM      7  C   UNL     1      34.872 -15.515 -22.186  0.00  0.00    +0.094 C 
ATOM      8  C   UNL     1      34.675 -17.456 -23.796  0.00  0.00    +0.303 C 
ENDROOT
BRANCH   8  11
ATOM      9  O   UNL     1      36.384 -18.350 -22.530  0.00  0.00    -0.265 OA
ATOM     10  N   UNL     1      34.159 -19.007 -22.064  0.00  0.00    -0.277 N 
ATOM     11  C   UNL     1      35.174 -18.333 -22.712  0.00  0.00    +0.303 C 
ATOM     12  H   UNL     1      33.244 -18.835 -22.385  0.00  0.00    +0.155 HD
BRANCH  10  16
ATOM     13  O   UNL     1      36.764 -21.411 -18.719  0.00  0.00    -0.407 OA
ATOM     14  O   UNL     1      36.995 -22.894 -16.960  0.00  0.00    -0.223 OA
ATOM     15  N   UNL     1      34.903 -22.484 -17.901  0.00  0.00    -0.287 N 
ATOM     16  C   UNL     1      34.287 -19.918 -20.989  0.00  0.00    +0.054 C 
ATOM     17  C   UNL     1      35.546 -20.145 -20.447  0.00  0.00    +0.054 C 
ATOM     18  C   UNL     1      33.139 -20.560 -20.507  0.00  0.00    +0.016 C 
ATOM     19  C   UNL     1      35.616 -21.041 -19.402  0.00  0.00    +0.167 A 
ATOM     20  C   UNL     1      34.489 -21.675 -18.924  0.00  0.00    +0.096 A 
ATOM     21  C   UNL     1      33.233 -21.464 -19.447  0.00  0.00    +0.022 C 
ATOM     22  C   UNL     1      36.274 -22.329 -17.772  0.00  0.00    +0.419 A 
ATOM     23  H   UNL     1      34.331 -23.070 -17.354  0.00  0.00    +0.172 HD
ENDBRANCH  10  16
ENDBRANCH   8  11
BRANCH   3  24
ATOM     24  C   UNL     1      32.004 -12.902 -22.171  0.00  0.00    +0.026 C 
BRANCH  24  26
ATOM     25  F   UNL     1      32.845  -7.345 -22.237  0.00  0.00    -0.204 F 
ATOM     26  C   UNL     1      32.228 -11.415 -22.190  0.00  0.00    -0.022 C 
ATOM     27  C   UNL     1      33.050 -10.859 -23.161  0.00  0.00    -0.002 C 
ATOM     28  C   UNL     1      31.612 -10.618 -21.234  0.00  0.00    -0.002 C 
ATOM     29  C   UNL     1      33.258  -9.479 -23.177  0.00  0.00    +0.029 C 
ATOM     30  C   UNL     1      31.820  -9.239 -21.250  0.00  0.00    +0.029 C 
ATOM     31  C   UNL     1      32.643  -8.670 -22.222  0.00  0.00    +0.140 C 
ENDBRANCH  24  26
ENDBRANCH   3  24
TORSDOF 4
ENDMDL
MODEL 6
REMARK VINA RESULT:     -11.4      4.138      6.872
REMARK  Name = 10200813
REMARK  4 active torsions:
REMARK  status: ('A' for Active; 'I' for Inactive)
REMARK    1  A    between atoms: C_3  and  C_24
REMARK    2  A    between atoms: C_8  and  C_11
REMARK    3  A    between atoms: N_10  and  C_16
REMARK    4  A    between atoms: C_24  and  C_26
REMARK                            x       y       z     vdW  Elec       q    Type
REMARK                         _______ _______ _______ _____ _____    ______ ____
ROOT
ATOM      1  O   UNL     1      31.710 -11.297 -19.481  0.00  0.00    -0.265 OA
ATOM      2  N   UNL     1      32.144 -10.169 -21.497  0.00  0.00    -0.272 N 
ATOM      3  C   UNL     1      33.453  -7.892 -22.719  0.00  0.00    +0.008 C 
ATOM      4  C   UNL     1      33.071  -7.903 -21.231  0.00  0.00    +0.022 C 
ATOM      5  C   UNL     1      33.695  -9.326 -23.216  0.00  0.00    +0.022 C 
ATOM      6  C   UNL     1      31.884  -8.830 -20.972  0.00  0.00    +0.094 C 
ATOM      7  C   UNL     1      32.499 -10.227 -22.918  0.00  0.00    +0.094 C 
ATOM      8  C   UNL     1      32.002 -11.274 -20.670  0.00  0.00    +0.303 C 
ENDROOT
BRANCH   8  11
ATOM      9  O   UNL     1      31.283 -13.106 -21.874  0.00  0.00    -0.265 OA
ATOM     10  N   UNL     1      33.527 -13.047 -21.123  0.00  0.00    -0.277 N 
ATOM     11  C   UNL     1      32.234 -12.595 -21.296  0.00  0.00    +0.303 C 
ATOM     12  H   UNL     1      34.132 -12.458 -20.616  0.00  0.00    +0.155 HD
BRANCH  10  16
ATOM     13  O   UNL     1      35.374 -17.504 -20.439  0.00  0.00    -0.407 OA
ATOM     14  O   UNL     1      36.275 -19.500 -21.182  0.00  0.00    -0.223 OA
ATOM     15  N   UNL     1      35.676 -17.831 -22.694  0.00  0.00    -0.287 N 
ATOM     16  C   UNL     1      34.079 -14.262 -21.591  0.00  0.00    +0.054 C 
ATOM     17  C   UNL     1      34.428 -15.241 -20.668  0.00  0.00    +0.054 C 
ATOM     18  C   UNL     1      34.254 -14.438 -22.970  0.00  0.00    +0.016 C 
ATOM     19  C   UNL     1      34.960 -16.406 -21.177  0.00  0.00    +0.167 A 
ATOM     20  C   UNL     1      35.134 -16.584 -22.532  0.00  0.00    +0.096 A 
ATOM     21  C   UNL     1      34.795 -15.628 -23.463  0.00  0.00    +0.022 C 
ATOM     22  C   UNL     1      35.823 -18.391 -21.435  0.00  0.00    +0.419 A 
ATOM     23  H   UNL     1      35.918 -18.254 -23.550  0.00  0.00    +0.172 HD
ENDBRANCH  10  16
ENDBRANCH   8  11
BRANCH   3  24
ATOM     24  C   UNL     1      34.682  -7.019 -22.958  0.00  0.00    +0.026 C 
BRANCH  24  26
ATOM     25  F   UNL     1      33.871  -3.413 -27.191  0.00  0.00    -0.204 F 
ATOM     26  C   UNL     1      34.465  -6.054 -24.090  0.00  0.00    -0.022 C 
ATOM     27  C   UNL     1      33.300  -5.300 -24.133  0.00  0.00    -0.002 C 
ATOM     28  C   UNL     1      35.433  -5.930 -25.078  0.00  0.00    -0.002 C 
ATOM     29  C   UNL     1      33.099  -4.405 -25.184  0.00  0.00    +0.029 C 
ATOM     30  C   UNL     1      35.232  -5.034 -26.129  0.00  0.00    +0.029 C 
ATOM     31  C   UNL     1      34.065  -4.272 -26.182  0.00  0.00    +0.140 C 
ENDBRANCH  24  26
ENDBRANCH   3  24
TORSDOF 4
ENDMDL
MODEL 7
REMARK VINA RESULT:     -11.3      4.703     10.165
REMARK  Name = 10200813
REMARK  4 active torsions:
REMARK  status: ('A' for Active; 'I' for Inactive)
REMARK    1  A    between atoms: C_3  and  C_24
REMARK    2  A    between atoms: C_8  and  C_11
REMARK    3  A    between atoms: N_10  and  C_16
REMARK    4  A    between atoms: C_24  and  C_26
REMARK                            x       y       z     vdW  Elec       q    Type
REMARK                         _______ _______ _______ _____ _____    ______ ____
ROOT
ATOM      1  O   UNL     1      37.629 -19.304 -19.700  0.00  0.00    -0.265 OA
ATOM      2  N   UNL     1      35.772 -20.700 -20.059  0.00  0.00    -0.272 N 
ATOM      3  C   UNL     1      33.719 -22.307 -18.796  0.00  0.00    +0.008 C 
ATOM      4  C   UNL     1      35.034 -21.964 -18.079  0.00  0.00    +0.022 C 
ATOM      5  C   UNL     1      33.374 -21.217 -19.822  0.00  0.00    +0.022 C 
ATOM      6  C   UNL     1      36.160 -21.713 -19.080  0.00  0.00    +0.094 C 
ATOM      7  C   UNL     1      34.531 -20.978 -20.790  0.00  0.00    +0.094 C 
ATOM      8  C   UNL     1      36.586 -19.597 -20.271  0.00  0.00    +0.303 C 
ENDROOT
BRANCH   8  11
ATOM      9  O   UNL     1      36.414 -18.937 -22.475  0.00  0.00    -0.265 OA
ATOM     10  N   UNL     1      35.472 -17.558 -20.798  0.00  0.00    -0.277 N 
ATOM     11  C   UNL     1      36.142 -18.647 -21.318  0.00  0.00    +0.303 C 
ATOM     12  H   UNL     1      35.368 -17.534 -19.819  0.00  0.00    +0.155 HD
BRANCH  10  16
ATOM     13  O   UNL     1      33.981 -15.398 -24.904  0.00  0.00    -0.407 OA
ATOM     14  O   UNL     1      33.077 -13.634 -26.096  0.00  0.00    -0.223 OA
ATOM     15  N   UNL     1      33.356 -13.489 -23.787  0.00  0.00    -0.287 N 
ATOM     16  C   UNL     1      34.920 -16.471 -21.516  0.00  0.00    +0.054 C 
ATOM     17  C   UNL     1      34.765 -16.584 -22.892  0.00  0.00    +0.054 C 
ATOM     18  C   UNL     1      34.546 -15.318 -20.813  0.00  0.00    +0.016 C 
ATOM     19  C   UNL     1      34.221 -15.497 -23.543  0.00  0.00    +0.167 A 
ATOM     20  C   UNL     1      33.853 -14.361 -22.857  0.00  0.00    +0.096 A 
ATOM     21  C   UNL     1      33.997 -14.228 -21.493  0.00  0.00    +0.022 C 
ATOM     22  C   UNL     1      33.431 -14.108 -25.024  0.00  0.00    +0.419 A 
ATOM     23  H   UNL     1      33.008 -12.584 -23.611  0.00  0.00    +0.172 HD
ENDBRANCH  10  16
ENDBRANCH   8  11
BRANCH   3  24
ATOM     24  C   UNL     1      32.584 -22.487 -17.791  0.00  0.00    +0.026 C 
BRANCH  24  26
ATOM     25  F   UNL     1      34.358 -25.004 -13.089  0.00  0.00    -0.204 F 
ATOM     26  C   UNL     1      33.059 -23.160 -16.533  0.00  0.00    -0.022 C 
ATOM     27  C   UNL     1      34.324 -23.730 -16.497  0.00  0.00    -0.002 C 
ATOM     28  C   UNL     1      32.225 -23.203 -15.423  0.00  0.00    -0.002 C 
ATOM     29  C   UNL     1      34.764 -24.354 -15.330  0.00  0.00    +0.029 C 
ATOM     30  C   UNL     1      32.665 -23.828 -14.256  0.00  0.00    +0.029 C 
ATOM     31  C   UNL     1      33.935 -24.403 -14.209  0.00  0.00    +0.140 C 
ENDBRANCH  24  26
ENDBRANCH   3  24
TORSDOF 4
ENDMDL
MODEL 8
REMARK VINA RESULT:     -11.1      4.098      6.261
REMARK  Name = 10200813
REMARK  4 active torsions:
REMARK  status: ('A' for Active; 'I' for Inactive)
REMARK    1  A    between atoms: C_3  and  C_24
REMARK    2  A    between atoms: C_8  and  C_11
REMARK    3  A    between atoms: N_10  and  C_16
REMARK    4  A    between atoms: C_24  and  C_26
REMARK                            x       y       z     vdW  Elec       q    Type
REMARK                         _______ _______ _______ _____ _____    ______ ____
ROOT
ATOM      1  O   UNL     1      36.798 -22.573 -18.615  0.00  0.00    -0.265 OA
ATOM      2  N   UNL     1      35.502 -20.851 -19.555  0.00  0.00    -0.272 N 
ATOM      3  C   UNL     1      35.216 -19.034 -21.794  0.00  0.00    +0.008 C 
ATOM      4  C   UNL     1      36.570 -19.663 -21.429  0.00  0.00    +0.022 C 
ATOM      5  C   UNL     1      34.068 -19.952 -21.346  0.00  0.00    +0.022 C 
ATOM      6  C   UNL     1      36.634 -20.013 -19.943  0.00  0.00    +0.094 C 
ATOM      7  C   UNL     1      34.179 -20.299 -19.863  0.00  0.00    +0.094 C 
ATOM      8  C   UNL     1      35.726 -22.054 -18.902  0.00  0.00    +0.303 C 
ENDROOT
BRANCH   8  11
ATOM      9  O   UNL     1      34.053 -23.585 -19.329  0.00  0.00    -0.265 OA
ATOM     10  N   UNL     1      34.112 -22.524 -17.214  0.00  0.00    -0.277 N 
ATOM     11  C   UNL     1      34.521 -22.815 -18.500  0.00  0.00    +0.303 C 
ATOM     12  H   UNL     1      34.651 -21.862 -16.723  0.00  0.00    +0.155 HD
BRANCH  10  16
ATOM     13  O   UNL     1      29.330 -23.169 -16.535  0.00  0.00    -0.407 OA
ATOM     14  O   UNL     1      27.505 -24.053 -15.423  0.00  0.00    -0.223 OA
ATOM     15  N   UNL     1      29.673 -24.521 -14.708  0.00  0.00    -0.287 N 
ATOM     16  C   UNL     1      33.005 -23.070 -16.524  0.00  0.00    +0.054 C 
ATOM     17  C   UNL     1      31.722 -22.774 -16.970  0.00  0.00    +0.054 C 
ATOM     18  C   UNL     1      33.239 -23.891 -15.413  0.00  0.00    +0.016 C 
ATOM     19  C   UNL     1      30.679 -23.332 -16.263  0.00  0.00    +0.167 A 
ATOM     20  C   UNL     1      30.904 -24.140 -15.170  0.00  0.00    +0.096 A 
ATOM     21  C   UNL     1      32.166 -24.446 -14.711  0.00  0.00    +0.022 C 
ATOM     22  C   UNL     1      28.720 -23.938 -15.527  0.00  0.00    +0.419 A 
ATOM     23  H   UNL     1      29.496 -25.104 -13.934  0.00  0.00    +0.172 HD
ENDBRANCH  10  16
ENDBRANCH   8  11
BRANCH   3  24
ATOM     24  C   UNL     1      35.135 -18.753 -23.292  0.00  0.00    +0.026 C 
BRANCH  24  26
ATOM     25  F   UNL     1      33.605 -13.443 -24.321  0.00  0.00    -0.204 F 
ATOM     26  C   UNL     1      34.726 -17.332 -23.567  0.00  0.00    -0.022 C 
ATOM     27  C   UNL     1      35.029 -16.341 -22.643  0.00  0.00    -0.002 C 
ATOM     28  C   UNL     1      34.050 -17.030 -24.742  0.00  0.00    -0.002 C 
ATOM     29  C   UNL     1      34.650 -15.024 -22.899  0.00  0.00    +0.029 C 
ATOM     30  C   UNL     1      33.670 -15.712 -24.998  0.00  0.00    +0.029 C 
ATOM     31  C   UNL     1      33.971 -14.709 -24.076  0.00  0.00    +0.140 C 
ENDBRANCH  24  26
ENDBRANCH   3  24
TORSDOF 4
ENDMDL
MODEL 9
REMARK VINA RESULT:     -11.0      4.401     10.244
REMARK  Name = 10200813
REMARK  4 active torsions:
REMARK  status: ('A' for Active; 'I' for Inactive)
REMARK    1  A    between atoms: C_3  and  C_24
REMARK    2  A    between atoms: C_8  and  C_11
REMARK    3  A    between atoms: N_10  and  C_16
REMARK    4  A    between atoms: C_24  and  C_26
REMARK                            x       y       z     vdW  Elec       q    Type
REMARK                         _______ _______ _______ _____ _____    ______ ____
ROOT
ATOM      1  O   UNL     1      37.431 -19.004 -20.456  0.00  0.00    -0.265 OA
ATOM      2  N   UNL     1      35.651 -20.534 -20.330  0.00  0.00    -0.272 N 
ATOM      3  C   UNL     1      34.249 -22.425 -18.642  0.00  0.00    +0.008 C 
ATOM      4  C   UNL     1      35.705 -22.019 -18.367  0.00  0.00    +0.022 C 
ATOM      5  C   UNL     1      33.511 -21.292 -19.372  0.00  0.00    +0.022 C 
ATOM      6  C   UNL     1      36.408 -21.583 -19.650  0.00  0.00    +0.094 C 
ATOM      7  C   UNL     1      34.256 -20.867 -20.635  0.00  0.00    +0.094 C 
ATOM      8  C   UNL     1      36.277 -19.346 -20.678  0.00  0.00    +0.303 C 
ENDROOT
BRANCH   8  11
ATOM      9  O   UNL     1      34.950 -18.734 -22.464  0.00  0.00    -0.265 OA
ATOM     10  N   UNL     1      35.371 -17.144 -20.761  0.00  0.00    -0.277 N 
ATOM     11  C   UNL     1      35.449 -18.360 -21.410  0.00  0.00    +0.303 C 
ATOM     12  H   UNL     1      35.861 -17.071 -19.910  0.00  0.00    +0.155 HD
BRANCH  10  16
ATOM     13  O   UNL     1      32.375 -13.381 -19.984  0.00  0.00    -0.407 OA
ATOM     14  O   UNL     1      31.218 -11.493 -20.651  0.00  0.00    -0.223 OA
ATOM     15  N   UNL     1      32.557 -12.661 -22.159  0.00  0.00    -0.287 N 
ATOM     16  C   UNL     1      34.667 -15.993 -21.183  0.00  0.00    +0.054 C 
ATOM     17  C   UNL     1      33.875 -15.315 -20.265  0.00  0.00    +0.054 C 
ATOM     18  C   UNL     1      34.794 -15.573 -22.514  0.00  0.00    +0.016 C 
ATOM     19  C   UNL     1      33.212 -14.199 -20.727  0.00  0.00    +0.167 A 
ATOM     20  C   UNL     1      33.333 -13.782 -22.034  0.00  0.00    +0.096 A 
ATOM     21  C   UNL     1      34.113 -14.438 -22.961  0.00  0.00    +0.022 C 
ATOM     22  C   UNL     1      31.976 -12.414 -20.925  0.00  0.00    +0.419 A 
ATOM     23  H   UNL     1      32.433 -12.126 -22.977  0.00  0.00    +0.172 HD
ENDBRANCH  10  16
ENDBRANCH   8  11
BRANCH   3  24
ATOM     24  C   UNL     1      33.533 -22.792 -17.344  0.00  0.00    +0.026 C 
BRANCH  24  26
ATOM     25  F   UNL     1      37.119 -24.742 -13.480  0.00  0.00    -0.204 F 
ATOM     26  C   UNL     1      34.492 -23.314 -16.311  0.00  0.00    -0.022 C 
ATOM     27  C   UNL     1      34.217 -24.511 -15.664  0.00  0.00    -0.002 C 
ATOM     28  C   UNL     1      35.641 -22.592 -16.016  0.00  0.00    -0.002 C 
ATOM     29  C   UNL     1      35.107 -24.995 -14.705  0.00  0.00    +0.029 C 
ATOM     30  C   UNL     1      36.532 -23.076 -15.058  0.00  0.00    +0.029 C 
ATOM     31  C   UNL     1      36.264 -24.278 -14.403  0.00  0.00    +0.140 C 
ENDBRANCH  24  26
ENDBRANCH   3  24
TORSDOF 4
ENDMDL
