MODEL 1
REMARK VINA RESULT:     -11.8      0.000      0.000
REMARK  Name = 447622
REMARK  7 active torsions:
REMARK  status: ('A' for Active; 'I' for Inactive)
REMARK    1  A    between atoms: N_2  and  C_13
REMARK    2  A    between atoms: C_5  and  C_28
REMARK    3  A    between atoms: C_10  and  C_16
REMARK    4  A    between atoms: C_16  and  C_17
REMARK    5  A    between atoms: C_17  and  N_19
REMARK    6  A    between atoms: C_25  and  C_31
REMARK    7  A    between atoms: C_31  and  N_34
REMARK                            x       y       z     vdW  Elec       q    Type
REMARK                         _______ _______ _______ _____ _____    ______ ____
ROOT
ATOM      1 CL   UNL     1      31.869 -25.501 -12.870  0.00  0.00    -0.078 Cl
ATOM      2  N   UNL     1      31.895 -22.443 -17.814  0.00  0.00    -0.247 N 
ATOM      3  N   UNL     1      33.108 -23.443 -16.070  0.00  0.00    -0.337 NA
ATOM      4  N   UNL     1      30.701 -23.561 -16.130  0.00  0.00    -0.169 NA
ATOM      5  C   UNL     1      33.077 -24.153 -14.924  0.00  0.00    +0.156 C 
ATOM      6  C   UNL     1      31.901 -23.185 -16.616  0.00  0.00    +0.149 C 
ATOM      7  C   UNL     1      31.914 -24.597 -14.328  0.00  0.00    +0.108 C 
ATOM      8  C   UNL     1      30.744 -24.267 -14.982  0.00  0.00    +0.126 C 
ATOM      9  H   UNL     1      30.994 -22.278 -18.172  0.00  0.00    +0.165 HD
ENDROOT
BRANCH   2  13
ATOM     10  C   UNL     1      34.959 -20.813 -20.150  0.00  0.00    -0.024 C 
ATOM     11  C   UNL     1      35.259 -21.805 -19.229  0.00  0.00    -0.003 C 
ATOM     12  C   UNL     1      33.662 -20.351 -20.311  0.00  0.00    -0.003 C 
ATOM     13  C   UNL     1      32.928 -21.892 -18.601  0.00  0.00    +0.058 C 
ATOM     14  C   UNL     1      34.238 -22.347 -18.450  0.00  0.00    +0.015 C 
ATOM     15  C   UNL     1      32.640 -20.895 -19.532  0.00  0.00    +0.015 C 
BRANCH  10  16
ATOM     16  C   UNL     1      36.063 -20.225 -20.992  0.00  0.00    +0.004 C 
BRANCH  16  17
ATOM     17  C   UNL     1      35.863 -18.725 -21.212  0.00  0.00    -0.072 C 
BRANCH  17  19
ATOM     18  O   UNL     1      33.812 -17.604 -24.698  0.00  0.00    -0.358 OA
ATOM     19  N   UNL     1      35.562 -18.436 -22.613  0.00  0.00    +0.391 N 
ATOM     20  C   UNL     1      34.484 -19.306 -23.105  0.00  0.00    -0.045 C 
ATOM     21  C   UNL     1      35.188 -17.025 -22.786  0.00  0.00    -0.045 C 
ATOM     22  C   UNL     1      34.180 -18.978 -24.564  0.00  0.00    +0.119 C 
ATOM     23  C   UNL     1      34.866 -16.750 -24.252  0.00  0.00    +0.119 C 
ATOM     24  H   UNL     1      36.403 -18.620 -23.158  0.00  0.00    -0.079 HD
ENDBRANCH  17  19
ENDBRANCH  16  17
ENDBRANCH  10  16
ENDBRANCH   2  13
BRANCH   5  28
ATOM     25  C   UNL     1      36.916 -24.912 -13.300  0.00  0.00    -0.041 C 
ATOM     26  C   UNL     1      36.089 -23.953 -12.717  0.00  0.00    -0.006 C 
ATOM     27  C   UNL     1      36.480 -25.622 -14.419  0.00  0.00    -0.006 C 
ATOM     28  C   UNL     1      34.387 -24.413 -14.369  0.00  0.00    +0.031 C 
ATOM     29  C   UNL     1      34.825 -23.703 -13.251  0.00  0.00    +0.002 C 
ATOM     30  C   UNL     1      35.215 -25.373 -14.954  0.00  0.00    +0.002 C 
BRANCH  25  31
ATOM     31  C   UNL     1      38.267 -25.179 -12.728  0.00  0.00    -0.029 C 
ATOM     32  C   UNL     1      38.656 -24.086 -11.692  0.00  0.00    -0.018 C 
ATOM     33  C   UNL     1      39.439 -25.247 -13.756  0.00  0.00    -0.018 C 
BRANCH  31  34
ATOM     34  N   UNL     1      38.310 -26.482 -12.007  0.00  0.00    +0.385 N 
ATOM     35  H   UNL     1      39.123 -26.503 -11.391  0.00  0.00    -0.089 HD
ATOM     36  H   UNL     1      38.376 -27.243 -12.684  0.00  0.00    -0.089 HD
ATOM     37  H   UNL     1      37.460 -26.593 -11.453  0.00  0.00    -0.089 HD
ENDBRANCH  31  34
ENDBRANCH  25  31
ENDBRANCH   5  28
TORSDOF 7
ENDMDL
MODEL 2
REMARK VINA RESULT:     -11.7      2.175      5.128
REMARK  Name = 447622
REMARK  7 active torsions:
REMARK  status: ('A' for Active; 'I' for Inactive)
REMARK    1  A    between atoms: N_2  and  C_13
REMARK    2  A    between atoms: C_5  and  C_28
REMARK    3  A    between atoms: C_10  and  C_16
REMARK    4  A    between atoms: C_16  and  C_17
REMARK    5  A    between atoms: C_17  and  N_19
REMARK    6  A    between atoms: C_25  and  C_31
REMARK    7  A    between atoms: C_31  and  N_34
REMARK                            x       y       z     vdW  Elec       q    Type
REMARK                         _______ _______ _______ _____ _____    ______ ____
ROOT
ATOM      1 CL   UNL     1      35.310 -24.688 -13.110  0.00  0.00    -0.078 Cl
ATOM      2  N   UNL     1      37.152 -21.777 -17.792  0.00  0.00    -0.247 N 
ATOM      3  N   UNL     1      35.362 -22.675 -16.568  0.00  0.00    -0.337 NA
ATOM      4  N   UNL     1      37.630 -22.892 -15.784  0.00  0.00    -0.169 NA
ATOM      5  C   UNL     1      34.958 -23.353 -15.475  0.00  0.00    +0.156 C 
ATOM      6  C   UNL     1      36.694 -22.480 -16.661  0.00  0.00    +0.149 C 
ATOM      7  C   UNL     1      35.818 -23.826 -14.504  0.00  0.00    +0.108 C 
ATOM      8  C   UNL     1      37.157 -23.564 -14.713  0.00  0.00    +0.126 C 
ATOM      9  H   UNL     1      38.129 -21.661 -17.817  0.00  0.00    +0.165 HD
ENDROOT
BRANCH   2  13
ATOM     10  C   UNL     1      35.171 -20.078 -21.062  0.00  0.00    -0.024 C 
ATOM     11  C   UNL     1      34.536 -21.058 -20.315  0.00  0.00    -0.003 C 
ATOM     12  C   UNL     1      36.451 -19.651 -20.745  0.00  0.00    -0.003 C 
ATOM     13  C   UNL     1      36.485 -21.205 -18.896  0.00  0.00    +0.058 C 
ATOM     14  C   UNL     1      35.197 -21.625 -19.226  0.00  0.00    +0.015 C 
ATOM     15  C   UNL     1      37.112 -20.217 -19.655  0.00  0.00    +0.015 C 
BRANCH  10  16
ATOM     16  C   UNL     1      34.457 -19.466 -22.241  0.00  0.00    +0.004 C 
BRANCH  16  17
ATOM     17  C   UNL     1      35.310 -18.390 -22.916  0.00  0.00    -0.072 C 
BRANCH  17  19
ATOM     18  O   UNL     1      34.308 -14.422 -23.845  0.00  0.00    -0.358 OA
ATOM     19  N   UNL     1      34.538 -17.167 -23.127  0.00  0.00    +0.391 N 
ATOM     20  C   UNL     1      35.002 -16.097 -22.233  0.00  0.00    -0.045 C 
ATOM     21  C   UNL     1      34.631 -16.727 -24.527  0.00  0.00    -0.045 C 
ATOM     22  C   UNL     1      34.192 -14.828 -22.480  0.00  0.00    +0.119 C 
ATOM     23  C   UNL     1      33.829 -15.443 -24.720  0.00  0.00    +0.119 C 
ATOM     24  H   UNL     1      33.563 -17.371 -22.913  0.00  0.00    -0.079 HD
ENDBRANCH  17  19
ENDBRANCH  16  17
ENDBRANCH  10  16
ENDBRANCH   2  13
BRANCH   5  28
ATOM     25  C   UNL     1      30.763 -23.909 -15.279  0.00  0.00    -0.041 C 
ATOM     26  C   UNL     1      31.544 -24.089 -14.138  0.00  0.00    -0.006 C 
ATOM     27  C   UNL     1      31.362 -23.545 -16.485  0.00  0.00    -0.006 C 
ATOM     28  C   UNL     1      33.526 -23.542 -15.408  0.00  0.00    +0.031 C 
ATOM     29  C   UNL     1      32.925 -23.906 -14.202  0.00  0.00    +0.002 C 
ATOM     30  C   UNL     1      32.743 -23.361 -16.549  0.00  0.00    +0.002 C 
BRANCH  25  31
ATOM     31  C   UNL     1      29.286 -24.105 -15.209  0.00  0.00    -0.029 C 
ATOM     32  C   UNL     1      28.924 -25.250 -14.221  0.00  0.00    -0.018 C 
ATOM     33  C   UNL     1      28.582 -24.450 -16.559  0.00  0.00    -0.018 C 
BRANCH  31  34
ATOM     34  N   UNL     1      28.593 -22.882 -14.714  0.00  0.00    +0.385 N 
ATOM     35  H   UNL     1      29.272 -22.130 -14.599  0.00  0.00    -0.089 HD
ATOM     36  H   UNL     1      28.150 -23.081 -13.817  0.00  0.00    -0.089 HD
ATOM     37  H   UNL     1      27.882 -22.598 -15.389  0.00  0.00    -0.089 HD
ENDBRANCH  31  34
ENDBRANCH  25  31
ENDBRANCH   5  28
TORSDOF 7
ENDMDL
