MODEL 1
REMARK VINA RESULT:     -12.2      0.000      0.000
REMARK  Name = 10297043
REMARK  6 active torsions:
REMARK  status: ('A' for Active; 'I' for Inactive)
REMARK    1  A    between atoms: N_2  and  C_30
REMARK    2  A    between atoms: C_5  and  C_16
REMARK    3  A    between atoms: C_13  and  C_19
REMARK    4  A    between atoms: C_19  and  N_20
REMARK    5  A    between atoms: N_21  and  C_28
REMARK    6  A    between atoms: C_30  and  C_32
REMARK                            x       y       z     vdW  Elec       q    Type
REMARK                         _______ _______ _______ _____ _____    ______ ____
ROOT
ATOM      1  N   UNL     1      32.391 -22.320 -18.112  0.00  0.00    -0.301 N 
ATOM      2  N   UNL     1      34.998 -24.294 -14.784  0.00  0.00    -0.319 N 
ATOM      3  N   UNL     1      31.171 -23.500 -16.399  0.00  0.00    -0.233 NA
ATOM      4  N   UNL     1      32.620 -24.491 -14.712  0.00  0.00    -0.233 NA
ATOM      5  C   UNL     1      33.706 -22.055 -18.394  0.00  0.00    +0.046 C 
ATOM      6  C   UNL     1      33.602 -23.278 -16.501  0.00  0.00    +0.131 C 
ATOM      7  C   UNL     1      34.480 -22.637 -17.412  0.00  0.00    +0.003 C 
ATOM      8  C   UNL     1      32.310 -23.064 -16.964  0.00  0.00    +0.117 C 
ATOM      9  C   UNL     1      33.730 -24.024 -15.330  0.00  0.00    +0.113 C 
ATOM     10  C   UNL     1      31.425 -24.205 -15.278  0.00  0.00    +0.252 C 
ATOM     11  H   UNL     1      31.623 -22.022 -18.651  0.00  0.00    +0.153 HD
ATOM     12  H   UNL     1      35.793 -23.945 -15.249  0.00  0.00    +0.148 HD
ENDROOT
BRANCH   5  16
ATOM     13  C   UNL     1      34.861 -19.813 -21.780  0.00  0.00    -0.043 C 
ATOM     14  C   UNL     1      35.832 -20.429 -20.999  0.00  0.00    -0.006 C 
ATOM     15  C   UNL     1      33.514 -19.927 -21.459  0.00  0.00    -0.006 C 
ATOM     16  C   UNL     1      34.100 -21.289 -19.551  0.00  0.00    +0.013 C 
ATOM     17  C   UNL     1      35.450 -21.170 -19.881  0.00  0.00    +0.001 C 
ATOM     18  C   UNL     1      33.132 -20.668 -20.340  0.00  0.00    +0.001 C 
BRANCH  13  19
ATOM     19  C   UNL     1      35.272 -19.015 -22.984  0.00  0.00    -0.050 C 
BRANCH  19  20
ATOM     20  N   UNL     1      34.622 -17.707 -23.020  0.00  0.00    +0.387 N 
ATOM     21  N   UNL     1      34.603 -14.854 -23.490  0.00  0.00    +0.384 N 
ATOM     22  C   UNL     1      35.275 -16.776 -22.090  0.00  0.00    -0.100 C 
ATOM     23  C   UNL     1      34.627 -17.158 -24.381  0.00  0.00    -0.100 C 
ATOM     24  C   UNL     1      34.599 -15.402 -22.128  0.00  0.00    -0.101 C 
ATOM     25  C   UNL     1      33.949 -15.784 -24.418  0.00  0.00    -0.101 C 
ATOM     26  H   UNL     1      33.653 -17.828 -22.724  0.00  0.00    -0.079 HD
ATOM     27  H   UNL     1      35.572 -14.734 -23.785  0.00  0.00    -0.080 HD
BRANCH  21  28
ATOM     28  C   UNL     1      33.955 -13.544 -23.525  0.00  0.00    -0.078 C 
ATOM     29  C   UNL     1      32.863 -13.443 -22.475  0.00  0.00    -0.025 C 
ENDBRANCH  21  28
ENDBRANCH  19  20
ENDBRANCH  13  19
ENDBRANCH   5  16
BRANCH   2  30
ATOM     30  C   UNL     1      35.187 -25.054 -13.585  0.00  0.00    +0.093 C 
ATOM     31  C   UNL     1      34.634 -24.265 -12.400  0.00  0.00    +0.026 C 
BRANCH  30  32
ATOM     32  C   UNL     1      36.645 -25.425 -13.423  0.00  0.00    -0.005 C 
ATOM     33  C   UNL     1      37.125 -25.741 -12.164  0.00  0.00    -0.003 C 
ATOM     34  C   UNL     1      37.466 -25.441 -14.537  0.00  0.00    -0.003 C 
ATOM     35  C   UNL     1      38.469 -26.083 -12.014  0.00  0.00    -0.000 C 
ATOM     36  C   UNL     1      38.810 -25.783 -14.387  0.00  0.00    -0.000 C 
ATOM     37  C   UNL     1      39.311 -26.104 -13.126  0.00  0.00    -0.000 C 
ENDBRANCH  30  32
ENDBRANCH   2  30
TORSDOF 6
ENDMDL
MODEL 2
REMARK VINA RESULT:     -12.0      2.588     12.076
REMARK  Name = 10297043
REMARK  6 active torsions:
REMARK  status: ('A' for Active; 'I' for Inactive)
REMARK    1  A    between atoms: N_2  and  C_30
REMARK    2  A    between atoms: C_5  and  C_16
REMARK    3  A    between atoms: C_13  and  C_19
REMARK    4  A    between atoms: C_19  and  N_20
REMARK    5  A    between atoms: N_21  and  C_28
REMARK    6  A    between atoms: C_30  and  C_32
REMARK                            x       y       z     vdW  Elec       q    Type
REMARK                         _______ _______ _______ _____ _____    ______ ____
ROOT
ATOM      1  N   UNL     1      34.605 -17.226 -23.929  0.00  0.00    -0.301 N 
ATOM      2  N   UNL     1      33.478 -12.881 -22.657  0.00  0.00    -0.319 N 
ATOM      3  N   UNL     1      33.855 -15.783 -25.710  0.00  0.00    -0.233 NA
ATOM      4  N   UNL     1      33.293 -13.542 -24.943  0.00  0.00    -0.233 NA
ATOM      5  C   UNL     1      34.802 -17.119 -22.577  0.00  0.00    +0.046 C 
ATOM      6  C   UNL     1      34.056 -15.139 -23.362  0.00  0.00    +0.131 C 
ATOM      7  C   UNL     1      34.470 -15.835 -22.197  0.00  0.00    +0.003 C 
ATOM      8  C   UNL     1      34.151 -16.031 -24.423  0.00  0.00    +0.117 C 
ATOM      9  C   UNL     1      33.607 -13.854 -23.664  0.00  0.00    +0.113 C 
ATOM     10  C   UNL     1      33.433 -14.512 -25.874  0.00  0.00    +0.252 C 
ATOM     11  H   UNL     1      34.764 -18.037 -24.464  0.00  0.00    +0.153 HD
ATOM     12  H   UNL     1      33.712 -13.128 -21.733  0.00  0.00    +0.148 HD
ENDROOT
BRANCH   5  16
ATOM     13  C   UNL     1      36.189 -20.359 -20.253  0.00  0.00    -0.043 C 
ATOM     14  C   UNL     1      34.844 -20.286 -20.598  0.00  0.00    -0.006 C 
ATOM     15  C   UNL     1      37.081 -19.377 -20.664  0.00  0.00    -0.006 C 
ATOM     16  C   UNL     1      35.276 -18.226 -21.783  0.00  0.00    +0.013 C 
ATOM     17  C   UNL     1      34.386 -19.216 -21.367  0.00  0.00    +0.001 C 
ATOM     18  C   UNL     1      36.623 -18.306 -21.432  0.00  0.00    +0.001 C 
BRANCH  13  19
ATOM     19  C   UNL     1      36.682 -21.511 -19.426  0.00  0.00    -0.050 C 
BRANCH  19  20
ATOM     20  N   UNL     1      35.814 -21.771 -18.279  0.00  0.00    +0.387 N 
ATOM     21  N   UNL     1      34.619 -23.500 -16.294  0.00  0.00    +0.384 N 
ATOM     22  C   UNL     1      34.751 -22.721 -18.635  0.00  0.00    -0.100 C 
ATOM     23  C   UNL     1      36.591 -22.274 -17.140  0.00  0.00    -0.100 C 
ATOM     24  C   UNL     1      33.842 -22.998 -17.433  0.00  0.00    -0.101 C 
ATOM     25  C   UNL     1      35.680 -22.550 -15.938  0.00  0.00    -0.101 C 
ATOM     26  H   UNL     1      35.378 -20.889 -18.008  0.00  0.00    -0.079 HD
ATOM     27  H   UNL     1      35.055 -24.382 -16.566  0.00  0.00    -0.080 HD
BRANCH  21  28
ATOM     28  C   UNL     1      33.751 -23.763 -15.148  0.00  0.00    -0.078 C 
ATOM     29  C   UNL     1      32.303 -23.435 -15.470  0.00  0.00    -0.025 C 
ENDBRANCH  21  28
ENDBRANCH  19  20
ENDBRANCH  13  19
ENDBRANCH   5  16
BRANCH   2  30
ATOM     30  C   UNL     1      33.022 -11.548 -22.912  0.00  0.00    +0.093 C 
ATOM     31  C   UNL     1      34.166 -10.733 -23.510  0.00  0.00    +0.026 C 
BRANCH  30  32
ATOM     32  C   UNL     1      32.454 -10.937 -21.649  0.00  0.00    -0.005 C 
ATOM     33  C   UNL     1      32.100 -11.766 -20.598  0.00  0.00    -0.003 C 
ATOM     34  C   UNL     1      32.300  -9.564 -21.572  0.00  0.00    -0.003 C 
ATOM     35  C   UNL     1      31.576 -11.203 -19.435  0.00  0.00    -0.000 C 
ATOM     36  C   UNL     1      31.776  -9.002 -20.408  0.00  0.00    -0.000 C 
ATOM     37  C   UNL     1      31.414  -9.821 -19.340  0.00  0.00    -0.000 C 
ENDBRANCH  30  32
ENDBRANCH   2  30
TORSDOF 6
ENDMDL
MODEL 3
REMARK VINA RESULT:     -11.0      4.260     13.941
REMARK  Name = 10297043
REMARK  6 active torsions:
REMARK  status: ('A' for Active; 'I' for Inactive)
REMARK    1  A    between atoms: N_2  and  C_30
REMARK    2  A    between atoms: C_5  and  C_16
REMARK    3  A    between atoms: C_13  and  C_19
REMARK    4  A    between atoms: C_19  and  N_20
REMARK    5  A    between atoms: N_21  and  C_28
REMARK    6  A    between atoms: C_30  and  C_32
REMARK                            x       y       z     vdW  Elec       q    Type
REMARK                         _______ _______ _______ _____ _____    ______ ____
ROOT
ATOM      1  N   UNL     1      32.544 -12.949 -20.588  0.00  0.00    -0.301 N 
ATOM      2  N   UNL     1      32.507  -9.392 -23.607  0.00  0.00    -0.319 N 
ATOM      3  N   UNL     1      31.276 -11.017 -19.901  0.00  0.00    -0.233 NA
ATOM      4  N   UNL     1      31.320  -9.220 -21.543  0.00  0.00    -0.233 NA
ATOM      5  C   UNL     1      33.297 -13.312 -21.675  0.00  0.00    +0.046 C 
ATOM      6  C   UNL     1      32.502 -11.226 -22.005  0.00  0.00    +0.131 C 
ATOM      7  C   UNL     1      33.288 -12.263 -22.570  0.00  0.00    +0.003 C 
ATOM      8  C   UNL     1      32.054 -11.683 -20.771  0.00  0.00    +0.117 C 
ATOM      9  C   UNL     1      32.104  -9.942 -22.377  0.00  0.00    +0.113 C 
ATOM     10  C   UNL     1      30.960  -9.793 -20.373  0.00  0.00    +0.252 C 
ATOM     11  H   UNL     1      32.382 -13.512 -19.797  0.00  0.00    +0.153 HD
ATOM     12  H   UNL     1      33.078  -9.935 -24.199  0.00  0.00    +0.148 HD
ENDROOT
BRANCH   5  16
ATOM     13  C   UNL     1      35.195 -17.074 -21.930  0.00  0.00    -0.043 C 
ATOM     14  C   UNL     1      34.839 -16.404 -23.094  0.00  0.00    -0.006 C 
ATOM     15  C   UNL     1      34.933 -16.520 -20.683  0.00  0.00    -0.006 C 
ATOM     16  C   UNL     1      33.945 -14.597 -21.762  0.00  0.00    +0.013 C 
ATOM     17  C   UNL     1      34.212 -15.160 -23.009  0.00  0.00    +0.001 C 
ATOM     18  C   UNL     1      34.306 -15.277 -20.599  0.00  0.00    +0.001 C 
BRANCH  13  19
ATOM     19  C   UNL     1      35.869 -18.413 -22.020  0.00  0.00    -0.050 C 
BRANCH  19  20
ATOM     20  N   UNL     1      35.571 -19.254 -20.862  0.00  0.00    +0.387 N 
ATOM     21  N   UNL     1      35.178 -21.810 -19.570  0.00  0.00    +0.384 N 
ATOM     22  C   UNL     1      34.356 -20.046 -21.093  0.00  0.00    -0.100 C 
ATOM     23  C   UNL     1      36.705 -20.133 -20.551  0.00  0.00    -0.100 C 
ATOM     24  C   UNL     1      34.044 -20.931 -19.882  0.00  0.00    -0.101 C 
ATOM     25  C   UNL     1      36.391 -21.017 -19.339  0.00  0.00    -0.101 C 
ATOM     26  H   UNL     1      35.409 -18.642 -20.062  0.00  0.00    -0.079 HD
ATOM     27  H   UNL     1      35.341 -22.421 -20.371  0.00  0.00    -0.080 HD
BRANCH  21  28
ATOM     28  C   UNL     1      34.880 -22.652 -18.414  0.00  0.00    -0.078 C 
ATOM     29  C   UNL     1      33.384 -22.729 -18.161  0.00  0.00    -0.025 C 
ENDBRANCH  21  28
ENDBRANCH  19  20
ENDBRANCH  13  19
ENDBRANCH   5  16
BRANCH   2  30
ATOM     30  C   UNL     1      32.129  -8.081 -24.038  0.00  0.00    +0.093 C 
ATOM     31  C   UNL     1      31.016  -8.196 -25.077  0.00  0.00    +0.026 C 
BRANCH  30  32
ATOM     32  C   UNL     1      33.338  -7.325 -24.545  0.00  0.00    -0.005 C 
ATOM     33  C   UNL     1      34.364  -7.025 -23.666  0.00  0.00    -0.003 C 
ATOM     34  C   UNL     1      33.392  -6.950 -25.876  0.00  0.00    -0.003 C 
ATOM     35  C   UNL     1      35.479  -6.329 -24.132  0.00  0.00    -0.000 C 
ATOM     36  C   UNL     1      34.507  -6.254 -26.342  0.00  0.00    -0.000 C 
ATOM     37  C   UNL     1      35.550  -5.942 -25.471  0.00  0.00    -0.000 C 
ENDBRANCH  30  32
ENDBRANCH   2  30
TORSDOF 6
ENDMDL
MODEL 4
REMARK VINA RESULT:     -11.0      4.979     14.911
REMARK  Name = 10297043
REMARK  6 active torsions:
REMARK  status: ('A' for Active; 'I' for Inactive)
REMARK    1  A    between atoms: N_2  and  C_30
REMARK    2  A    between atoms: C_5  and  C_16
REMARK    3  A    between atoms: C_13  and  C_19
REMARK    4  A    between atoms: C_19  and  N_20
REMARK    5  A    between atoms: N_21  and  C_28
REMARK    6  A    between atoms: C_30  and  C_32
REMARK                            x       y       z     vdW  Elec       q    Type
REMARK                         _______ _______ _______ _____ _____    ______ ____
ROOT
ATOM      1  N   UNL     1      32.380 -11.821 -21.908  0.00  0.00    -0.301 N 
ATOM      2  N   UNL     1      33.538  -8.000 -24.321  0.00  0.00    -0.319 N 
ATOM      3  N   UNL     1      31.347  -9.772 -21.167  0.00  0.00    -0.233 NA
ATOM      4  N   UNL     1      32.015  -7.840 -22.489  0.00  0.00    -0.233 NA
ATOM      5  C   UNL     1      33.259 -12.195 -22.892  0.00  0.00    +0.046 C 
ATOM      6  C   UNL     1      32.908  -9.970 -23.036  0.00  0.00    +0.131 C 
ATOM      7  C   UNL     1      33.603 -11.067 -23.607  0.00  0.00    +0.003 C 
ATOM      8  C   UNL     1      32.156 -10.471 -21.981  0.00  0.00    +0.117 C 
ATOM      9  C   UNL     1      32.814  -8.599 -23.275  0.00  0.00    +0.113 C 
ATOM     10  C   UNL     1      31.341  -8.464 -21.497  0.00  0.00    +0.252 C 
ATOM     11  H   UNL     1      31.972 -12.429 -21.250  0.00  0.00    +0.153 HD
ATOM     12  H   UNL     1      34.114  -8.570 -24.880  0.00  0.00    +0.148 HD
ENDROOT
BRANCH   5  16
ATOM     13  C   UNL     1      34.507 -16.198 -23.375  0.00  0.00    -0.043 C 
ATOM     14  C   UNL     1      34.755 -15.541 -22.176  0.00  0.00    -0.006 C 
ATOM     15  C   UNL     1      33.852 -15.553 -24.417  0.00  0.00    -0.006 C 
ATOM     16  C   UNL     1      33.684 -13.562 -23.057  0.00  0.00    +0.013 C 
ATOM     17  C   UNL     1      34.342 -14.218 -22.016  0.00  0.00    +0.001 C 
ATOM     18  C   UNL     1      33.440 -14.230 -24.257  0.00  0.00    +0.001 C 
BRANCH  13  19
ATOM     19  C   UNL     1      34.952 -17.622 -23.548  0.00  0.00    -0.050 C 
BRANCH  19  20
ATOM     20  N   UNL     1      35.116 -18.302 -22.264  0.00  0.00    +0.387 N 
ATOM     21  N   UNL     1      35.901 -20.549 -20.623  0.00  0.00    +0.384 N 
ATOM     22  C   UNL     1      34.313 -19.532 -22.220  0.00  0.00    -0.100 C 
ATOM     23  C   UNL     1      36.530 -18.603 -22.010  0.00  0.00    -0.100 C 
ATOM     24  C   UNL     1      34.487 -20.249 -20.877  0.00  0.00    -0.101 C 
ATOM     25  C   UNL     1      36.701 -19.319 -20.666  0.00  0.00    -0.101 C 
ATOM     26  H   UNL     1      34.783 -17.675 -21.531  0.00  0.00    -0.079 HD
ATOM     27  H   UNL     1      36.234 -21.175 -21.357  0.00  0.00    -0.080 HD
BRANCH  21  28
ATOM     28  C   UNL     1      36.066 -21.231 -19.341  0.00  0.00    -0.078 C 
ATOM     29  C   UNL     1      34.852 -22.084 -19.014  0.00  0.00    -0.025 C 
ENDBRANCH  21  28
ENDBRANCH  19  20
ENDBRANCH  13  19
ENDBRANCH   5  16
BRANCH   2  30
ATOM     30  C   UNL     1      33.479  -6.598 -24.609  0.00  0.00    +0.093 C 
ATOM     31  C   UNL     1      32.031  -6.206 -24.891  0.00  0.00    +0.026 C 
BRANCH  30  32
ATOM     32  C   UNL     1      34.420  -6.256 -25.744  0.00  0.00    -0.005 C 
ATOM     33  C   UNL     1      34.171  -6.769 -27.005  0.00  0.00    -0.003 C 
ATOM     34  C   UNL     1      35.509  -5.438 -25.497  0.00  0.00    -0.003 C 
ATOM     35  C   UNL     1      35.037  -6.454 -28.051  0.00  0.00    -0.000 C 
ATOM     36  C   UNL     1      36.375  -5.123 -26.543  0.00  0.00    -0.000 C 
ATOM     37  C   UNL     1      36.140  -5.631 -27.820  0.00  0.00    -0.000 C 
ENDBRANCH  30  32
ENDBRANCH   2  30
TORSDOF 6
ENDMDL
MODEL 5
REMARK VINA RESULT:     -11.0      1.911      4.222
REMARK  Name = 10297043
REMARK  6 active torsions:
REMARK  status: ('A' for Active; 'I' for Inactive)
REMARK    1  A    between atoms: N_2  and  C_30
REMARK    2  A    between atoms: C_5  and  C_16
REMARK    3  A    between atoms: C_13  and  C_19
REMARK    4  A    between atoms: C_19  and  N_20
REMARK    5  A    between atoms: N_21  and  C_28
REMARK    6  A    between atoms: C_30  and  C_32
REMARK                            x       y       z     vdW  Elec       q    Type
REMARK                         _______ _______ _______ _____ _____    ______ ____
ROOT
ATOM      1  N   UNL     1      36.959 -21.563 -18.205  0.00  0.00    -0.301 N 
ATOM      2  N   UNL     1      33.634 -23.472 -15.546  0.00  0.00    -0.319 N 
ATOM      3  N   UNL     1      37.738 -22.719 -16.238  0.00  0.00    -0.233 NA
ATOM      4  N   UNL     1      35.929 -23.678 -14.921  0.00  0.00    -0.233 NA
ATOM      5  C   UNL     1      35.748 -21.296 -18.789  0.00  0.00    +0.046 C 
ATOM      6  C   UNL     1      35.399 -22.490 -16.907  0.00  0.00    +0.131 C 
ATOM      7  C   UNL     1      34.762 -21.860 -18.006  0.00  0.00    +0.003 C 
ATOM      8  C   UNL     1      36.766 -22.287 -17.059  0.00  0.00    +0.117 C 
ATOM      9  C   UNL     1      34.996 -23.216 -15.786  0.00  0.00    +0.113 C 
ATOM     10  C   UNL     1      37.224 -23.405 -15.196  0.00  0.00    +0.252 C 
ATOM     11  H   UNL     1      37.833 -21.277 -18.555  0.00  0.00    +0.153 HD
ATOM     12  H   UNL     1      32.972 -23.126 -16.188  0.00  0.00    +0.148 HD
ENDROOT
BRANCH   5  16
ATOM     13  C   UNL     1      35.431 -19.089 -22.374  0.00  0.00    -0.043 C 
ATOM     14  C   UNL     1      36.633 -19.097 -21.676  0.00  0.00    -0.006 C 
ATOM     15  C   UNL     1      34.332 -19.799 -21.905  0.00  0.00    -0.006 C 
ATOM     16  C   UNL     1      35.639 -20.543 -20.014  0.00  0.00    +0.013 C 
ATOM     17  C   UNL     1      36.737 -19.828 -20.492  0.00  0.00    +0.001 C 
ATOM     18  C   UNL     1      34.437 -20.528 -20.721  0.00  0.00    +0.001 C 
BRANCH  13  19
ATOM     19  C   UNL     1      35.318 -18.303 -23.649  0.00  0.00    -0.050 C 
BRANCH  19  20
ATOM     20  N   UNL     1      34.516 -17.094 -23.476  0.00  0.00    +0.387 N 
ATOM     21  N   UNL     1      34.119 -14.232 -23.576  0.00  0.00    +0.384 N 
ATOM     22  C   UNL     1      35.125 -16.204 -22.478  0.00  0.00    -0.100 C 
ATOM     23  C   UNL     1      34.347 -16.392 -24.754  0.00  0.00    -0.100 C 
ATOM     24  C   UNL     1      34.288 -14.933 -22.297  0.00  0.00    -0.101 C 
ATOM     25  C   UNL     1      33.509 -15.121 -24.571  0.00  0.00    -0.101 C 
ATOM     26  H   UNL     1      33.595 -17.373 -23.137  0.00  0.00    -0.079 HD
ATOM     27  H   UNL     1      35.040 -13.954 -23.915  0.00  0.00    -0.080 HD
BRANCH  21  28
ATOM     28  C   UNL     1      33.319 -13.021 -23.403  0.00  0.00    -0.078 C 
ATOM     29  C   UNL     1      32.487 -13.089 -22.133  0.00  0.00    -0.025 C 
ENDBRANCH  21  28
ENDBRANCH  19  20
ENDBRANCH  13  19
ENDBRANCH   5  16
BRANCH   2  30
ATOM     30  C   UNL     1      33.166 -24.210 -14.413  0.00  0.00    +0.093 C 
ATOM     31  C   UNL     1      33.996 -25.484 -14.267  0.00  0.00    +0.026 C 
BRANCH  30  32
ATOM     32  C   UNL     1      31.682 -24.479 -14.538  0.00  0.00    -0.005 C 
ATOM     33  C   UNL     1      30.937 -23.746 -15.446  0.00  0.00    -0.003 C 
ATOM     34  C   UNL     1      31.101 -25.450 -13.741  0.00  0.00    -0.003 C 
ATOM     35  C   UNL     1      29.570 -23.993 -15.561  0.00  0.00    -0.000 C 
ATOM     36  C   UNL     1      29.733 -25.697 -13.857  0.00  0.00    -0.000 C 
ATOM     37  C   UNL     1      28.968 -24.968 -14.766  0.00  0.00    -0.000 C 
ENDBRANCH  30  32
ENDBRANCH   2  30
TORSDOF 6
ENDMDL
MODEL 6
REMARK VINA RESULT:     -10.9      5.191     10.052
REMARK  Name = 10297043
REMARK  6 active torsions:
REMARK  status: ('A' for Active; 'I' for Inactive)
REMARK    1  A    between atoms: N_2  and  C_30
REMARK    2  A    between atoms: C_5  and  C_16
REMARK    3  A    between atoms: C_13  and  C_19
REMARK    4  A    between atoms: C_19  and  N_20
REMARK    5  A    between atoms: N_21  and  C_28
REMARK    6  A    between atoms: C_30  and  C_32
REMARK                            x       y       z     vdW  Elec       q    Type
REMARK                         _______ _______ _______ _____ _____    ______ ____
ROOT
ATOM      1  N   UNL     1      33.239 -14.534 -24.093  0.00  0.00    -0.301 N 
ATOM      2  N   UNL     1      35.599 -17.561 -21.440  0.00  0.00    -0.319 N 
ATOM      3  N   UNL     1      33.752 -16.648 -25.134  0.00  0.00    -0.233 NA
ATOM      4  N   UNL     1      34.982 -18.154 -23.669  0.00  0.00    -0.233 NA
ATOM      5  C   UNL     1      33.459 -13.944 -22.875  0.00  0.00    +0.046 C 
ATOM      6  C   UNL     1      34.367 -16.010 -22.856  0.00  0.00    +0.131 C 
ATOM      7  C   UNL     1      34.157 -14.837 -22.088  0.00  0.00    +0.003 C 
ATOM      8  C   UNL     1      33.784 -15.791 -24.099  0.00  0.00    +0.117 C 
ATOM      9  C   UNL     1      34.982 -17.247 -22.664  0.00  0.00    +0.113 C 
ATOM     10  C   UNL     1      34.377 -17.803 -24.826  0.00  0.00    +0.252 C 
ATOM     11  H   UNL     1      32.762 -14.119 -24.847  0.00  0.00    +0.153 HD
ATOM     12  H   UNL     1      35.587 -16.887 -20.722  0.00  0.00    +0.148 HD
ENDROOT
BRANCH   5  16
ATOM     13  C   UNL     1      32.108 -10.041 -22.002  0.00  0.00    -0.043 C 
ATOM     14  C   UNL     1      31.683 -11.107 -21.218  0.00  0.00    -0.006 C 
ATOM     15  C   UNL     1      32.973 -10.246 -23.070  0.00  0.00    -0.006 C 
ATOM     16  C   UNL     1      32.998 -12.611 -22.577  0.00  0.00    +0.013 C 
ATOM     17  C   UNL     1      32.131 -12.397 -21.506  0.00  0.00    +0.001 C 
ATOM     18  C   UNL     1      33.420 -11.535 -23.358  0.00  0.00    +0.001 C 
BRANCH  13  19
ATOM     19  C   UNL     1      31.627  -8.652 -21.692  0.00  0.00    -0.050 C 
BRANCH  19  20
ATOM     20  N   UNL     1      32.022  -7.695 -22.722  0.00  0.00    +0.387 N 
ATOM     21  N   UNL     1      32.534  -5.019 -23.690  0.00  0.00    +0.384 N 
ATOM     22  C   UNL     1      30.922  -6.769 -23.023  0.00  0.00    -0.100 C 
ATOM     23  C   UNL     1      33.220  -6.952 -22.312  0.00  0.00    -0.100 C 
ATOM     24  C   UNL     1      31.336  -5.761 -24.100  0.00  0.00    -0.101 C 
ATOM     25  C   UNL     1      33.633  -5.945 -23.391  0.00  0.00    -0.101 C 
ATOM     26  H   UNL     1      32.243  -8.218 -23.570  0.00  0.00    -0.079 HD
ATOM     27  H   UNL     1      32.314  -4.497 -22.841  0.00  0.00    -0.080 HD
BRANCH  21  28
ATOM     28  C   UNL     1      32.929  -4.059 -24.719  0.00  0.00    -0.078 C 
ATOM     29  C   UNL     1      33.999  -4.638 -25.628  0.00  0.00    -0.025 C 
ENDBRANCH  21  28
ENDBRANCH  19  20
ENDBRANCH  13  19
ENDBRANCH   5  16
BRANCH   2  30
ATOM     30  C   UNL     1      36.244 -18.814 -21.189  0.00  0.00    +0.093 C 
ATOM     31  C   UNL     1      36.889 -19.312 -22.481  0.00  0.00    +0.026 C 
BRANCH  30  32
ATOM     32  C   UNL     1      35.262 -19.801 -20.597  0.00  0.00    -0.005 C 
ATOM     33  C   UNL     1      35.740 -20.857 -19.839  0.00  0.00    -0.003 C 
ATOM     34  C   UNL     1      33.908 -19.629 -20.826  0.00  0.00    -0.003 C 
ATOM     35  C   UNL     1      34.836 -21.767 -19.293  0.00  0.00    -0.000 C 
ATOM     36  C   UNL     1      33.004 -20.539 -20.280  0.00  0.00    -0.000 C 
ATOM     37  C   UNL     1      33.467 -21.609 -19.514  0.00  0.00    -0.000 C 
ENDBRANCH  30  32
ENDBRANCH   2  30
TORSDOF 6
ENDMDL
MODEL 7
REMARK VINA RESULT:     -10.8      4.068     13.723
REMARK  Name = 10297043
REMARK  6 active torsions:
REMARK  status: ('A' for Active; 'I' for Inactive)
REMARK    1  A    between atoms: N_2  and  C_30
REMARK    2  A    between atoms: C_5  and  C_16
REMARK    3  A    between atoms: C_13  and  C_19
REMARK    4  A    between atoms: C_19  and  N_20
REMARK    5  A    between atoms: N_21  and  C_28
REMARK    6  A    between atoms: C_30  and  C_32
REMARK                            x       y       z     vdW  Elec       q    Type
REMARK                         _______ _______ _______ _____ _____    ______ ____
ROOT
ATOM      1  N   UNL     1      32.225 -13.394 -21.846  0.00  0.00    -0.301 N 
ATOM      2  N   UNL     1      33.822  -9.435 -23.728  0.00  0.00    -0.319 N 
ATOM      3  N   UNL     1      30.686 -11.539 -21.824  0.00  0.00    -0.233 NA
ATOM      4  N   UNL     1      31.612  -9.523 -22.827  0.00  0.00    -0.233 NA
ATOM      5  C   UNL     1      33.506 -13.621 -22.280  0.00  0.00    +0.046 C 
ATOM      6  C   UNL     1      32.951 -11.482 -22.738  0.00  0.00    +0.131 C 
ATOM      7  C   UNL     1      33.981 -12.452 -22.838  0.00  0.00    +0.003 C 
ATOM      8  C   UNL     1      31.872 -12.098 -22.115  0.00  0.00    +0.117 C 
ATOM      9  C   UNL     1      32.785 -10.144 -23.094  0.00  0.00    +0.113 C 
ATOM     10  C   UNL     1      30.649 -10.249 -22.216  0.00  0.00    +0.252 C 
ATOM     11  H   UNL     1      31.649 -14.060 -21.407  0.00  0.00    +0.153 HD
ATOM     12  H   UNL     1      34.667  -9.905 -23.914  0.00  0.00    +0.148 HD
ENDROOT
BRANCH   5  16
ATOM     13  C   UNL     1      35.392 -17.371 -21.829  0.00  0.00    -0.043 C 
ATOM     14  C   UNL     1      35.060 -16.628 -20.702  0.00  0.00    -0.006 C 
ATOM     15  C   UNL     1      35.111 -16.892 -23.103  0.00  0.00    -0.006 C 
ATOM     16  C   UNL     1      34.150 -14.902 -22.127  0.00  0.00    +0.013 C 
ATOM     17  C   UNL     1      34.435 -15.389 -20.852  0.00  0.00    +0.001 C 
ATOM     18  C   UNL     1      34.487 -15.653 -23.252  0.00  0.00    +0.001 C 
BRANCH  13  19
ATOM     19  C   UNL     1      36.064 -18.704 -21.669  0.00  0.00    -0.050 C 
BRANCH  19  20
ATOM     20  N   UNL     1      35.443 -19.505 -20.616  0.00  0.00    +0.387 N 
ATOM     21  N   UNL     1      34.410 -21.979 -19.533  0.00  0.00    +0.384 N 
ATOM     22  C   UNL     1      34.162 -20.060 -21.071  0.00  0.00    -0.100 C 
ATOM     23  C   UNL     1      36.342 -20.580 -20.179  0.00  0.00    -0.100 C 
ATOM     24  C   UNL     1      33.510 -20.904 -19.970  0.00  0.00    -0.101 C 
ATOM     25  C   UNL     1      35.689 -21.423 -19.077  0.00  0.00    -0.101 C 
ATOM     26  H   UNL     1      35.263 -18.893 -19.819  0.00  0.00    -0.079 HD
ATOM     27  H   UNL     1      34.591 -22.590 -20.330  0.00  0.00    -0.080 HD
BRANCH  21  28
ATOM     28  C   UNL     1      33.789 -22.781 -18.482  0.00  0.00    -0.078 C 
ATOM     29  C   UNL     1      34.685 -22.872 -17.258  0.00  0.00    -0.025 C 
ENDBRANCH  21  28
ENDBRANCH  19  20
ENDBRANCH  13  19
ENDBRANCH   5  16
BRANCH   2  30
ATOM     30  C   UNL     1      33.705  -8.061 -24.115  0.00  0.00    +0.093 C 
ATOM     31  C   UNL     1      35.036  -7.590 -24.697  0.00  0.00    +0.026 C 
BRANCH  30  32
ATOM     32  C   UNL     1      33.239  -7.224 -22.945  0.00  0.00    -0.005 C 
ATOM     33  C   UNL     1      32.353  -6.184 -23.169  0.00  0.00    -0.003 C 
ATOM     34  C   UNL     1      33.709  -7.514 -21.675  0.00  0.00    -0.003 C 
ATOM     35  C   UNL     1      31.924  -5.411 -22.090  0.00  0.00    -0.000 C 
ATOM     36  C   UNL     1      33.279  -6.742 -20.597  0.00  0.00    -0.000 C 
ATOM     37  C   UNL     1      32.387  -5.690 -20.804  0.00  0.00    -0.000 C 
ENDBRANCH  30  32
ENDBRANCH   2  30
TORSDOF 6
ENDMDL
MODEL 8
REMARK VINA RESULT:     -10.6      1.326      1.916
REMARK  Name = 10297043
REMARK  6 active torsions:
REMARK  status: ('A' for Active; 'I' for Inactive)
REMARK    1  A    between atoms: N_2  and  C_30
REMARK    2  A    between atoms: C_5  and  C_16
REMARK    3  A    between atoms: C_13  and  C_19
REMARK    4  A    between atoms: C_19  and  N_20
REMARK    5  A    between atoms: N_21  and  C_28
REMARK    6  A    between atoms: C_30  and  C_32
REMARK                            x       y       z     vdW  Elec       q    Type
REMARK                         _______ _______ _______ _____ _____    ______ ____
ROOT
ATOM      1  N   UNL     1      33.682 -22.365 -17.750  0.00  0.00    -0.301 N 
ATOM      2  N   UNL     1      36.896 -24.526 -15.148  0.00  0.00    -0.319 N 
ATOM      3  N   UNL     1      32.822 -23.713 -15.945  0.00  0.00    -0.233 NA
ATOM      4  N   UNL     1      34.576 -24.796 -14.650  0.00  0.00    -0.233 NA
ATOM      5  C   UNL     1      34.917 -22.041 -18.250  0.00  0.00    +0.046 C 
ATOM      6  C   UNL     1      35.188 -23.416 -16.481  0.00  0.00    +0.131 C 
ATOM      7  C   UNL     1      35.869 -22.678 -17.483  0.00  0.00    +0.003 C 
ATOM      8  C   UNL     1      33.828 -23.201 -16.675  0.00  0.00    +0.117 C 
ATOM      9  C   UNL     1      35.544 -24.249 -15.422  0.00  0.00    +0.113 C 
ATOM     10  C   UNL     1      33.293 -24.499 -14.955  0.00  0.00    +0.252 C 
ATOM     11  H   UNL     1      32.823 -22.047 -18.109  0.00  0.00    +0.153 HD
ATOM     12  H   UNL     1      37.584 -24.119 -15.722  0.00  0.00    +0.148 HD
ENDROOT
BRANCH   5  16
ATOM     13  C   UNL     1      35.383 -19.501 -21.590  0.00  0.00    -0.043 C 
ATOM     14  C   UNL     1      36.498 -19.875 -20.850  0.00  0.00    -0.006 C 
ATOM     15  C   UNL     1      34.116 -19.954 -21.244  0.00  0.00    -0.006 C 
ATOM     16  C   UNL     1      35.076 -21.174 -19.391  0.00  0.00    +0.013 C 
ATOM     17  C   UNL     1      36.344 -20.715 -19.747  0.00  0.00    +0.001 C 
ATOM     18  C   UNL     1      33.962 -20.794 -20.140  0.00  0.00    +0.001 C 
BRANCH  13  19
ATOM     19  C   UNL     1      35.548 -18.597 -22.778  0.00  0.00    -0.050 C 
BRANCH  19  20
ATOM     20  N   UNL     1      34.764 -17.372 -22.645  0.00  0.00    +0.387 N 
ATOM     21  N   UNL     1      34.459 -14.497 -22.648  0.00  0.00    +0.384 N 
ATOM     22  C   UNL     1      35.264 -16.551 -21.535  0.00  0.00    -0.100 C 
ATOM     23  C   UNL     1      34.777 -16.605 -23.897  0.00  0.00    -0.100 C 
ATOM     24  C   UNL     1      34.446 -15.263 -21.396  0.00  0.00    -0.101 C 
ATOM     25  C   UNL     1      33.957 -15.317 -23.756  0.00  0.00    -0.101 C 
ATOM     26  H   UNL     1      33.800 -17.636 -22.440  0.00  0.00    -0.079 HD
ATOM     27  H   UNL     1      35.423 -14.234 -22.854  0.00  0.00    -0.080 HD
BRANCH  21  28
ATOM     28  C   UNL     1      33.676 -13.270 -22.514  0.00  0.00    -0.078 C 
ATOM     29  C   UNL     1      32.502 -13.467 -21.570  0.00  0.00    -0.025 C 
ENDBRANCH  21  28
ENDBRANCH  19  20
ENDBRANCH  13  19
ENDBRANCH   5  16
BRANCH   2  30
ATOM     30  C   UNL     1      37.317 -25.375 -14.074  0.00  0.00    +0.093 C 
ATOM     31  C   UNL     1      36.686 -26.754 -14.249  0.00  0.00    +0.026 C 
BRANCH  30  32
ATOM     32  C   UNL     1      36.991 -24.737 -12.742  0.00  0.00    -0.005 C 
ATOM     33  C   UNL     1      36.151 -25.399 -11.863  0.00  0.00    -0.003 C 
ATOM     34  C   UNL     1      37.538 -23.504 -12.430  0.00  0.00    -0.003 C 
ATOM     35  C   UNL     1      35.849 -24.811 -10.635  0.00  0.00    -0.000 C 
ATOM     36  C   UNL     1      37.237 -22.916 -11.202  0.00  0.00    -0.000 C 
ATOM     37  C   UNL     1      36.392 -23.569 -10.305  0.00  0.00    -0.000 C 
ENDBRANCH  30  32
ENDBRANCH   2  30
TORSDOF 6
ENDMDL
MODEL 9
REMARK VINA RESULT:     -10.1      2.431      5.659
REMARK  Name = 10297043
REMARK  6 active torsions:
REMARK  status: ('A' for Active; 'I' for Inactive)
REMARK    1  A    between atoms: N_2  and  C_30
REMARK    2  A    between atoms: C_5  and  C_16
REMARK    3  A    between atoms: C_13  and  C_19
REMARK    4  A    between atoms: C_19  and  N_20
REMARK    5  A    between atoms: N_21  and  C_28
REMARK    6  A    between atoms: C_30  and  C_32
REMARK                            x       y       z     vdW  Elec       q    Type
REMARK                         _______ _______ _______ _____ _____    ______ ____
ROOT
ATOM      1  N   UNL     1      34.927 -22.464 -17.922  0.00  0.00    -0.301 N 
ATOM      2  N   UNL     1      30.543 -23.194 -16.503  0.00  0.00    -0.319 N 
ATOM      3  N   UNL     1      34.681 -23.923 -16.019  0.00  0.00    -0.233 NA
ATOM      4  N   UNL     1      32.359 -24.239 -15.358  0.00  0.00    -0.233 NA
ATOM      5  C   UNL     1      34.094 -21.752 -18.746  0.00  0.00    +0.046 C 
ATOM      6  C   UNL     1      32.845 -22.839 -17.212  0.00  0.00    +0.131 C 
ATOM      7  C   UNL     1      32.796 -21.966 -18.329  0.00  0.00    +0.003 C 
ATOM      8  C   UNL     1      34.185 -23.130 -16.983  0.00  0.00    +0.117 C 
ATOM      9  C   UNL     1      31.922 -23.429 -16.351  0.00  0.00    +0.113 C 
ATOM     10  C   UNL     1      33.694 -24.432 -15.254  0.00  0.00    +0.252 C 
ATOM     11  H   UNL     1      35.909 -22.491 -17.995  0.00  0.00    +0.153 HD
ATOM     12  H   UNL     1      30.246 -22.602 -17.231  0.00  0.00    +0.148 HD
ENDROOT
BRANCH   5  16
ATOM     13  C   UNL     1      35.567 -19.395 -21.924  0.00  0.00    -0.043 C 
ATOM     14  C   UNL     1      36.441 -19.852 -20.944  0.00  0.00    -0.006 C 
ATOM     15  C   UNL     1      34.213 -19.705 -21.869  0.00  0.00    -0.006 C 
ATOM     16  C   UNL     1      34.596 -20.947 -19.832  0.00  0.00    +0.013 C 
ATOM     17  C   UNL     1      35.953 -20.632 -19.895  0.00  0.00    +0.001 C 
ATOM     18  C   UNL     1      33.727 -20.484 -20.819  0.00  0.00    +0.001 C 
BRANCH  13  19
ATOM     19  C   UNL     1      36.091 -18.555 -23.053  0.00  0.00    -0.050 C 
BRANCH  19  20
ATOM     20  N   UNL     1      35.709 -17.152 -22.913  0.00  0.00    +0.387 N 
ATOM     21  N   UNL     1      33.791 -15.040 -22.444  0.00  0.00    +0.384 N 
ATOM     22  C   UNL     1      34.723 -16.776 -23.936  0.00  0.00    -0.100 C 
ATOM     23  C   UNL     1      35.181 -16.886 -21.570  0.00  0.00    -0.100 C 
ATOM     24  C   UNL     1      34.318 -15.305 -23.789  0.00  0.00    -0.101 C 
ATOM     25  C   UNL     1      34.777 -15.415 -21.424  0.00  0.00    -0.101 C 
ATOM     26  H   UNL     1      36.545 -16.583 -23.049  0.00  0.00    -0.079 HD
ATOM     27  H   UNL     1      32.955 -15.610 -22.308  0.00  0.00    -0.080 HD
BRANCH  21  28
ATOM     28  C   UNL     1      33.407 -13.637 -22.305  0.00  0.00    -0.078 C 
ATOM     29  C   UNL     1      32.387 -13.455 -21.193  0.00  0.00    -0.025 C 
ENDBRANCH  21  28
ENDBRANCH  19  20
ENDBRANCH  13  19
ENDBRANCH   5  16
BRANCH   2  30
ATOM     30  C   UNL     1      29.553 -23.774 -15.647  0.00  0.00    +0.093 C 
ATOM     31  C   UNL     1      29.542 -25.288 -15.846  0.00  0.00    +0.026 C 
BRANCH  30  32
ATOM     32  C   UNL     1      28.205 -23.133 -15.894  0.00  0.00    -0.005 C 
ATOM     33  C   UNL     1      27.762 -22.973 -17.196  0.00  0.00    -0.003 C 
ATOM     34  C   UNL     1      27.444 -22.719 -14.815  0.00  0.00    -0.003 C 
ATOM     35  C   UNL     1      26.520 -22.381 -17.425  0.00  0.00    -0.000 C 
ATOM     36  C   UNL     1      26.202 -22.128 -15.044  0.00  0.00    -0.000 C 
ATOM     37  C   UNL     1      25.740 -21.958 -16.349  0.00  0.00    -0.000 C 
ENDBRANCH  30  32
ENDBRANCH   2  30
TORSDOF 6
ENDMDL
