MODEL 1
REMARK VINA RESULT:     -11.8      0.000      0.000
REMARK  Name = 97226
REMARK  3 active torsions:
REMARK  status: ('A' for Active; 'I' for Inactive)
REMARK    1  A    between atoms: C_6  and  O_24
REMARK    2  A    between atoms: C_6  and  C_28
REMARK    3  A    between atoms: C_22  and  O_26
REMARK                            x       y       z     vdW  Elec       q    Type
REMARK                         _______ _______ _______ _____ _____    ______ ____
ROOT
ATOM      1  O   UNL     1      35.766 -25.720 -13.551  0.00  0.00    -0.442 OA
ATOM      2  O   UNL     1      32.621 -24.303 -16.003  0.00  0.00    -0.270 OA
ATOM      3  O   UNL     1      37.992 -25.992 -13.428  0.00  0.00    -0.247 OA
ATOM      4  N   UNL     1      34.086 -22.988 -17.215  0.00  0.00    -0.249 N 
ATOM      5  N   UNL     1      36.367 -20.907 -19.063  0.00  0.00    -0.405 NA
ATOM      6  C   UNL     1      37.212 -23.960 -14.474  0.00  0.00    +0.196 C 
ATOM      7  C   UNL     1      36.102 -23.652 -15.441  0.00  0.00    +0.017 C 
ATOM      8  C   UNL     1      35.354 -22.459 -17.389  0.00  0.00    +0.084 C 
ATOM      9  C   UNL     1      34.876 -24.167 -15.241  0.00  0.00    +0.074 C 
ATOM     10  C   UNL     1      33.163 -22.509 -18.265  0.00  0.00    +0.128 C 
ATOM     11  C   UNL     1      36.355 -22.749 -16.554  0.00  0.00    +0.016 C 
ATOM     12  C   UNL     1      34.047 -21.627 -19.084  0.00  0.00    +0.029 C 
ATOM     13  C   UNL     1      35.333 -21.600 -18.564  0.00  0.00    +0.142 C 
ATOM     14  C   UNL     1      33.745 -23.838 -16.179  0.00  0.00    +0.252 C 
ATOM     15  C   UNL     1      34.595 -25.063 -14.083  0.00  0.00    +0.239 C 
ATOM     16  C   UNL     1      37.034 -25.311 -13.792  0.00  0.00    +0.346 C 
ATOM     17  C   UNL     1      33.779 -20.884 -20.210  0.00  0.00    +0.002 C 
ATOM     18  C   UNL     1      34.824 -20.137 -20.775  0.00  0.00    +0.029 C 
ATOM     19  C   UNL     1      36.110 -20.177 -20.166  0.00  0.00    +0.114 C 
ATOM     20  C   UNL     1      34.614 -19.358 -21.924  0.00  0.00    +0.038 C 
ATOM     21  C   UNL     1      37.130 -19.428 -20.745  0.00  0.00    +0.088 C 
ATOM     22  C   UNL     1      35.657 -18.620 -22.478  0.00  0.00    +0.130 C 
ATOM     23  C   UNL     1      36.913 -18.655 -21.889  0.00  0.00    +0.018 C 
ENDROOT
BRANCH   6  24
ATOM     24  O   UNL     1      38.449 -24.077 -15.182  0.00  0.00    -0.373 OA
ATOM     25  H   UNL     1      38.759 -23.194 -15.440  0.00  0.00    +0.211 HD
ENDBRANCH   6  24
BRANCH  22  26
ATOM     26  O   UNL     1      35.445 -17.869 -23.592  0.00  0.00    -0.506 OA
ATOM     27  H   UNL     1      36.158 -17.678 -24.171  0.00  0.00    +0.292 HD
ENDBRANCH  22  26
BRANCH   6  28
ATOM     28  C   UNL     1      37.352 -22.871 -13.408  0.00  0.00    +0.042 C 
ATOM     29  C   UNL     1      37.224 -23.448 -12.013  0.00  0.00    +0.003 C 
ENDBRANCH   6  28
TORSDOF 3
ENDMDL
MODEL 2
REMARK VINA RESULT:     -10.9      0.943      1.097
REMARK  Name = 97226
REMARK  3 active torsions:
REMARK  status: ('A' for Active; 'I' for Inactive)
REMARK    1  A    between atoms: C_6  and  O_24
REMARK    2  A    between atoms: C_6  and  C_28
REMARK    3  A    between atoms: C_22  and  O_26
REMARK                            x       y       z     vdW  Elec       q    Type
REMARK                         _______ _______ _______ _____ _____    ______ ____
ROOT
ATOM      1  O   UNL     1      36.419 -25.996 -12.561  0.00  0.00    -0.442 OA
ATOM      2  O   UNL     1      33.004 -24.857 -14.785  0.00  0.00    -0.270 OA
ATOM      3  O   UNL     1      38.657 -26.169 -12.629  0.00  0.00    -0.247 OA
ATOM      4  N   UNL     1      34.291 -23.556 -16.198  0.00  0.00    -0.249 N 
ATOM      5  N   UNL     1      36.298 -21.496 -18.360  0.00  0.00    -0.405 NA
ATOM      6  C   UNL     1      37.693 -24.236 -13.709  0.00  0.00    +0.196 C 
ATOM      7  C   UNL     1      36.488 -24.031 -14.584  0.00  0.00    +0.017 C 
ATOM      8  C   UNL     1      35.513 -22.987 -16.517  0.00  0.00    +0.084 C 
ATOM      9  C   UNL     1      35.310 -24.584 -14.243  0.00  0.00    +0.074 C 
ATOM     10  C   UNL     1      33.256 -23.179 -17.182  0.00  0.00    +0.128 C 
ATOM     11  C   UNL     1      36.597 -23.186 -15.764  0.00  0.00    +0.016 C 
ATOM     12  C   UNL     1      34.021 -22.311 -18.127  0.00  0.00    +0.029 C 
ATOM     13  C   UNL     1      35.346 -22.200 -17.731  0.00  0.00    +0.142 C 
ATOM     14  C   UNL     1      34.084 -24.357 -15.090  0.00  0.00    +0.252 C 
ATOM     15  C   UNL     1      35.176 -25.420 -13.017  0.00  0.00    +0.239 C 
ATOM     16  C   UNL     1      37.640 -25.550 -12.940  0.00  0.00    +0.346 C 
ATOM     17  C   UNL     1      33.619 -21.647 -19.262  0.00  0.00    +0.002 C 
ATOM     18  C   UNL     1      34.573 -20.892 -19.962  0.00  0.00    +0.029 C 
ATOM     19  C   UNL     1      35.909 -20.843 -19.473  0.00  0.00    +0.114 C 
ATOM     20  C   UNL     1      34.224 -20.192 -21.128  0.00  0.00    +0.038 C 
ATOM     21  C   UNL     1      36.837 -20.088 -20.185  0.00  0.00    +0.088 C 
ATOM     22  C   UNL     1      35.177 -19.446 -21.816  0.00  0.00    +0.130 C 
ATOM     23  C   UNL     1      36.482 -19.394 -21.344  0.00  0.00    +0.018 C 
ENDROOT
BRANCH   6  24
ATOM     24  O   UNL     1      38.866 -24.343 -14.520  0.00  0.00    -0.373 OA
ATOM     25  H   UNL     1      39.399 -23.538 -14.426  0.00  0.00    +0.211 HD
ENDBRANCH   6  24
BRANCH  22  26
ATOM     26  O   UNL     1      34.832 -18.771 -22.945  0.00  0.00    -0.506 OA
ATOM     27  H   UNL     1      34.281 -18.015 -22.890  0.00  0.00    +0.292 HD
ENDBRANCH  22  26
BRANCH   6  28
ATOM     28  C   UNL     1      37.878 -23.081 -12.721  0.00  0.00    +0.042 C 
ATOM     29  C   UNL     1      37.477 -23.489 -11.318  0.00  0.00    +0.003 C 
ENDBRANCH   6  28
TORSDOF 3
ENDMDL
MODEL 3
REMARK VINA RESULT:      -9.8      2.051      4.053
REMARK  Name = 97226
REMARK  3 active torsions:
REMARK  status: ('A' for Active; 'I' for Inactive)
REMARK    1  A    between atoms: C_6  and  O_24
REMARK    2  A    between atoms: C_6  and  C_28
REMARK    3  A    between atoms: C_22  and  O_26
REMARK                            x       y       z     vdW  Elec       q    Type
REMARK                         _______ _______ _______ _____ _____    ______ ____
ROOT
ATOM      1  O   UNL     1      32.664 -25.005 -12.566  0.00  0.00    -0.442 OA
ATOM      2  O   UNL     1      36.367 -24.333 -14.502  0.00  0.00    -0.270 OA
ATOM      3  O   UNL     1      30.541 -24.292 -12.408  0.00  0.00    -0.247 OA
ATOM      4  N   UNL     1      35.321 -23.206 -16.229  0.00  0.00    -0.249 N 
ATOM      5  N   UNL     1      33.677 -21.498 -18.935  0.00  0.00    -0.405 NA
ATOM      6  C   UNL     1      31.517 -24.286 -14.617  0.00  0.00    +0.196 C 
ATOM      7  C   UNL     1      32.868 -23.896 -15.152  0.00  0.00    +0.017 C 
ATOM      8  C   UNL     1      34.157 -22.807 -16.864  0.00  0.00    +0.084 C 
ATOM      9  C   UNL     1      33.983 -24.309 -14.524  0.00  0.00    +0.074 C 
ATOM     10  C   UNL     1      36.514 -22.737 -16.963  0.00  0.00    +0.128 C 
ATOM     11  C   UNL     1      32.952 -23.122 -16.382  0.00  0.00    +0.016 C 
ATOM     12  C   UNL     1      35.908 -22.008 -18.117  0.00  0.00    +0.029 C 
ATOM     13  C   UNL     1      34.522 -22.053 -18.055  0.00  0.00    +0.142 C 
ATOM     14  C   UNL     1      35.343 -23.958 -15.068  0.00  0.00    +0.252 C 
ATOM     15  C   UNL     1      33.910 -25.134 -13.285  0.00  0.00    +0.239 C 
ATOM     16  C   UNL     1      31.528 -24.508 -13.110  0.00  0.00    +0.346 C 
ATOM     17  C   UNL     1      36.495 -21.342 -19.167  0.00  0.00    +0.002 C 
ATOM     18  C   UNL     1      35.660 -20.741 -20.122  0.00  0.00    +0.029 C 
ATOM     19  C   UNL     1      34.248 -20.844 -19.967  0.00  0.00    +0.114 C 
ATOM     20  C   UNL     1      36.198 -20.047 -21.217  0.00  0.00    +0.038 C 
ATOM     21  C   UNL     1      33.440 -20.240 -20.926  0.00  0.00    +0.088 C 
ATOM     22  C   UNL     1      35.361 -19.454 -22.158  0.00  0.00    +0.130 C 
ATOM     23  C   UNL     1      33.984 -19.550 -22.013  0.00  0.00    +0.018 C 
ENDROOT
BRANCH   6  24
ATOM     24  O   UNL     1      30.593 -23.214 -14.814  0.00  0.00    -0.373 OA
ATOM     25  H   UNL     1      30.832 -22.724 -15.617  0.00  0.00    +0.211 HD
ENDBRANCH   6  24
BRANCH  22  26
ATOM     26  O   UNL     1      35.891 -18.782 -23.216  0.00  0.00    -0.506 OA
ATOM     27  H   UNL     1      36.818 -18.782 -23.355  0.00  0.00    +0.292 HD
ENDBRANCH  22  26
BRANCH   6  28
ATOM     28  C   UNL     1      30.976 -25.541 -15.307  0.00  0.00    +0.042 C 
ATOM     29  C   UNL     1      29.468 -25.489 -15.438  0.00  0.00    +0.003 C 
ENDBRANCH   6  28
TORSDOF 3
ENDMDL
MODEL 4
REMARK VINA RESULT:      -9.7      3.907      6.168
REMARK  Name = 97226
REMARK  3 active torsions:
REMARK  status: ('A' for Active; 'I' for Inactive)
REMARK    1  A    between atoms: C_6  and  O_24
REMARK    2  A    between atoms: C_6  and  C_28
REMARK    3  A    between atoms: C_22  and  O_26
REMARK                            x       y       z     vdW  Elec       q    Type
REMARK                         _______ _______ _______ _____ _____    ______ ____
ROOT
ATOM      1  O   UNL     1      39.033 -24.658 -12.951  0.00  0.00    -0.442 OA
ATOM      2  O   UNL     1      37.266 -22.827 -16.332  0.00  0.00    -0.270 OA
ATOM      3  O   UNL     1      38.634 -25.398 -10.869  0.00  0.00    -0.247 OA
ATOM      4  N   UNL     1      35.154 -23.470 -15.644  0.00  0.00    -0.249 N 
ATOM      5  N   UNL     1      31.879 -24.520 -14.589  0.00  0.00    -0.405 NA
ATOM      6  C   UNL     1      36.892 -25.777 -12.499  0.00  0.00    +0.196 C 
ATOM      7  C   UNL     1      36.301 -24.937 -13.598  0.00  0.00    +0.017 C 
ATOM      8  C   UNL     1      34.346 -24.188 -14.778  0.00  0.00    +0.084 C 
ATOM      9  C   UNL     1      37.110 -24.261 -14.434  0.00  0.00    +0.074 C 
ATOM     10  C   UNL     1      34.348 -22.762 -16.659  0.00  0.00    +0.128 C 
ATOM     11  C   UNL     1      34.857 -24.913 -13.780  0.00  0.00    +0.016 C 
ATOM     12  C   UNL     1      32.955 -23.151 -16.284  0.00  0.00    +0.029 C 
ATOM     13  C   UNL     1      32.960 -23.991 -15.178  0.00  0.00    +0.142 C 
ATOM     14  C   UNL     1      36.535 -23.446 -15.563  0.00  0.00    +0.252 C 
ATOM     15  C   UNL     1      38.591 -24.308 -14.280  0.00  0.00    +0.239 C 
ATOM     16  C   UNL     1      38.243 -25.253 -12.026  0.00  0.00    +0.346 C 
ATOM     17  C   UNL     1      31.747 -22.816 -16.847  0.00  0.00    +0.002 C 
ATOM     18  C   UNL     1      30.579 -23.342 -16.272  0.00  0.00    +0.029 C 
ATOM     19  C   UNL     1      30.691 -24.195 -15.137  0.00  0.00    +0.114 C 
ATOM     20  C   UNL     1      29.315 -23.037 -16.801  0.00  0.00    +0.038 C 
ATOM     21  C   UNL     1      29.518 -24.703 -14.585  0.00  0.00    +0.088 C 
ATOM     22  C   UNL     1      28.162 -23.563 -16.224  0.00  0.00    +0.130 C 
ATOM     23  C   UNL     1      28.264 -24.395 -15.117  0.00  0.00    +0.018 C 
ENDROOT
BRANCH   6  24
ATOM     24  O   UNL     1      36.058 -25.709 -11.339  0.00  0.00    -0.373 OA
ATOM     25  H   UNL     1      35.691 -26.588 -11.153  0.00  0.00    +0.211 HD
ENDBRANCH   6  24
BRANCH  22  26
ATOM     26  O   UNL     1      26.940 -23.262 -16.741  0.00  0.00    -0.506 OA
ATOM     27  H   UNL     1      26.547 -23.829 -17.375  0.00  0.00    +0.292 HD
ENDBRANCH  22  26
BRANCH   6  28
ATOM     28  C   UNL     1      37.038 -27.240 -12.920  0.00  0.00    +0.042 C 
ATOM     29  C   UNL     1      37.139 -27.371 -14.426  0.00  0.00    +0.003 C 
ENDBRANCH   6  28
TORSDOF 3
ENDMDL
MODEL 5
REMARK VINA RESULT:      -9.1     12.294     18.129
REMARK  Name = 97226
REMARK  3 active torsions:
REMARK  status: ('A' for Active; 'I' for Inactive)
REMARK    1  A    between atoms: C_6  and  O_24
REMARK    2  A    between atoms: C_6  and  C_28
REMARK    3  A    between atoms: C_22  and  O_26
REMARK                            x       y       z     vdW  Elec       q    Type
REMARK                         _______ _______ _______ _____ _____    ______ ____
ROOT
ATOM      1  O   UNL     1      33.921  -2.831 -26.131  0.00  0.00    -0.442 OA
ATOM      2  O   UNL     1      31.114  -4.140 -23.247  0.00  0.00    -0.270 OA
ATOM      3  O   UNL     1      35.875  -3.327 -27.119  0.00  0.00    -0.247 OA
ATOM      4  N   UNL     1      31.902  -6.309 -23.384  0.00  0.00    -0.249 N 
ATOM      5  N   UNL     1      33.104  -9.690 -23.644  0.00  0.00    -0.405 NA
ATOM      6  C   UNL     1      34.400  -5.183 -26.659  0.00  0.00    +0.196 C 
ATOM      7  C   UNL     1      33.531  -5.551 -25.488  0.00  0.00    +0.017 C 
ATOM      8  C   UNL     1      32.713  -7.249 -23.998  0.00  0.00    +0.084 C 
ATOM      9  C   UNL     1      32.743  -4.621 -24.920  0.00  0.00    +0.074 C 
ATOM     10  C   UNL     1      31.117  -6.917 -22.291  0.00  0.00    +0.128 C 
ATOM     11  C   UNL     1      33.511  -6.928 -25.019  0.00  0.00    +0.016 C 
ATOM     12  C   UNL     1      31.565  -8.341 -22.334  0.00  0.00    +0.029 C 
ATOM     13  C   UNL     1      32.503  -8.531 -23.340  0.00  0.00    +0.142 C 
ATOM     14  C   UNL     1      31.839  -4.982 -23.770  0.00  0.00    +0.252 C 
ATOM     15  C   UNL     1      32.727  -3.216 -25.416  0.00  0.00    +0.239 C 
ATOM     16  C   UNL     1      34.809  -3.715 -26.645  0.00  0.00    +0.346 C 
ATOM     17  C   UNL     1      31.200  -9.421 -21.565  0.00  0.00    +0.002 C 
ATOM     18  C   UNL     1      31.797 -10.661 -21.839  0.00  0.00    +0.029 C 
ATOM     19  C   UNL     1      32.750 -10.752 -22.893  0.00  0.00    +0.114 C 
ATOM     20  C   UNL     1      31.467 -11.802 -21.089  0.00  0.00    +0.038 C 
ATOM     21  C   UNL     1      33.328 -11.993 -23.145  0.00  0.00    +0.088 C 
ATOM     22  C   UNL     1      32.064 -13.028 -21.368  0.00  0.00    +0.130 C 
ATOM     23  C   UNL     1      32.994 -13.123 -22.394  0.00  0.00    +0.018 C 
ENDROOT
BRANCH   6  24
ATOM     24  O   UNL     1      35.636  -5.899 -26.586  0.00  0.00    -0.373 OA
ATOM     25  H   UNL     1      35.899  -5.995 -25.656  0.00  0.00    +0.211 HD
ENDBRANCH   6  24
BRANCH  22  26
ATOM     26  O   UNL     1      31.740 -14.128 -20.636  0.00  0.00    -0.506 OA
ATOM     27  H   UNL     1      32.209 -14.323 -19.849  0.00  0.00    +0.292 HD
ENDBRANCH  22  26
BRANCH   6  28
ATOM     28  C   UNL     1      33.720  -5.504 -27.992  0.00  0.00    +0.042 C 
ATOM     29  C   UNL     1      34.451  -6.605 -28.732  0.00  0.00    +0.003 C 
ENDBRANCH   6  28
TORSDOF 3
ENDMDL
