MODEL 1
REMARK VINA RESULT:     -12.5      0.000      0.000
REMARK  Name = 71360
REMARK  8 active torsions:
REMARK  status: ('A' for Active; 'I' for Inactive)
REMARK    1  A    between atoms: N_1  and  C_18
REMARK    2  A    between atoms: C_2  and  C_11
REMARK    3  A    between atoms: C_18  and  C_19
REMARK    4  A    between atoms: C_19  and  C_20
REMARK    5  A    between atoms: C_20  and  O_21
REMARK    6  A    between atoms: O_21  and  C_22
REMARK    7  A    between atoms: C_23  and  O_31
REMARK    8  A    between atoms: C_27  and  C_29
REMARK                            x       y       z     vdW  Elec       q    Type
REMARK                         _______ _______ _______ _____ _____    ______ ____
ROOT
ATOM      1  N   UNL     1      35.673 -19.832 -20.410  0.00  0.00    +0.387 N 
ATOM      2  C   UNL     1      35.213 -18.418 -22.939  0.00  0.00    +0.039 C 
ATOM      3  C   UNL     1      36.127 -17.860 -21.836  0.00  0.00    -0.017 C 
ATOM      4  C   UNL     1      34.173 -19.368 -22.323  0.00  0.00    -0.017 C 
ATOM      5  C   UNL     1      36.726 -18.986 -20.989  0.00  0.00    -0.077 C 
ATOM      6  C   UNL     1      34.843 -20.440 -21.460  0.00  0.00    -0.077 C 
ATOM      7  H   UNL     1      35.072 -19.239 -19.838  0.00  0.00    -0.080 HD
ENDROOT
BRANCH   2  11
ATOM      8  F   UNL     1      33.339 -11.998 -23.650  0.00  0.00    -0.204 F 
ATOM      9  O   UNL     1      33.627 -16.431 -25.493  0.00  0.00    -0.354 OA
ATOM     10  N   UNL     1      34.133 -17.626 -24.997  0.00  0.00    -0.081 NA
ATOM     11  C   UNL     1      34.583 -17.330 -23.781  0.00  0.00    +0.100 A 
ATOM     12  C   UNL     1      34.401 -15.982 -23.440  0.00  0.00    +0.054 A 
ATOM     13  C   UNL     1      33.788 -15.451 -24.562  0.00  0.00    +0.179 A 
ATOM     14  C   UNL     1      34.666 -15.143 -22.348  0.00  0.00    +0.007 C 
ATOM     15  C   UNL     1      33.408 -14.119 -24.692  0.00  0.00    +0.070 C 
ATOM     16  C   UNL     1      34.296 -13.793 -22.444  0.00  0.00    +0.030 C 
ATOM     17  C   UNL     1      33.678 -13.293 -23.595  0.00  0.00    +0.143 C 
ENDBRANCH   2  11
BRANCH   1  18
ATOM     18  C   UNL     1      36.259 -20.867 -19.559  0.00  0.00    -0.074 C 
BRANCH  18  19
ATOM     19  C   UNL     1      35.483 -22.171 -19.701  0.00  0.00    +0.025 C 
BRANCH  19  20
ATOM     20  C   UNL     1      34.372 -22.277 -18.666  0.00  0.00    +0.203 C 
BRANCH  20  21
ATOM     21  O   UNL     1      34.812 -23.111 -17.603  0.00  0.00    -0.472 OA
BRANCH  21  22
ATOM     22  C   UNL     1      33.890 -23.423 -16.639  0.00  0.00    +0.172 C 
ATOM     23  C   UNL     1      34.292 -24.039 -15.458  0.00  0.00    +0.172 C 
ATOM     24  C   UNL     1      32.551 -23.117 -16.856  0.00  0.00    +0.040 C 
ATOM     25  C   UNL     1      33.344 -24.351 -14.484  0.00  0.00    +0.043 C 
ATOM     26  C   UNL     1      31.602 -23.429 -15.882  0.00  0.00    +0.006 C 
ATOM     27  C   UNL     1      31.999 -24.047 -14.696  0.00  0.00    +0.038 C 
BRANCH  27  29
ATOM     28  O   UNL     1      31.073 -23.887 -12.532  0.00  0.00    -0.291 OA
ATOM     29  C   UNL     1      31.010 -24.372 -13.680  0.00  0.00    +0.174 C 
ATOM     30  C   UNL     1      29.863 -25.323 -14.001  0.00  0.00    +0.077 C 
ENDBRANCH  27  29
BRANCH  23  31
ATOM     31  O   UNL     1      35.602 -24.340 -15.239  0.00  0.00    -0.468 OA
ATOM     32  C   UNL     1      35.890 -25.634 -14.713  0.00  0.00    +0.253 C 
ENDBRANCH  23  31
ENDBRANCH  21  22
ENDBRANCH  20  21
ENDBRANCH  19  20
ENDBRANCH  18  19
ENDBRANCH   1  18
TORSDOF 8
ENDMDL
MODEL 2
REMARK VINA RESULT:     -11.9      3.639     11.025
REMARK  Name = 71360
REMARK  8 active torsions:
REMARK  status: ('A' for Active; 'I' for Inactive)
REMARK    1  A    between atoms: N_1  and  C_18
REMARK    2  A    between atoms: C_2  and  C_11
REMARK    3  A    between atoms: C_18  and  C_19
REMARK    4  A    between atoms: C_19  and  C_20
REMARK    5  A    between atoms: C_20  and  O_21
REMARK    6  A    between atoms: O_21  and  C_22
REMARK    7  A    between atoms: C_23  and  O_31
REMARK    8  A    between atoms: C_27  and  C_29
REMARK                            x       y       z     vdW  Elec       q    Type
REMARK                         _______ _______ _______ _____ _____    ______ ____
ROOT
ATOM      1  N   UNL     1      34.694 -20.386 -20.255  0.00  0.00    +0.387 N 
ATOM      2  C   UNL     1      34.293 -22.608 -18.382  0.00  0.00    +0.039 C 
ATOM      3  C   UNL     1      33.170 -21.626 -18.750  0.00  0.00    -0.017 C 
ATOM      4  C   UNL     1      35.661 -21.935 -18.584  0.00  0.00    -0.017 C 
ATOM      5  C   UNL     1      33.382 -21.038 -20.148  0.00  0.00    -0.077 C 
ATOM      6  C   UNL     1      35.783 -21.337 -19.988  0.00  0.00    -0.077 C 
ATOM      7  H   UNL     1      34.739 -19.650 -19.550  0.00  0.00    -0.080 HD
ENDROOT
BRANCH   2  11
ATOM      8  F   UNL     1      30.284 -24.363 -13.276  0.00  0.00    -0.204 F 
ATOM      9  O   UNL     1      34.718 -24.075 -15.119  0.00  0.00    -0.354 OA
ATOM     10  N   UNL     1      35.204 -23.605 -16.332  0.00  0.00    -0.081 NA
ATOM     11  C   UNL     1      34.129 -23.190 -16.996  0.00  0.00    +0.100 A 
ATOM     12  C   UNL     1      32.937 -23.365 -16.277  0.00  0.00    +0.054 A 
ATOM     13  C   UNL     1      33.364 -23.931 -15.088  0.00  0.00    +0.179 A 
ATOM     14  C   UNL     1      31.568 -23.124 -16.464  0.00  0.00    +0.007 C 
ATOM     15  C   UNL     1      32.520 -24.289 -14.042  0.00  0.00    +0.070 C 
ATOM     16  C   UNL     1      30.687 -23.472 -15.429  0.00  0.00    +0.030 C 
ATOM     17  C   UNL     1      31.156 -24.044 -14.241  0.00  0.00    +0.143 C 
ENDBRANCH   2  11
BRANCH   1  18
ATOM     18  C   UNL     1      34.858 -19.780 -21.577  0.00  0.00    -0.074 C 
BRANCH  18  19
ATOM     19  C   UNL     1      35.924 -18.692 -21.532  0.00  0.00    +0.025 C 
BRANCH  19  20
ATOM     20  C   UNL     1      35.335 -17.348 -21.126  0.00  0.00    +0.203 C 
BRANCH  20  21
ATOM     21  O   UNL     1      35.143 -16.559 -22.292  0.00  0.00    -0.472 OA
BRANCH  21  22
ATOM     22  C   UNL     1      34.391 -15.422 -22.152  0.00  0.00    +0.172 C 
ATOM     23  C   UNL     1      33.817 -14.821 -23.267  0.00  0.00    +0.172 C 
ATOM     24  C   UNL     1      34.214 -14.878 -20.885  0.00  0.00    +0.040 C 
ATOM     25  C   UNL     1      33.054 -13.663 -23.112  0.00  0.00    +0.043 C 
ATOM     26  C   UNL     1      33.451 -13.720 -20.730  0.00  0.00    +0.006 C 
ATOM     27  C   UNL     1      32.872 -13.112 -21.844  0.00  0.00    +0.038 C 
BRANCH  27  29
ATOM     28  O   UNL     1      31.876 -11.125 -22.635  0.00  0.00    -0.291 OA
ATOM     29  C   UNL     1      32.076 -11.905 -21.682  0.00  0.00    +0.174 C 
ATOM     30  C   UNL     1      31.462 -11.566 -20.329  0.00  0.00    +0.077 C 
ENDBRANCH  27  29
BRANCH  23  31
ATOM     31  O   UNL     1      33.987 -15.350 -24.511  0.00  0.00    -0.468 OA
ATOM     32  C   UNL     1      33.450 -14.613 -25.607  0.00  0.00    +0.253 C 
ENDBRANCH  23  31
ENDBRANCH  21  22
ENDBRANCH  20  21
ENDBRANCH  19  20
ENDBRANCH  18  19
ENDBRANCH   1  18
TORSDOF 8
ENDMDL
MODEL 3
REMARK VINA RESULT:     -11.9      4.286     11.166
REMARK  Name = 71360
REMARK  8 active torsions:
REMARK  status: ('A' for Active; 'I' for Inactive)
REMARK    1  A    between atoms: N_1  and  C_18
REMARK    2  A    between atoms: C_2  and  C_11
REMARK    3  A    between atoms: C_18  and  C_19
REMARK    4  A    between atoms: C_19  and  C_20
REMARK    5  A    between atoms: C_20  and  O_21
REMARK    6  A    between atoms: O_21  and  C_22
REMARK    7  A    between atoms: C_23  and  O_31
REMARK    8  A    between atoms: C_27  and  C_29
REMARK                            x       y       z     vdW  Elec       q    Type
REMARK                         _______ _______ _______ _____ _____    ______ ____
ROOT
ATOM      1  N   UNL     1      35.161 -16.398 -23.621  0.00  0.00    +0.387 N 
ATOM      2  C   UNL     1      34.800 -18.512 -21.620  0.00  0.00    +0.039 C 
ATOM      3  C   UNL     1      35.359 -17.126 -21.264  0.00  0.00    -0.017 C 
ATOM      4  C   UNL     1      35.065 -18.816 -23.104  0.00  0.00    -0.017 C 
ATOM      5  C   UNL     1      34.843 -16.054 -22.228  0.00  0.00    -0.077 C 
ATOM      6  C   UNL     1      34.560 -17.684 -24.001  0.00  0.00    -0.077 C 
ATOM      7  H   UNL     1      36.174 -16.488 -23.700  0.00  0.00    -0.080 HD
ENDROOT
BRANCH   2  11
ATOM      8  F   UNL     1      33.550 -23.792 -17.647  0.00  0.00    -0.204 F 
ATOM      9  O   UNL     1      36.746 -20.774 -19.599  0.00  0.00    -0.354 OA
ATOM     10  N   UNL     1      36.615 -19.693 -20.462  0.00  0.00    -0.081 NA
ATOM     11  C   UNL     1      35.309 -19.600 -20.701  0.00  0.00    +0.100 A 
ATOM     12  C   UNL     1      34.557 -20.578 -20.033  0.00  0.00    +0.054 A 
ATOM     13  C   UNL     1      35.516 -21.300 -19.344  0.00  0.00    +0.179 A 
ATOM     14  C   UNL     1      33.209 -20.948 -19.914  0.00  0.00    +0.007 C 
ATOM     15  C   UNL     1      35.239 -22.391 -18.527  0.00  0.00    +0.070 C 
ATOM     16  C   UNL     1      32.893 -22.044 -19.098  0.00  0.00    +0.030 C 
ATOM     17  C   UNL     1      33.891 -22.751 -18.418  0.00  0.00    +0.143 C 
ENDBRANCH   2  11
BRANCH   1  18
ATOM     18  C   UNL     1      34.712 -15.338 -24.524  0.00  0.00    -0.074 C 
BRANCH  18  19
ATOM     19  C   UNL     1      33.586 -14.536 -23.881  0.00  0.00    +0.025 C 
BRANCH  19  20
ATOM     20  C   UNL     1      33.923 -13.053 -23.814  0.00  0.00    +0.203 C 
BRANCH  20  21
ATOM     21  O   UNL     1      32.716 -12.305 -23.859  0.00  0.00    -0.472 OA
BRANCH  21  22
ATOM     22  C   UNL     1      32.557 -11.330 -22.909  0.00  0.00    +0.172 C 
ATOM     23  C   UNL     1      31.973 -11.634 -21.684  0.00  0.00    +0.172 C 
ATOM     24  C   UNL     1      32.985 -10.036 -23.187  0.00  0.00    +0.040 C 
ATOM     25  C   UNL     1      31.816 -10.633 -20.725  0.00  0.00    +0.043 C 
ATOM     26  C   UNL     1      32.828  -9.035 -22.228  0.00  0.00    +0.006 C 
ATOM     27  C   UNL     1      32.243  -9.333 -20.997  0.00  0.00    +0.038 C 
BRANCH  27  29
ATOM     28  O   UNL     1      31.725  -8.555 -18.831  0.00  0.00    -0.291 OA
ATOM     29  C   UNL     1      32.081  -8.290 -19.997  0.00  0.00    +0.174 C 
ATOM     30  C   UNL     1      32.346  -6.832 -20.358  0.00  0.00    +0.077 C 
ENDBRANCH  27  29
BRANCH  23  31
ATOM     31  O   UNL     1      31.552 -12.900 -21.406  0.00  0.00    -0.468 OA
ATOM     32  C   UNL     1      32.311 -13.640 -20.452  0.00  0.00    +0.253 C 
ENDBRANCH  23  31
ENDBRANCH  21  22
ENDBRANCH  20  21
ENDBRANCH  19  20
ENDBRANCH  18  19
ENDBRANCH   1  18
TORSDOF 8
ENDMDL
MODEL 4
REMARK VINA RESULT:     -11.7      1.557      2.466
REMARK  Name = 71360
REMARK  8 active torsions:
REMARK  status: ('A' for Active; 'I' for Inactive)
REMARK    1  A    between atoms: N_1  and  C_18
REMARK    2  A    between atoms: C_2  and  C_11
REMARK    3  A    between atoms: C_18  and  C_19
REMARK    4  A    between atoms: C_19  and  C_20
REMARK    5  A    between atoms: C_20  and  O_21
REMARK    6  A    between atoms: O_21  and  C_22
REMARK    7  A    between atoms: C_23  and  O_31
REMARK    8  A    between atoms: C_27  and  C_29
REMARK                            x       y       z     vdW  Elec       q    Type
REMARK                         _______ _______ _______ _____ _____    ______ ____
ROOT
ATOM      1  N   UNL     1      35.348 -19.713 -20.800  0.00  0.00    +0.387 N 
ATOM      2  C   UNL     1      35.197 -17.898 -23.101  0.00  0.00    +0.039 C 
ATOM      3  C   UNL     1      35.588 -17.417 -21.695  0.00  0.00    -0.017 C 
ATOM      4  C   UNL     1      34.344 -19.173 -22.997  0.00  0.00    -0.017 C 
ATOM      5  C   UNL     1      36.233 -18.543 -20.881  0.00  0.00    -0.077 C 
ATOM      6  C   UNL     1      35.034 -20.235 -22.138  0.00  0.00    -0.077 C 
ATOM      7  H   UNL     1      34.474 -19.417 -20.366  0.00  0.00    -0.080 HD
ENDROOT
BRANCH   2  11
ATOM      8  F   UNL     1      33.060 -11.548 -23.678  0.00  0.00    -0.204 F 
ATOM      9  O   UNL     1      33.563 -15.916 -25.628  0.00  0.00    -0.354 OA
ATOM     10  N   UNL     1      34.113 -17.101 -25.154  0.00  0.00    -0.081 NA
ATOM     11  C   UNL     1      34.533 -16.817 -23.924  0.00  0.00    +0.100 A 
ATOM     12  C   UNL     1      34.289 -15.487 -23.553  0.00  0.00    +0.054 A 
ATOM     13  C   UNL     1      33.669 -14.954 -24.670  0.00  0.00    +0.179 A 
ATOM     14  C   UNL     1      34.502 -14.666 -22.435  0.00  0.00    +0.007 C 
ATOM     15  C   UNL     1      33.234 -13.637 -24.772  0.00  0.00    +0.070 C 
ATOM     16  C   UNL     1      34.076 -13.331 -22.504  0.00  0.00    +0.030 C 
ATOM     17  C   UNL     1      33.454 -12.829 -23.651  0.00  0.00    +0.143 C 
ENDBRANCH   2  11
BRANCH   1  18
ATOM     18  C   UNL     1      35.955 -20.757 -19.974  0.00  0.00    -0.074 C 
BRANCH  18  19
ATOM     19  C   UNL     1      34.873 -21.604 -19.314  0.00  0.00    +0.025 C 
BRANCH  19  20
ATOM     20  C   UNL     1      35.431 -22.423 -18.158  0.00  0.00    +0.203 C 
BRANCH  20  21
ATOM     21  O   UNL     1      34.349 -22.960 -17.411  0.00  0.00    -0.472 OA
BRANCH  21  22
ATOM     22  C   UNL     1      34.599 -23.280 -16.102  0.00  0.00    +0.172 C 
ATOM     23  C   UNL     1      33.567 -23.717 -15.278  0.00  0.00    +0.172 C 
ATOM     24  C   UNL     1      35.895 -23.161 -15.611  0.00  0.00    +0.040 C 
ATOM     25  C   UNL     1      33.835 -24.040 -13.947  0.00  0.00    +0.043 C 
ATOM     26  C   UNL     1      36.162 -23.484 -14.280  0.00  0.00    +0.006 C 
ATOM     27  C   UNL     1      35.132 -23.923 -13.449  0.00  0.00    +0.038 C 
BRANCH  27  29
ATOM     28  O   UNL     1      34.711 -25.084 -11.438  0.00  0.00    -0.291 OA
ATOM     29  C   UNL     1      35.411 -24.260 -12.061  0.00  0.00    +0.174 C 
ATOM     30  C   UNL     1      36.580 -23.606 -11.332  0.00  0.00    +0.077 C 
ENDBRANCH  27  29
BRANCH  23  31
ATOM     31  O   UNL     1      32.296 -23.836 -15.754  0.00  0.00    -0.468 OA
ATOM     32  C   UNL     1      31.237 -23.485 -14.866  0.00  0.00    +0.253 C 
ENDBRANCH  23  31
ENDBRANCH  21  22
ENDBRANCH  20  21
ENDBRANCH  19  20
ENDBRANCH  18  19
ENDBRANCH   1  18
TORSDOF 8
ENDMDL
MODEL 5
REMARK VINA RESULT:     -11.5      3.841     10.958
REMARK  Name = 71360
REMARK  8 active torsions:
REMARK  status: ('A' for Active; 'I' for Inactive)
REMARK    1  A    between atoms: N_1  and  C_18
REMARK    2  A    between atoms: C_2  and  C_11
REMARK    3  A    between atoms: C_18  and  C_19
REMARK    4  A    between atoms: C_19  and  C_20
REMARK    5  A    between atoms: C_20  and  O_21
REMARK    6  A    between atoms: O_21  and  C_22
REMARK    7  A    between atoms: C_23  and  O_31
REMARK    8  A    between atoms: C_27  and  C_29
REMARK                            x       y       z     vdW  Elec       q    Type
REMARK                         _______ _______ _______ _____ _____    ______ ____
ROOT
ATOM      1  N   UNL     1      35.056 -19.859 -20.543  0.00  0.00    +0.387 N 
ATOM      2  C   UNL     1      34.071 -22.147 -18.993  0.00  0.00    +0.039 C 
ATOM      3  C   UNL     1      33.147 -21.018 -19.474  0.00  0.00    -0.017 C 
ATOM      4  C   UNL     1      35.512 -21.624 -18.870  0.00  0.00    -0.017 C 
ATOM      5  C   UNL     1      33.690 -20.360 -20.746  0.00  0.00    -0.077 C 
ATOM      6  C   UNL     1      35.969 -20.946 -20.163  0.00  0.00    -0.077 C 
ATOM      7  H   UNL     1      35.033 -19.185 -19.777  0.00  0.00    -0.080 HD
ENDROOT
BRANCH   2  11
ATOM      8  F   UNL     1      35.344 -24.538 -12.837  0.00  0.00    -0.204 F 
ATOM      9  O   UNL     1      32.171 -23.696 -16.352  0.00  0.00    -0.354 OA
ATOM     10  N   UNL     1      32.292 -23.125 -17.613  0.00  0.00    -0.081 NA
ATOM     11  C   UNL     1      33.578 -22.803 -17.722  0.00  0.00    +0.100 A 
ATOM     12  C   UNL     1      34.327 -23.135 -16.584  0.00  0.00    +0.054 A 
ATOM     13  C   UNL     1      33.387 -23.702 -15.740  0.00  0.00    +0.179 A 
ATOM     14  C   UNL     1      35.658 -23.037 -16.153  0.00  0.00    +0.007 C 
ATOM     15  C   UNL     1      33.669 -24.190 -14.468  0.00  0.00    +0.070 C 
ATOM     16  C   UNL     1      35.978 -23.521 -14.876  0.00  0.00    +0.030 C 
ATOM     17  C   UNL     1      35.000 -24.087 -14.051  0.00  0.00    +0.143 C 
ENDBRANCH   2  11
BRANCH   1  18
ATOM     18  C   UNL     1      35.538 -19.184 -21.748  0.00  0.00    -0.074 C 
BRANCH  18  19
ATOM     19  C   UNL     1      35.475 -17.671 -21.568  0.00  0.00    +0.025 C 
BRANCH  19  20
ATOM     20  C   UNL     1      34.903 -16.985 -22.801  0.00  0.00    +0.203 C 
BRANCH  20  21
ATOM     21  O   UNL     1      35.315 -15.625 -22.803  0.00  0.00    -0.472 OA
BRANCH  21  22
ATOM     22  C   UNL     1      34.404 -14.701 -22.361  0.00  0.00    +0.172 C 
ATOM     23  C   UNL     1      33.838 -13.795 -23.253  0.00  0.00    +0.172 C 
ATOM     24  C   UNL     1      34.055 -14.682 -21.015  0.00  0.00    +0.040 C 
ATOM     25  C   UNL     1      32.912 -12.860 -22.792  0.00  0.00    +0.043 C 
ATOM     26  C   UNL     1      33.129 -13.746 -20.554  0.00  0.00    +0.006 C 
ATOM     27  C   UNL     1      32.558 -12.835 -21.442  0.00  0.00    +0.038 C 
BRANCH  27  29
ATOM     28  O   UNL     1      30.662 -11.451 -21.688  0.00  0.00    -0.291 OA
ATOM     29  C   UNL     1      31.591 -11.860 -20.962  0.00  0.00    +0.174 C 
ATOM     30  C   UNL     1      31.695 -11.310 -19.543  0.00  0.00    +0.077 C 
ENDBRANCH  27  29
BRANCH  23  31
ATOM     31  O   UNL     1      34.176 -13.810 -24.572  0.00  0.00    -0.468 OA
ATOM     32  C   UNL     1      33.243 -14.405 -25.473  0.00  0.00    +0.253 C 
ENDBRANCH  23  31
ENDBRANCH  21  22
ENDBRANCH  20  21
ENDBRANCH  19  20
ENDBRANCH  18  19
ENDBRANCH   1  18
TORSDOF 8
ENDMDL
MODEL 6
REMARK VINA RESULT:     -11.3      1.407      2.196
REMARK  Name = 71360
REMARK  8 active torsions:
REMARK  status: ('A' for Active; 'I' for Inactive)
REMARK    1  A    between atoms: N_1  and  C_18
REMARK    2  A    between atoms: C_2  and  C_11
REMARK    3  A    between atoms: C_18  and  C_19
REMARK    4  A    between atoms: C_19  and  C_20
REMARK    5  A    between atoms: C_20  and  O_21
REMARK    6  A    between atoms: O_21  and  C_22
REMARK    7  A    between atoms: C_23  and  O_31
REMARK    8  A    between atoms: C_27  and  C_29
REMARK                            x       y       z     vdW  Elec       q    Type
REMARK                         _______ _______ _______ _____ _____    ______ ____
ROOT
ATOM      1  N   UNL     1      34.830 -19.687 -21.035  0.00  0.00    +0.387 N 
ATOM      2  C   UNL     1      35.014 -17.666 -23.153  0.00  0.00    +0.039 C 
ATOM      3  C   UNL     1      35.121 -17.310 -21.662  0.00  0.00    -0.017 C 
ATOM      4  C   UNL     1      34.216 -18.969 -23.322  0.00  0.00    -0.017 C 
ATOM      5  C   UNL     1      35.660 -18.489 -20.846  0.00  0.00    -0.077 C 
ATOM      6  C   UNL     1      34.788 -20.088 -22.448  0.00  0.00    -0.077 C 
ATOM      7  H   UNL     1      33.879 -19.460 -20.744  0.00  0.00    -0.080 HD
ENDROOT
BRANCH   2  11
ATOM      8  F   UNL     1      32.979 -11.272 -23.605  0.00  0.00    -0.204 F 
ATOM      9  O   UNL     1      33.714 -15.520 -25.739  0.00  0.00    -0.354 OA
ATOM     10  N   UNL     1      34.198 -16.736 -25.273  0.00  0.00    -0.081 NA
ATOM     11  C   UNL     1      34.461 -16.531 -23.985  0.00  0.00    +0.100 A 
ATOM     12  C   UNL     1      34.175 -15.223 -23.567  0.00  0.00    +0.054 A 
ATOM     13  C   UNL     1      33.701 -14.618 -24.718  0.00  0.00    +0.179 A 
ATOM     14  C   UNL     1      34.248 -14.473 -22.384  0.00  0.00    +0.007 C 
ATOM     15  C   UNL     1      33.285 -13.293 -24.794  0.00  0.00    +0.070 C 
ATOM     16  C   UNL     1      33.836 -13.133 -22.423  0.00  0.00    +0.030 C 
ATOM     17  C   UNL     1      33.364 -12.555 -23.607  0.00  0.00    +0.143 C 
ENDBRANCH   2  11
BRANCH   1  18
ATOM     18  C   UNL     1      35.324 -20.787 -20.206  0.00  0.00    -0.074 C 
BRANCH  18  19
ATOM     19  C   UNL     1      34.202 -21.778 -19.917  0.00  0.00    +0.025 C 
BRANCH  19  20
ATOM     20  C   UNL     1      34.129 -22.124 -18.437  0.00  0.00    +0.203 C 
BRANCH  20  21
ATOM     21  O   UNL     1      32.805 -22.533 -18.125  0.00  0.00    -0.472 OA
BRANCH  21  22
ATOM     22  C   UNL     1      32.611 -23.124 -16.904  0.00  0.00    +0.172 C 
ATOM     23  C   UNL     1      31.346 -23.135 -16.324  0.00  0.00    +0.172 C 
ATOM     24  C   UNL     1      33.692 -23.709 -16.254  0.00  0.00    +0.040 C 
ATOM     25  C   UNL     1      31.162 -23.740 -15.081  0.00  0.00    +0.043 C 
ATOM     26  C   UNL     1      33.507 -24.314 -15.011  0.00  0.00    +0.006 C 
ATOM     27  C   UNL     1      32.242 -24.329 -14.424  0.00  0.00    +0.038 C 
BRANCH  27  29
ATOM     28  O   UNL     1      33.018 -25.314 -12.425  0.00  0.00    -0.291 OA
ATOM     29  C   UNL     1      32.050 -24.960 -13.127  0.00  0.00    +0.174 C 
ATOM     30  C   UNL     1      30.642 -25.205 -12.594  0.00  0.00    +0.077 C 
ENDBRANCH  27  29
BRANCH  23  31
ATOM     31  O   UNL     1      30.283 -22.564 -16.956  0.00  0.00    -0.468 OA
ATOM     32  C   UNL     1      28.983 -22.964 -16.527  0.00  0.00    +0.253 C 
ENDBRANCH  23  31
ENDBRANCH  21  22
ENDBRANCH  20  21
ENDBRANCH  19  20
ENDBRANCH  18  19
ENDBRANCH   1  18
TORSDOF 8
ENDMDL
MODEL 7
REMARK VINA RESULT:     -11.3      1.797      2.398
REMARK  Name = 71360
REMARK  8 active torsions:
REMARK  status: ('A' for Active; 'I' for Inactive)
REMARK    1  A    between atoms: N_1  and  C_18
REMARK    2  A    between atoms: C_2  and  C_11
REMARK    3  A    between atoms: C_18  and  C_19
REMARK    4  A    between atoms: C_19  and  C_20
REMARK    5  A    between atoms: C_20  and  O_21
REMARK    6  A    between atoms: O_21  and  C_22
REMARK    7  A    between atoms: C_23  and  O_31
REMARK    8  A    between atoms: C_27  and  C_29
REMARK                            x       y       z     vdW  Elec       q    Type
REMARK                         _______ _______ _______ _____ _____    ______ ____
ROOT
ATOM      1  N   UNL     1      35.784 -19.834 -20.290  0.00  0.00    +0.387 N 
ATOM      2  C   UNL     1      35.205 -18.544 -22.860  0.00  0.00    +0.039 C 
ATOM      3  C   UNL     1      36.296 -18.032 -21.907  0.00  0.00    -0.017 C 
ATOM      4  C   UNL     1      34.139 -19.317 -22.065  0.00  0.00    -0.017 C 
ATOM      5  C   UNL     1      36.854 -19.165 -21.041  0.00  0.00    -0.077 C 
ATOM      6  C   UNL     1      34.775 -20.404 -21.195  0.00  0.00    -0.077 C 
ATOM      7  H   UNL     1      35.324 -19.135 -19.706  0.00  0.00    -0.080 HD
ENDROOT
BRANCH   2  11
ATOM      8  F   UNL     1      33.464 -12.092 -23.608  0.00  0.00    -0.204 F 
ATOM      9  O   UNL     1      33.710 -16.530 -25.446  0.00  0.00    -0.354 OA
ATOM     10  N   UNL     1      34.183 -17.734 -24.940  0.00  0.00    -0.081 NA
ATOM     11  C   UNL     1      34.613 -17.446 -23.715  0.00  0.00    +0.100 A 
ATOM     12  C   UNL     1      34.449 -16.094 -23.378  0.00  0.00    +0.054 A 
ATOM     13  C   UNL     1      33.869 -15.553 -24.512  0.00  0.00    +0.179 A 
ATOM     14  C   UNL     1      34.706 -15.260 -22.279  0.00  0.00    +0.007 C 
ATOM     15  C   UNL     1      33.516 -14.214 -24.649  0.00  0.00    +0.070 C 
ATOM     16  C   UNL     1      34.362 -13.904 -22.383  0.00  0.00    +0.030 C 
ATOM     17  C   UNL     1      33.778 -13.393 -23.547  0.00  0.00    +0.143 C 
ENDBRANCH   2  11
BRANCH   1  18
ATOM     18  C   UNL     1      36.340 -20.876 -19.425  0.00  0.00    -0.074 C 
BRANCH  18  19
ATOM     19  C   UNL     1      35.461 -22.121 -19.465  0.00  0.00    +0.025 C 
BRANCH  19  20
ATOM     20  C   UNL     1      35.066 -22.571 -18.065  0.00  0.00    +0.203 C 
BRANCH  20  21
ATOM     21  O   UNL     1      36.223 -22.583 -17.242  0.00  0.00    -0.472 OA
BRANCH  21  22
ATOM     22  C   UNL     1      36.062 -23.026 -15.955  0.00  0.00    +0.172 C 
ATOM     23  C   UNL     1      37.172 -23.366 -15.188  0.00  0.00    +0.172 C 
ATOM     24  C   UNL     1      34.779 -23.131 -15.429  0.00  0.00    +0.040 C 
ATOM     25  C   UNL     1      36.995 -23.816 -13.879  0.00  0.00    +0.043 C 
ATOM     26  C   UNL     1      34.603 -23.581 -14.120  0.00  0.00    +0.006 C 
ATOM     27  C   UNL     1      35.711 -23.923 -13.345  0.00  0.00    +0.038 C 
BRANCH  27  29
ATOM     28  O   UNL     1      34.610 -23.949 -11.259  0.00  0.00    -0.291 OA
ATOM     29  C   UNL     1      35.527 -24.391 -11.980  0.00  0.00    +0.174 C 
ATOM     30  C   UNL     1      36.462 -25.445 -11.397  0.00  0.00    +0.077 C 
ENDBRANCH  27  29
BRANCH  23  31
ATOM     31  O   UNL     1      38.431 -23.264 -15.697  0.00  0.00    -0.468 OA
ATOM     32  C   UNL     1      39.360 -24.285 -15.337  0.00  0.00    +0.253 C 
ENDBRANCH  23  31
ENDBRANCH  21  22
ENDBRANCH  20  21
ENDBRANCH  19  20
ENDBRANCH  18  19
ENDBRANCH   1  18
TORSDOF 8
ENDMDL
MODEL 8
REMARK VINA RESULT:     -11.2      5.158     12.444
REMARK  Name = 71360
REMARK  8 active torsions:
REMARK  status: ('A' for Active; 'I' for Inactive)
REMARK    1  A    between atoms: N_1  and  C_18
REMARK    2  A    between atoms: C_2  and  C_11
REMARK    3  A    between atoms: C_18  and  C_19
REMARK    4  A    between atoms: C_19  and  C_20
REMARK    5  A    between atoms: C_20  and  O_21
REMARK    6  A    between atoms: O_21  and  C_22
REMARK    7  A    between atoms: C_23  and  O_31
REMARK    8  A    between atoms: C_27  and  C_29
REMARK                            x       y       z     vdW  Elec       q    Type
REMARK                         _______ _______ _______ _____ _____    ______ ____
ROOT
ATOM      1  N   UNL     1      34.793 -15.127 -23.072  0.00  0.00    +0.387 N 
ATOM      2  C   UNL     1      34.680 -17.707 -21.681  0.00  0.00    +0.039 C 
ATOM      3  C   UNL     1      34.900 -16.379 -20.940  0.00  0.00    -0.017 C 
ATOM      4  C   UNL     1      35.150 -17.575 -23.138  0.00  0.00    -0.017 C 
ATOM      5  C   UNL     1      34.273 -15.207 -21.700  0.00  0.00    -0.077 C 
ATOM      6  C   UNL     1      34.514 -16.362 -23.820  0.00  0.00    -0.077 C 
ATOM      7  H   UNL     1      35.806 -15.014 -23.019  0.00  0.00    -0.080 HD
ENDROOT
BRANCH   2  11
ATOM      8  F   UNL     1      33.992 -23.576 -18.471  0.00  0.00    -0.204 F 
ATOM      9  O   UNL     1      36.879 -20.114 -20.147  0.00  0.00    -0.354 OA
ATOM     10  N   UNL     1      36.632 -18.930 -20.829  0.00  0.00    -0.081 NA
ATOM     11  C   UNL     1      35.309 -18.884 -20.969  0.00  0.00    +0.100 A 
ATOM     12  C   UNL     1      34.659 -19.993 -20.408  0.00  0.00    +0.054 A 
ATOM     13  C   UNL     1      35.700 -20.747 -19.896  0.00  0.00    +0.179 A 
ATOM     14  C   UNL     1      33.343 -20.459 -20.262  0.00  0.00    +0.007 C 
ATOM     15  C   UNL     1      35.539 -21.961 -19.236  0.00  0.00    +0.070 C 
ATOM     16  C   UNL     1      33.144 -21.680 -19.600  0.00  0.00    +0.030 C 
ATOM     17  C   UNL     1      34.222 -22.415 -19.097  0.00  0.00    +0.143 C 
ENDBRANCH   2  11
BRANCH   1  18
ATOM     18  C   UNL     1      34.227 -13.970 -23.767  0.00  0.00    -0.074 C 
BRANCH  18  19
ATOM     19  C   UNL     1      33.173 -13.295 -22.897  0.00  0.00    +0.025 C 
BRANCH  19  20
ATOM     20  C   UNL     1      33.095 -11.800 -23.172  0.00  0.00    +0.203 C 
BRANCH  20  21
ATOM     21  O   UNL     1      32.095 -11.230 -22.339  0.00  0.00    -0.472 OA
BRANCH  21  22
ATOM     22  C   UNL     1      31.932  -9.871 -22.407  0.00  0.00    +0.172 C 
ATOM     23  C   UNL     1      31.972  -9.102 -21.249  0.00  0.00    +0.172 C 
ATOM     24  C   UNL     1      31.726  -9.275 -23.646  0.00  0.00    +0.040 C 
ATOM     25  C   UNL     1      31.805  -7.720 -21.332  0.00  0.00    +0.043 C 
ATOM     26  C   UNL     1      31.558  -7.892 -23.729  0.00  0.00    +0.006 C 
ATOM     27  C   UNL     1      31.598  -7.115 -22.572  0.00  0.00    +0.038 C 
BRANCH  27  29
ATOM     28  O   UNL     1      30.888  -5.140 -23.651  0.00  0.00    -0.291 OA
ATOM     29  C   UNL     1      31.424  -5.673 -22.658  0.00  0.00    +0.174 C 
ATOM     30  C   UNL     1      31.898  -4.773 -21.522  0.00  0.00    +0.077 C 
ENDBRANCH  27  29
BRANCH  23  31
ATOM     31  O   UNL     1      32.175  -9.681 -20.033  0.00  0.00    -0.468 OA
ATOM     32  C   UNL     1      31.082 -10.401 -19.468  0.00  0.00    +0.253 C 
ENDBRANCH  23  31
ENDBRANCH  21  22
ENDBRANCH  20  21
ENDBRANCH  19  20
ENDBRANCH  18  19
ENDBRANCH   1  18
TORSDOF 8
ENDMDL
MODEL 9
REMARK VINA RESULT:     -11.2      2.108      4.262
REMARK  Name = 71360
REMARK  8 active torsions:
REMARK  status: ('A' for Active; 'I' for Inactive)
REMARK    1  A    between atoms: N_1  and  C_18
REMARK    2  A    between atoms: C_2  and  C_11
REMARK    3  A    between atoms: C_18  and  C_19
REMARK    4  A    between atoms: C_19  and  C_20
REMARK    5  A    between atoms: C_20  and  O_21
REMARK    6  A    between atoms: O_21  and  C_22
REMARK    7  A    between atoms: C_23  and  O_31
REMARK    8  A    between atoms: C_27  and  C_29
REMARK                            x       y       z     vdW  Elec       q    Type
REMARK                         _______ _______ _______ _____ _____    ______ ____
ROOT
ATOM      1  N   UNL     1      33.991 -22.633 -19.094  0.00  0.00    +0.387 N 
ATOM      2  C   UNL     1      34.539 -20.062 -20.396  0.00  0.00    +0.039 C 
ATOM      3  C   UNL     1      33.122 -20.648 -20.290  0.00  0.00    -0.017 C 
ATOM      4  C   UNL     1      35.577 -21.194 -20.334  0.00  0.00    -0.017 C 
ATOM      5  C   UNL     1      32.988 -21.559 -19.067  0.00  0.00    -0.077 C 
ATOM      6  C   UNL     1      35.355 -22.085 -19.110  0.00  0.00    -0.077 C 
ATOM      7  H   UNL     1      33.857 -23.168 -19.952  0.00  0.00    -0.080 HD
ENDROOT
BRANCH   2  11
ATOM      8  F   UNL     1      34.912 -13.896 -23.056  0.00  0.00    -0.204 F 
ATOM      9  O   UNL     1      35.021 -18.664 -23.682  0.00  0.00    -0.354 OA
ATOM     10  N   UNL     1      34.895 -19.732 -22.803  0.00  0.00    -0.081 NA
ATOM     11  C   UNL     1      34.715 -19.175 -21.609  0.00  0.00    +0.100 A 
ATOM     12  C   UNL     1      34.717 -17.773 -21.650  0.00  0.00    +0.054 A 
ATOM     13  C   UNL     1      34.914 -17.495 -22.992  0.00  0.00    +0.179 A 
ATOM     14  C   UNL     1      34.578 -16.708 -20.748  0.00  0.00    +0.007 C 
ATOM     15  C   UNL     1      34.990 -16.213 -23.525  0.00  0.00    +0.070 C 
ATOM     16  C   UNL     1      34.648 -15.400 -21.250  0.00  0.00    +0.030 C 
ATOM     17  C   UNL     1      34.851 -15.160 -22.614  0.00  0.00    +0.143 C 
ENDBRANCH   2  11
BRANCH   1  18
ATOM     18  C   UNL     1      33.813 -23.527 -17.949  0.00  0.00    -0.074 C 
BRANCH  18  19
ATOM     19  C   UNL     1      32.716 -23.000 -17.031  0.00  0.00    +0.025 C 
BRANCH  19  20
ATOM     20  C   UNL     1      32.759 -23.671 -15.666  0.00  0.00    +0.203 C 
BRANCH  20  21
ATOM     21  O   UNL     1      33.810 -23.096 -14.903  0.00  0.00    -0.472 OA
BRANCH  21  22
ATOM     22  C   UNL     1      34.953 -23.840 -14.765  0.00  0.00    +0.172 C 
ATOM     23  C   UNL     1      36.179 -23.320 -15.166  0.00  0.00    +0.172 C 
ATOM     24  C   UNL     1      34.870 -25.117 -14.221  0.00  0.00    +0.040 C 
ATOM     25  C   UNL     1      37.336 -24.087 -15.021  0.00  0.00    +0.043 C 
ATOM     26  C   UNL     1      36.026 -25.884 -14.076  0.00  0.00    +0.006 C 
ATOM     27  C   UNL     1      37.259 -25.369 -14.476  0.00  0.00    +0.038 C 
BRANCH  27  29
ATOM     28  O   UNL     1      38.432 -27.414 -14.386  0.00  0.00    -0.291 OA
ATOM     29  C   UNL     1      38.465 -26.168 -14.324  0.00  0.00    +0.174 C 
ATOM     30  C   UNL     1      39.809 -25.491 -14.083  0.00  0.00    +0.077 C 
ENDBRANCH  27  29
BRANCH  23  31
ATOM     31  O   UNL     1      36.267 -22.070 -15.699  0.00  0.00    -0.468 OA
ATOM     32  C   UNL     1      37.537 -21.673 -16.214  0.00  0.00    +0.253 C 
ENDBRANCH  23  31
ENDBRANCH  21  22
ENDBRANCH  20  21
ENDBRANCH  19  20
ENDBRANCH  18  19
ENDBRANCH   1  18
TORSDOF 8
ENDMDL
