MODEL 1
REMARK VINA RESULT:     -11.6      0.000      0.000
REMARK  Name = 11653652
REMARK  5 active torsions:
REMARK  status: ('A' for Active; 'I' for Inactive)
REMARK    1  A    between atoms: N_1  and  C_19
REMARK    2  A    between atoms: C_4  and  C_7
REMARK    3  A    between atoms: C_5  and  C_27
REMARK    4  A    between atoms: N_6  and  C_13
REMARK    5  A    between atoms: N_6  and  O_16
REMARK                            x       y       z     vdW  Elec       q    Type
REMARK                         _______ _______ _______ _____ _____    ______ ____
ROOT
ATOM      1  N   UNL     1      33.689 -22.548 -18.055  0.00  0.00    -0.212 N 
ATOM      2  N   UNL     1      32.401 -22.848 -17.814  0.00  0.00    -0.178 NA
ATOM      3  C   UNL     1      34.533 -22.882 -17.037  0.00  0.00    +0.085 C 
ATOM      4  C   UNL     1      33.741 -23.436 -16.066  0.00  0.00    +0.032 C 
ATOM      5  C   UNL     1      32.440 -23.391 -16.594  0.00  0.00    +0.100 C 
ENDROOT
BRANCH   4   6
ATOM      6  C   UNL     1      34.250 -23.926 -14.814  0.00  0.00    -0.015 C 
ATOM      7  C   UNL     1      35.907 -25.124 -13.572  0.00  0.00    -0.016 C 
ATOM      8  C   UNL     1      37.146 -25.927 -13.321  0.00  0.00    -0.002 C 
ATOM      9  C   UNL     1      35.197 -24.847 -12.409  0.00  0.00    +0.016 C 
ATOM     10  C   UNL     1      37.152 -26.143 -11.798  0.00  0.00    +0.021 C 
ATOM     11  C   UNL     1      35.438 -24.663 -14.791  0.00  0.00    +0.053 C 
ATOM     12  C   UNL     1      35.912 -25.446 -11.302  0.00  0.00    +0.107 C 
ATOM     13  C   UNL     1      33.546 -23.657 -13.627  0.00  0.00    -0.004 C 
ATOM     14  C   UNL     1      34.020 -24.121 -12.401  0.00  0.00    +0.001 C 
BRANCH  12  15
ATOM     15  N   UNL     1      35.581 -25.416 -10.057  0.00  0.00    -0.135 NA
BRANCH  15  16
ATOM     16  O   UNL     1      36.237 -24.341  -9.451  0.00  0.00    -0.265 OA
ATOM     17  H   UNL     1      36.307 -23.522  -9.900  0.00  0.00    +0.247 HD
ENDBRANCH  15  16
ENDBRANCH  12  15
ENDBRANCH   4   6
BRANCH   1  19
ATOM     18  N   UNL     1      34.862 -19.657 -20.993  0.00  0.00    +0.384 N 
ATOM     19  C   UNL     1      34.064 -21.921 -19.327  0.00  0.00    +0.092 C 
ATOM     20  C   UNL     1      33.065 -20.841 -19.773  0.00  0.00    -0.002 C 
ATOM     21  C   UNL     1      35.494 -21.359 -19.312  0.00  0.00    -0.002 C 
ATOM     22  C   UNL     1      33.506 -20.200 -21.088  0.00  0.00    -0.080 C 
ATOM     23  C   UNL     1      35.834 -20.696 -20.647  0.00  0.00    -0.080 C 
ATOM     24  H   UNL     1      34.880 -18.934 -20.273  0.00  0.00    -0.085 HD
ATOM     25  H   UNL     1      35.117 -19.272 -21.902  0.00  0.00    -0.085 HD
ENDBRANCH   1  19
BRANCH   5  27
ATOM     26  N   UNL     1      28.875 -24.746 -14.761  0.00  0.00    -0.242 NA
ATOM     27  C   UNL     1      31.226 -23.853 -15.970  0.00  0.00    +0.022 C 
ATOM     28  C   UNL     1      31.192 -25.097 -15.357  0.00  0.00    +0.022 C 
ATOM     29  C   UNL     1      30.092 -23.051 -15.983  0.00  0.00    +0.022 C 
ATOM     30  C   UNL     1      30.001 -25.495 -14.771  0.00  0.00    +0.099 C 
ATOM     31  C   UNL     1      28.951 -23.541 -15.369  0.00  0.00    +0.099 C 
ENDBRANCH   5  27
TORSDOF 5
ENDMDL
MODEL 2
REMARK VINA RESULT:      -9.9     12.007     16.829
REMARK  Name = 11653652
REMARK  5 active torsions:
REMARK  status: ('A' for Active; 'I' for Inactive)
REMARK    1  A    between atoms: N_1  and  C_19
REMARK    2  A    between atoms: C_4  and  C_7
REMARK    3  A    between atoms: C_5  and  C_27
REMARK    4  A    between atoms: N_6  and  C_13
REMARK    5  A    between atoms: N_6  and  O_16
REMARK                            x       y       z     vdW  Elec       q    Type
REMARK                         _______ _______ _______ _____ _____    ______ ____
ROOT
ATOM      1  N   UNL     1      33.082 -12.800 -22.917  0.00  0.00    -0.212 N 
ATOM      2  N   UNL     1      32.681 -12.439 -21.687  0.00  0.00    -0.178 NA
ATOM      3  C   UNL     1      33.211 -11.755 -23.785  0.00  0.00    +0.085 C 
ATOM      4  C   UNL     1      32.871 -10.637 -23.070  0.00  0.00    +0.032 C 
ATOM      5  C   UNL     1      32.553 -11.112 -21.787  0.00  0.00    +0.100 C 
ENDROOT
BRANCH   4   6
ATOM      6  C   UNL     1      32.877  -9.312 -23.626  0.00  0.00    -0.015 C 
ATOM      7  C   UNL     1      34.064  -7.338 -24.277  0.00  0.00    -0.016 C 
ATOM      8  C   UNL     1      35.230  -6.423 -24.487  0.00  0.00    -0.002 C 
ATOM      9  C   UNL     1      32.858  -6.782 -24.690  0.00  0.00    +0.016 C 
ATOM     10  C   UNL     1      34.610  -5.161 -25.109  0.00  0.00    +0.021 C 
ATOM     11  C   UNL     1      34.085  -8.615 -23.740  0.00  0.00    +0.053 C 
ATOM     12  C   UNL     1      33.137  -5.458 -25.204  0.00  0.00    +0.107 C 
ATOM     13  C   UNL     1      31.669  -8.731 -24.049  0.00  0.00    -0.004 C 
ATOM     14  C   UNL     1      31.650  -7.446 -24.591  0.00  0.00    +0.001 C 
BRANCH  12  15
ATOM     15  N   UNL     1      32.286  -4.617 -25.682  0.00  0.00    -0.135 NA
BRANCH  15  16
ATOM     16  O   UNL     1      31.751  -3.878 -24.623  0.00  0.00    -0.265 OA
ATOM     17  H   UNL     1      32.138  -3.933 -23.772  0.00  0.00    +0.247 HD
ENDBRANCH  15  16
ENDBRANCH  12  15
ENDBRANCH   4   6
BRANCH   1  19
ATOM     18  N   UNL     1      34.925 -16.418 -24.290  0.00  0.00    +0.384 N 
ATOM     19  C   UNL     1      33.336 -14.214 -23.213  0.00  0.00    +0.092 C 
ATOM     20  C   UNL     1      33.425 -14.499 -24.721  0.00  0.00    -0.002 C 
ATOM     21  C   UNL     1      34.578 -14.757 -22.489  0.00  0.00    -0.002 C 
ATOM     22  C   UNL     1      33.713 -15.977 -24.981  0.00  0.00    -0.080 C 
ATOM     23  C   UNL     1      34.818 -16.225 -22.842  0.00  0.00    -0.080 C 
ATOM     24  H   UNL     1      35.719 -15.880 -24.638  0.00  0.00    -0.085 HD
ATOM     25  H   UNL     1      35.052 -17.413 -24.471  0.00  0.00    -0.085 HD
ENDBRANCH   1  19
BRANCH   5  27
ATOM     26  N   UNL     1      31.310  -8.841 -18.441  0.00  0.00    -0.242 NA
ATOM     27  C   UNL     1      32.130 -10.339 -20.647  0.00  0.00    +0.022 C 
ATOM     28  C   UNL     1      32.333  -8.966 -20.628  0.00  0.00    +0.022 C 
ATOM     29  C   UNL     1      31.520 -10.968 -19.571  0.00  0.00    +0.022 C 
ATOM     30  C   UNL     1      31.908  -8.267 -19.510  0.00  0.00    +0.099 C 
ATOM     31  C   UNL     1      31.132 -10.180 -18.500  0.00  0.00    +0.099 C 
ENDBRANCH   5  27
TORSDOF 5
ENDMDL
MODEL 3
REMARK VINA RESULT:      -9.8      1.283      1.691
REMARK  Name = 11653652
REMARK  5 active torsions:
REMARK  status: ('A' for Active; 'I' for Inactive)
REMARK    1  A    between atoms: N_1  and  C_19
REMARK    2  A    between atoms: C_4  and  C_7
REMARK    3  A    between atoms: C_5  and  C_27
REMARK    4  A    between atoms: N_6  and  C_13
REMARK    5  A    between atoms: N_6  and  O_16
REMARK                            x       y       z     vdW  Elec       q    Type
REMARK                         _______ _______ _______ _____ _____    ______ ____
ROOT
ATOM      1  N   UNL     1      34.861 -22.100 -18.394  0.00  0.00    -0.212 N 
ATOM      2  N   UNL     1      33.591 -22.379 -18.057  0.00  0.00    -0.178 NA
ATOM      3  C   UNL     1      35.777 -22.475 -17.456  0.00  0.00    +0.085 C 
ATOM      4  C   UNL     1      35.053 -23.037 -16.436  0.00  0.00    +0.032 C 
ATOM      5  C   UNL     1      33.715 -22.952 -16.857  0.00  0.00    +0.100 C 
ENDROOT
BRANCH   4   6
ATOM      6  C   UNL     1      35.650 -23.567 -15.242  0.00  0.00    -0.015 C 
ATOM      7  C   UNL     1      36.527 -25.416 -14.002  0.00  0.00    -0.016 C 
ATOM      8  C   UNL     1      36.927 -26.829 -13.709  0.00  0.00    -0.002 C 
ATOM      9  C   UNL     1      36.789 -24.550 -12.946  0.00  0.00    +0.016 C 
ATOM     10  C   UNL     1      37.501 -26.770 -12.284  0.00  0.00    +0.021 C 
ATOM     11  C   UNL     1      35.953 -24.930 -15.165  0.00  0.00    +0.053 C 
ATOM     12  C   UNL     1      37.381 -25.324 -11.877  0.00  0.00    +0.107 C 
ATOM     13  C   UNL     1      35.922 -22.707 -14.163  0.00  0.00    -0.004 C 
ATOM     14  C   UNL     1      36.501 -23.198 -12.993  0.00  0.00    +0.001 C 
BRANCH  12  15
ATOM     15  N   UNL     1      37.767 -24.891 -10.726  0.00  0.00    -0.135 NA
BRANCH  15  16
ATOM     16  O   UNL     1      36.634 -24.581  -9.969  0.00  0.00    -0.265 OA
ATOM     17  H   UNL     1      35.938 -24.083 -10.350  0.00  0.00    +0.247 HD
ENDBRANCH  15  16
ENDBRANCH  12  15
ENDBRANCH   4   6
BRANCH   1  19
ATOM     18  N   UNL     1      35.481 -19.125 -21.417  0.00  0.00    +0.384 N 
ATOM     19  C   UNL     1      35.146 -21.450 -19.678  0.00  0.00    +0.092 C 
ATOM     20  C   UNL     1      33.948 -20.653 -20.219  0.00  0.00    -0.002 C 
ATOM     21  C   UNL     1      36.402 -20.566 -19.629  0.00  0.00    -0.002 C 
ATOM     22  C   UNL     1      34.297 -19.975 -21.543  0.00  0.00    -0.080 C 
ATOM     23  C   UNL     1      36.649 -19.892 -20.979  0.00  0.00    -0.080 C 
ATOM     24  H   UNL     1      35.291 -18.392 -20.733  0.00  0.00    -0.085 HD
ATOM     25  H   UNL     1      35.687 -18.724 -22.332  0.00  0.00    -0.085 HD
ENDBRANCH   1  19
BRANCH   5  27
ATOM     26  N   UNL     1      30.280 -24.278 -14.772  0.00  0.00    -0.242 NA
ATOM     27  C   UNL     1      32.545 -23.404 -16.147  0.00  0.00    +0.022 C 
ATOM     28  C   UNL     1      31.282 -23.047 -16.596  0.00  0.00    +0.022 C 
ATOM     29  C   UNL     1      32.684 -24.194 -15.014  0.00  0.00    +0.022 C 
ATOM     30  C   UNL     1      30.189 -23.506 -15.879  0.00  0.00    +0.099 C 
ATOM     31  C   UNL     1      31.529 -24.602 -14.368  0.00  0.00    +0.099 C 
ENDBRANCH   5  27
TORSDOF 5
ENDMDL
MODEL 4
REMARK VINA RESULT:      -9.7      3.525      7.656
REMARK  Name = 11653652
REMARK  5 active torsions:
REMARK  status: ('A' for Active; 'I' for Inactive)
REMARK    1  A    between atoms: N_1  and  C_19
REMARK    2  A    between atoms: C_4  and  C_7
REMARK    3  A    between atoms: C_5  and  C_27
REMARK    4  A    between atoms: N_6  and  C_13
REMARK    5  A    between atoms: N_6  and  O_16
REMARK                            x       y       z     vdW  Elec       q    Type
REMARK                         _______ _______ _______ _____ _____    ______ ____
ROOT
ATOM      1  N   UNL     1      36.794 -23.852 -14.964  0.00  0.00    -0.212 N 
ATOM      2  N   UNL     1      35.510 -23.994 -14.593  0.00  0.00    -0.178 NA
ATOM      3  C   UNL     1      36.958 -23.180 -16.140  0.00  0.00    +0.085 C 
ATOM      4  C   UNL     1      35.694 -22.864 -16.565  0.00  0.00    +0.032 C 
ATOM      5  C   UNL     1      34.841 -23.387 -15.578  0.00  0.00    +0.100 C 
ENDROOT
BRANCH   4   6
ATOM      6  C   UNL     1      35.425 -22.145 -17.779  0.00  0.00    -0.015 C 
ATOM      7  C   UNL     1      36.145 -20.679 -19.529  0.00  0.00    -0.016 C 
ATOM      8  C   UNL     1      37.066 -19.792 -20.308  0.00  0.00    -0.002 C 
ATOM      9  C   UNL     1      34.881 -20.783 -20.099  0.00  0.00    +0.016 C 
ATOM     10  C   UNL     1      36.213 -19.317 -21.497  0.00  0.00    +0.021 C 
ATOM     11  C   UNL     1      36.430 -21.363 -18.358  0.00  0.00    +0.053 C 
ATOM     12  C   UNL     1      34.871 -19.972 -21.299  0.00  0.00    +0.107 C 
ATOM     13  C   UNL     1      34.153 -22.236 -18.372  0.00  0.00    -0.004 C 
ATOM     14  C   UNL     1      33.869 -21.547 -19.551  0.00  0.00    +0.001 C 
BRANCH  12  15
ATOM     15  N   UNL     1      33.886 -19.802 -22.111  0.00  0.00    -0.135 NA
BRANCH  15  16
ATOM     16  O   UNL     1      34.363 -19.157 -23.256  0.00  0.00    -0.265 OA
ATOM     17  H   UNL     1      33.972 -19.332 -24.089  0.00  0.00    +0.247 HD
ENDBRANCH  15  16
ENDBRANCH  12  15
ENDBRANCH   4   6
BRANCH   1  19
ATOM     18  N   UNL     1      39.649 -26.525 -13.210  0.00  0.00    +0.384 N 
ATOM     19  C   UNL     1      37.860 -24.400 -14.118  0.00  0.00    +0.092 C 
ATOM     20  C   UNL     1      37.375 -25.552 -13.223  0.00  0.00    -0.002 C 
ATOM     21  C   UNL     1      39.095 -24.829 -14.925  0.00  0.00    -0.002 C 
ATOM     22  C   UNL     1      38.520 -26.106 -12.378  0.00  0.00    -0.080 C 
ATOM     23  C   UNL     1      40.170 -25.413 -14.008  0.00  0.00    -0.080 C 
ATOM     24  H   UNL     1      39.339 -27.266 -13.839  0.00  0.00    -0.085 HD
ATOM     25  H   UNL     1      40.393 -26.855 -12.598  0.00  0.00    -0.085 HD
ENDBRANCH   1  19
BRANCH   5  27
ATOM     26  N   UNL     1      30.616 -23.208 -15.477  0.00  0.00    -0.242 NA
ATOM     27  C   UNL     1      33.402 -23.326 -15.544  0.00  0.00    +0.022 C 
ATOM     28  C   UNL     1      32.753 -22.937 -14.381  0.00  0.00    +0.022 C 
ATOM     29  C   UNL     1      32.668 -23.657 -16.674  0.00  0.00    +0.022 C 
ATOM     30  C   UNL     1      31.368 -22.894 -14.398  0.00  0.00    +0.099 C 
ATOM     31  C   UNL     1      31.287 -23.582 -16.590  0.00  0.00    +0.099 C 
ENDBRANCH   5  27
TORSDOF 5
ENDMDL
MODEL 5
REMARK VINA RESULT:      -9.7      3.017      7.250
REMARK  Name = 11653652
REMARK  5 active torsions:
REMARK  status: ('A' for Active; 'I' for Inactive)
REMARK    1  A    between atoms: N_1  and  C_19
REMARK    2  A    between atoms: C_4  and  C_7
REMARK    3  A    between atoms: C_5  and  C_27
REMARK    4  A    between atoms: N_6  and  C_13
REMARK    5  A    between atoms: N_6  and  O_16
REMARK                            x       y       z     vdW  Elec       q    Type
REMARK                         _______ _______ _______ _____ _____    ______ ____
ROOT
ATOM      1  N   UNL     1      35.216 -24.702 -14.617  0.00  0.00    -0.212 N 
ATOM      2  N   UNL     1      35.509 -24.060 -15.760  0.00  0.00    -0.178 NA
ATOM      3  C   UNL     1      33.901 -24.625 -14.262  0.00  0.00    +0.085 C 
ATOM      4  C   UNL     1      33.296 -23.880 -15.240  0.00  0.00    +0.032 C 
ATOM      5  C   UNL     1      34.329 -23.558 -16.137  0.00  0.00    +0.100 C 
ENDROOT
BRANCH   4   6
ATOM      6  C   UNL     1      31.895 -23.562 -15.241  0.00  0.00    -0.015 C 
ATOM      7  C   UNL     1      29.713 -23.796 -16.194  0.00  0.00    -0.016 C 
ATOM      8  C   UNL     1      28.651 -24.273 -17.136  0.00  0.00    -0.002 C 
ATOM      9  C   UNL     1      29.223 -22.938 -15.216  0.00  0.00    +0.016 C 
ATOM     10  C   UNL     1      27.367 -23.596 -16.629  0.00  0.00    +0.021 C 
ATOM     11  C   UNL     1      31.060 -24.119 -16.215  0.00  0.00    +0.053 C 
ATOM     12  C   UNL     1      27.800 -22.784 -15.437  0.00  0.00    +0.107 C 
ATOM     13  C   UNL     1      31.380 -22.697 -14.260  0.00  0.00    -0.004 C 
ATOM     14  C   UNL     1      30.023 -22.374 -14.240  0.00  0.00    +0.001 C 
BRANCH  12  15
ATOM     15  N   UNL     1      26.981 -22.069 -14.746  0.00  0.00    -0.135 NA
BRANCH  15  16
ATOM     16  O   UNL     1      25.677 -22.445 -15.079  0.00  0.00    -0.265 OA
ATOM     17  H   UNL     1      25.527 -23.223 -15.578  0.00  0.00    +0.247 HD
ENDBRANCH  15  16
ENDBRANCH  12  15
ENDBRANCH   4   6
BRANCH   1  19
ATOM     18  N   UNL     1      39.036 -26.268 -13.466  0.00  0.00    +0.384 N 
ATOM     19  C   UNL     1      36.276 -25.400 -13.883  0.00  0.00    +0.092 C 
ATOM     20  C   UNL     1      36.906 -26.544 -14.694  0.00  0.00    -0.002 C 
ATOM     21  C   UNL     1      37.364 -24.447 -13.363  0.00  0.00    -0.002 C 
ATOM     22  C   UNL     1      38.020 -27.227 -13.902  0.00  0.00    -0.080 C 
ATOM     23  C   UNL     1      38.458 -25.218 -12.625  0.00  0.00    -0.080 C 
ATOM     24  H   UNL     1      39.459 -25.838 -14.289  0.00  0.00    -0.085 HD
ATOM     25  H   UNL     1      39.734 -26.769 -12.918  0.00  0.00    -0.085 HD
ENDBRANCH   1  19
BRANCH   5  27
ATOM     26  N   UNL     1      34.028 -21.283 -19.691  0.00  0.00    -0.242 NA
ATOM     27  C   UNL     1      34.227 -22.783 -17.347  0.00  0.00    +0.022 C 
ATOM     28  C   UNL     1      35.375 -22.303 -17.962  0.00  0.00    +0.022 C 
ATOM     29  C   UNL     1      32.980 -22.517 -17.896  0.00  0.00    +0.022 C 
ATOM     30  C   UNL     1      35.223 -21.564 -19.124  0.00  0.00    +0.099 C 
ATOM     31  C   UNL     1      32.935 -21.768 -19.060  0.00  0.00    +0.099 C 
ENDBRANCH   5  27
TORSDOF 5
ENDMDL
MODEL 6
REMARK VINA RESULT:      -9.7      3.301      7.318
REMARK  Name = 11653652
REMARK  5 active torsions:
REMARK  status: ('A' for Active; 'I' for Inactive)
REMARK    1  A    between atoms: N_1  and  C_19
REMARK    2  A    between atoms: C_4  and  C_7
REMARK    3  A    between atoms: C_5  and  C_27
REMARK    4  A    between atoms: N_6  and  C_13
REMARK    5  A    between atoms: N_6  and  O_16
REMARK                            x       y       z     vdW  Elec       q    Type
REMARK                         _______ _______ _______ _____ _____    ______ ____
ROOT
ATOM      1  N   UNL     1      35.203 -24.781 -14.641  0.00  0.00    -0.212 N 
ATOM      2  N   UNL     1      33.903 -24.668 -14.318  0.00  0.00    -0.178 NA
ATOM      3  C   UNL     1      35.550 -24.109 -15.776  0.00  0.00    +0.085 C 
ATOM      4  C   UNL     1      34.397 -23.519 -16.224  0.00  0.00    +0.032 C 
ATOM      5  C   UNL     1      33.415 -23.895 -15.292  0.00  0.00    +0.100 C 
ENDROOT
BRANCH   4   6
ATOM      6  C   UNL     1      34.332 -22.709 -17.409  0.00  0.00    -0.015 C 
ATOM      7  C   UNL     1      35.417 -21.388 -19.084  0.00  0.00    -0.016 C 
ATOM      8  C   UNL     1      36.538 -20.714 -19.813  0.00  0.00    -0.002 C 
ATOM      9  C   UNL     1      34.177 -21.167 -19.674  0.00  0.00    +0.016 C 
ATOM     10  C   UNL     1      35.848 -20.004 -20.990  0.00  0.00    +0.021 C 
ATOM     11  C   UNL     1      35.506 -22.166 -17.941  0.00  0.00    +0.053 C 
ATOM     12  C   UNL     1      34.386 -20.330 -20.837  0.00  0.00    +0.107 C 
ATOM     13  C   UNL     1      33.089 -22.473 -18.021  0.00  0.00    -0.004 C 
ATOM     14  C   UNL     1      33.001 -21.691 -19.172  0.00  0.00    +0.001 C 
BRANCH  12  15
ATOM     15  N   UNL     1      33.487 -19.899 -21.653  0.00  0.00    -0.135 NA
BRANCH  15  16
ATOM     16  O   UNL     1      34.124 -19.425 -22.802  0.00  0.00    -0.265 OA
ATOM     17  H   UNL     1      33.763 -18.700 -23.273  0.00  0.00    +0.247 HD
ENDBRANCH  15  16
ENDBRANCH  12  15
ENDBRANCH   4   6
BRANCH   1  19
ATOM     18  N   UNL     1      38.719 -26.367 -12.773  0.00  0.00    +0.384 N 
ATOM     19  C   UNL     1      36.097 -25.574 -13.790  0.00  0.00    +0.092 C 
ATOM     20  C   UNL     1      37.055 -26.461 -14.600  0.00  0.00    -0.002 C 
ATOM     21  C   UNL     1      36.880 -24.711 -12.788  0.00  0.00    -0.002 C 
ATOM     22  C   UNL     1      37.981 -27.250 -13.676  0.00  0.00    -0.080 C 
ATOM     23  C   UNL     1      37.814 -25.574 -11.938  0.00  0.00    -0.080 C 
ATOM     24  H   UNL     1      39.298 -25.734 -13.327  0.00  0.00    -0.085 HD
ATOM     25  H   UNL     1      39.295 -26.943 -12.160  0.00  0.00    -0.085 HD
ENDBRANCH   1  19
BRANCH   5  27
ATOM     26  N   UNL     1      29.317 -22.844 -15.316  0.00  0.00    -0.242 NA
ATOM     27  C   UNL     1      32.019 -23.537 -15.300  0.00  0.00    +0.022 C 
ATOM     28  C   UNL     1      31.209 -23.935 -16.354  0.00  0.00    +0.022 C 
ATOM     29  C   UNL     1      31.488 -22.795 -14.254  0.00  0.00    +0.022 C 
ATOM     30  C   UNL     1      29.874 -23.566 -16.315  0.00  0.00    +0.099 C 
ATOM     31  C   UNL     1      30.141 -22.477 -14.309  0.00  0.00    +0.099 C 
ENDBRANCH   5  27
TORSDOF 5
ENDMDL
MODEL 7
REMARK VINA RESULT:      -9.6      2.931      7.099
REMARK  Name = 11653652
REMARK  5 active torsions:
REMARK  status: ('A' for Active; 'I' for Inactive)
REMARK    1  A    between atoms: N_1  and  C_19
REMARK    2  A    between atoms: C_4  and  C_7
REMARK    3  A    between atoms: C_5  and  C_27
REMARK    4  A    between atoms: N_6  and  C_13
REMARK    5  A    between atoms: N_6  and  O_16
REMARK                            x       y       z     vdW  Elec       q    Type
REMARK                         _______ _______ _______ _____ _____    ______ ____
ROOT
ATOM      1  N   UNL     1      36.381 -24.061 -14.889  0.00  0.00    -0.212 N 
ATOM      2  N   UNL     1      36.536 -23.399 -16.048  0.00  0.00    -0.178 NA
ATOM      3  C   UNL     1      35.078 -24.297 -14.558  0.00  0.00    +0.085 C 
ATOM      4  C   UNL     1      34.334 -23.749 -15.570  0.00  0.00    +0.032 C 
ATOM      5  C   UNL     1      35.279 -23.211 -16.460  0.00  0.00    +0.100 C 
ENDROOT
BRANCH   4   6
ATOM      6  C   UNL     1      32.898 -23.783 -15.603  0.00  0.00    -0.015 C 
ATOM      7  C   UNL     1      30.828 -24.780 -14.935  0.00  0.00    -0.016 C 
ATOM      8  C   UNL     1      29.904 -25.738 -14.249  0.00  0.00    -0.002 C 
ATOM      9  C   UNL     1      30.156 -23.823 -15.686  0.00  0.00    +0.016 C 
ATOM     10  C   UNL     1      28.500 -25.267 -14.663  0.00  0.00    +0.021 C 
ATOM     11  C   UNL     1      32.213 -24.768 -14.885  0.00  0.00    +0.053 C 
ATOM     12  C   UNL     1      28.736 -24.076 -15.554  0.00  0.00    +0.107 C 
ATOM     13  C   UNL     1      32.199 -22.825 -16.358  0.00  0.00    -0.004 C 
ATOM     14  C   UNL     1      30.806 -22.838 -16.405  0.00  0.00    +0.001 C 
BRANCH  12  15
ATOM     15  N   UNL     1      27.776 -23.412 -16.098  0.00  0.00    -0.135 NA
BRANCH  15  16
ATOM     16  O   UNL     1      27.422 -24.044 -17.293  0.00  0.00    -0.265 OA
ATOM     17  H   UNL     1      26.576 -24.438 -17.381  0.00  0.00    +0.247 HD
ENDBRANCH  15  16
ENDBRANCH  12  15
ENDBRANCH   4   6
BRANCH   1  19
ATOM     18  N   UNL     1      39.552 -26.385 -13.181  0.00  0.00    +0.384 N 
ATOM     19  C   UNL     1      37.562 -24.459 -14.115  0.00  0.00    +0.092 C 
ATOM     20  C   UNL     1      37.242 -25.512 -13.042  0.00  0.00    -0.002 C 
ATOM     21  C   UNL     1      38.721 -24.934 -15.005  0.00  0.00    -0.002 C 
ATOM     22  C   UNL     1      38.502 -25.913 -12.277  0.00  0.00    -0.080 C 
ATOM     23  C   UNL     1      39.921 -25.358 -14.158  0.00  0.00    -0.080 C 
ATOM     24  H   UNL     1      39.215 -27.209 -13.678  0.00  0.00    -0.085 HD
ATOM     25  H   UNL     1      40.376 -26.608 -12.625  0.00  0.00    -0.085 HD
ENDBRANCH   1  19
BRANCH   5  27
ATOM     26  N   UNL     1      34.519 -21.180 -20.093  0.00  0.00    -0.242 NA
ATOM     27  C   UNL     1      35.020 -22.519 -17.697  0.00  0.00    +0.022 C 
ATOM     28  C   UNL     1      33.757 -22.570 -18.268  0.00  0.00    +0.022 C 
ATOM     29  C   UNL     1      36.036 -21.803 -18.316  0.00  0.00    +0.022 C 
ATOM     30  C   UNL     1      33.558 -21.889 -19.458  0.00  0.00    +0.099 C 
ATOM     31  C   UNL     1      35.735 -21.155 -19.503  0.00  0.00    +0.099 C 
ENDBRANCH   5  27
TORSDOF 5
ENDMDL
MODEL 8
REMARK VINA RESULT:      -9.5      2.302      5.243
REMARK  Name = 11653652
REMARK  5 active torsions:
REMARK  status: ('A' for Active; 'I' for Inactive)
REMARK    1  A    between atoms: N_1  and  C_19
REMARK    2  A    between atoms: C_4  and  C_7
REMARK    3  A    between atoms: C_5  and  C_27
REMARK    4  A    between atoms: N_6  and  C_13
REMARK    5  A    between atoms: N_6  and  O_16
REMARK                            x       y       z     vdW  Elec       q    Type
REMARK                         _______ _______ _______ _____ _____    ______ ____
ROOT
ATOM      1  N   UNL     1      35.500 -21.644 -18.809  0.00  0.00    -0.212 N 
ATOM      2  N   UNL     1      36.454 -21.904 -17.899  0.00  0.00    -0.178 NA
ATOM      3  C   UNL     1      34.259 -22.081 -18.448  0.00  0.00    +0.085 C 
ATOM      4  C   UNL     1      34.415 -22.666 -17.219  0.00  0.00    +0.032 C 
ATOM      5  C   UNL     1      35.783 -22.530 -16.928  0.00  0.00    +0.100 C 
ENDROOT
BRANCH   4   6
ATOM      6  C   UNL     1      33.334 -23.258 -16.481  0.00  0.00    -0.015 C 
ATOM      7  C   UNL     1      30.991 -23.464 -16.036  0.00  0.00    -0.016 C 
ATOM      8  C   UNL     1      29.523 -23.206 -16.170  0.00  0.00    -0.002 C 
ATOM      9  C   UNL     1      31.288 -24.405 -15.056  0.00  0.00    +0.016 C 
ATOM     10  C   UNL     1      28.881 -24.129 -15.120  0.00  0.00    +0.021 C 
ATOM     11  C   UNL     1      32.017 -22.880 -16.762  0.00  0.00    +0.053 C 
ATOM     12  C   UNL     1      30.038 -24.840 -14.469  0.00  0.00    +0.107 C 
ATOM     13  C   UNL     1      33.613 -24.211 -15.486  0.00  0.00    -0.004 C 
ATOM     14  C   UNL     1      32.579 -24.799 -14.758  0.00  0.00    +0.001 C 
BRANCH  12  15
ATOM     15  N   UNL     1      29.883 -25.705 -13.527  0.00  0.00    -0.135 NA
BRANCH  15  16
ATOM     16  O   UNL     1      30.423 -25.177 -12.351  0.00  0.00    -0.265 OA
ATOM     17  H   UNL     1      30.154 -25.516 -11.519  0.00  0.00    +0.247 HD
ENDBRANCH  15  16
ENDBRANCH  12  15
ENDBRANCH   4   6
BRANCH   1  19
ATOM     18  N   UNL     1      36.103 -18.575 -21.739  0.00  0.00    +0.384 N 
ATOM     19  C   UNL     1      35.851 -20.947 -20.051  0.00  0.00    +0.092 C 
ATOM     20  C   UNL     1      34.636 -20.290 -20.726  0.00  0.00    -0.002 C 
ATOM     21  C   UNL     1      36.979 -19.922 -19.857  0.00  0.00    -0.002 C 
ATOM     22  C   UNL     1      35.051 -19.557 -22.001  0.00  0.00    -0.080 C 
ATOM     23  C   UNL     1      37.296 -19.205 -21.169  0.00  0.00    -0.080 C 
ATOM     24  H   UNL     1      35.751 -17.879 -21.081  0.00  0.00    -0.085 HD
ATOM     25  H   UNL     1      36.363 -18.140 -22.623  0.00  0.00    -0.085 HD
ENDBRANCH   1  19
BRANCH   5  27
ATOM     26  N   UNL     1      37.814 -23.853 -13.460  0.00  0.00    -0.242 NA
ATOM     27  C   UNL     1      36.475 -22.981 -15.746  0.00  0.00    +0.022 C 
ATOM     28  C   UNL     1      37.739 -23.541 -15.856  0.00  0.00    +0.022 C 
ATOM     29  C   UNL     1      35.874 -22.853 -14.501  0.00  0.00    +0.022 C 
ATOM     30  C   UNL     1      38.363 -23.959 -14.691  0.00  0.00    +0.099 C 
ATOM     31  C   UNL     1      36.581 -23.302 -13.397  0.00  0.00    +0.099 C 
ENDBRANCH   5  27
TORSDOF 5
ENDMDL
MODEL 9
REMARK VINA RESULT:      -9.0      3.286      7.839
REMARK  Name = 11653652
REMARK  5 active torsions:
REMARK  status: ('A' for Active; 'I' for Inactive)
REMARK    1  A    between atoms: N_1  and  C_19
REMARK    2  A    between atoms: C_4  and  C_7
REMARK    3  A    between atoms: C_5  and  C_27
REMARK    4  A    between atoms: N_6  and  C_13
REMARK    5  A    between atoms: N_6  and  O_16
REMARK                            x       y       z     vdW  Elec       q    Type
REMARK                         _______ _______ _______ _____ _____    ______ ____
ROOT
ATOM      1  N   UNL     1      32.166 -24.082 -16.162  0.00  0.00    -0.212 N 
ATOM      2  N   UNL     1      33.190 -24.420 -15.362  0.00  0.00    -0.178 NA
ATOM      3  C   UNL     1      32.517 -23.260 -17.193  0.00  0.00    +0.085 C 
ATOM      4  C   UNL     1      33.864 -23.048 -17.054  0.00  0.00    +0.032 C 
ATOM      5  C   UNL     1      34.228 -23.784 -15.913  0.00  0.00    +0.100 C 
ENDROOT
BRANCH   4   6
ATOM      6  C   UNL     1      34.632 -22.228 -17.949  0.00  0.00    -0.015 C 
ATOM      7  C   UNL     1      34.765 -20.828 -19.885  0.00  0.00    -0.016 C 
ATOM      8  C   UNL     1      34.298 -20.085 -21.098  0.00  0.00    -0.002 C 
ATOM      9  C   UNL     1      36.125 -20.667 -19.642  0.00  0.00    +0.016 C 
ATOM     10  C   UNL     1      35.567 -19.399 -21.631  0.00  0.00    +0.021 C 
ATOM     11  C   UNL     1      34.003 -21.612 -19.035  0.00  0.00    +0.053 C 
ATOM     12  C   UNL     1      36.659 -19.807 -20.677  0.00  0.00    +0.107 C 
ATOM     13  C   UNL     1      36.009 -22.054 -17.722  0.00  0.00    -0.004 C 
ATOM     14  C   UNL     1      36.775 -21.262 -18.577  0.00  0.00    +0.001 C 
BRANCH  12  15
ATOM     15  N   UNL     1      37.880 -19.418 -20.808  0.00  0.00    -0.135 NA
BRANCH  15  16
ATOM     16  O   UNL     1      37.983 -18.675 -21.987  0.00  0.00    -0.265 OA
ATOM     17  H   UNL     1      38.455 -19.020 -22.719  0.00  0.00    +0.247 HD
ENDBRANCH  15  16
ENDBRANCH  12  15
ENDBRANCH   4   6
BRANCH   1  19
ATOM     18  N   UNL     1      28.299 -24.659 -14.405  0.00  0.00    +0.384 N 
ATOM     19  C   UNL     1      30.822 -24.597 -15.879  0.00  0.00    +0.092 C 
ATOM     20  C   UNL     1      30.707 -25.220 -14.478  0.00  0.00    -0.002 C 
ATOM     21  C   UNL     1      29.725 -23.542 -16.090  0.00  0.00    -0.002 C 
ATOM     22  C   UNL     1      29.288 -25.722 -14.219  0.00  0.00    -0.080 C 
ATOM     23  C   UNL     1      28.346 -24.114 -15.764  0.00  0.00    -0.080 C 
ATOM     24  H   UNL     1      28.490 -23.909 -13.741  0.00  0.00    -0.085 HD
ATOM     25  H   UNL     1      27.372 -25.054 -14.252  0.00  0.00    -0.085 HD
ENDBRANCH   1  19
BRANCH   5  27
ATOM     26  N   UNL     1      38.081 -24.125 -14.198  0.00  0.00    -0.242 NA
ATOM     27  C   UNL     1      35.540 -23.900 -15.329  0.00  0.00    +0.022 C 
ATOM     28  C   UNL     1      36.108 -25.152 -15.145  0.00  0.00    +0.022 C 
ATOM     29  C   UNL     1      36.234 -22.758 -14.952  0.00  0.00    +0.022 C 
ATOM     30  C   UNL     1      37.371 -25.211 -14.579  0.00  0.00    +0.099 C 
ATOM     31  C   UNL     1      37.492 -22.924 -14.395  0.00  0.00    +0.099 C 
ENDBRANCH   5  27
TORSDOF 5
ENDMDL
