MODEL 1
REMARK VINA RESULT:     -11.6      0.000      0.000
REMARK  Name = 491941
REMARK  5 active torsions:
REMARK  status: ('A' for Active; 'I' for Inactive)
REMARK    1  A    between atoms: C_5  and  C_17
REMARK    2  A    between atoms: C_7  and  S_11
REMARK    3  A    between atoms: S_11  and  N_14
REMARK    4  A    between atoms: C_17  and  C_18
REMARK    5  A    between atoms: C_21  and  C_25
REMARK                            x       y       z     vdW  Elec       q    Type
REMARK                         _______ _______ _______ _____ _____    ______ ____
ROOT
ATOM      1  S   UNL     1      34.553 -24.811 -13.451  0.00  0.00    -0.035 S 
ATOM      2  O   UNL     1      35.800 -22.828 -17.178  0.00  0.00    -0.274 OA
ATOM      3  N   UNL     1      34.112 -23.531 -15.696  0.00  0.00    -0.227 N 
ATOM      4  N   UNL     1      36.048 -22.925 -14.396  0.00  0.00    -0.386 NA
ATOM      5  C   UNL     1      34.622 -23.118 -16.952  0.00  0.00    +0.236 C 
ATOM      6  C   UNL     1      34.997 -23.633 -14.581  0.00  0.00    +0.217 C 
ATOM      7  C   UNL     1      35.939 -24.357 -12.550  0.00  0.00    +0.247 C 
ATOM      8  C   UNL     1      36.607 -23.344 -13.205  0.00  0.00    +0.123 C 
ATOM      9  C   UNL     1      32.688 -23.858 -15.517  0.00  0.00    +0.123 C 
ATOM     10  C   UNL     1      37.845 -22.685 -12.744  0.00  0.00    +0.064 C 
ENDROOT
BRANCH   7  11
ATOM     11  S   UNL     1      36.190 -25.239 -11.056  0.00  0.00    +0.052 S 
ATOM     12  O   UNL     1      37.185 -24.483 -10.301  0.00  0.00    -0.157 OA
ATOM     13  O   UNL     1      34.856 -25.456 -10.509  0.00  0.00    -0.157 OA
BRANCH  11  14
ATOM     14  N   UNL     1      36.875 -26.773 -11.426  0.00  0.00    -0.206 NA
ATOM     15  H   UNL     1      36.134 -27.471 -11.482  0.00  0.00    +0.144 HD
ATOM     16  H   UNL     1      37.536 -27.035 -10.694  0.00  0.00    +0.144 HD
ENDBRANCH  11  14
ENDBRANCH   7  11
BRANCH   5  17
ATOM     17  C   UNL     1      33.617 -23.076 -18.110  0.00  0.00    +0.112 C 
BRANCH  17  18
ATOM     18  C   UNL     1      33.869 -21.985 -19.093  0.00  0.00    -0.013 C 
ATOM     19  C   UNL     1      35.177 -21.663 -19.459  0.00  0.00    -0.004 C 
ATOM     20  C   UNL     1      32.797 -21.285 -19.649  0.00  0.00    -0.004 C 
ATOM     21  C   UNL     1      34.341 -19.943 -20.934  0.00  0.00    +0.018 C 
ATOM     22  C   UNL     1      35.413 -20.642 -20.379  0.00  0.00    +0.001 C 
ATOM     23  C   UNL     1      33.034 -20.264 -20.570  0.00  0.00    +0.001 C 
BRANCH  21  25
ATOM     24  N   UNL     1      35.068 -17.740 -21.358  0.00  0.00    -0.244 NA
ATOM     25  C   UNL     1      34.586 -18.883 -21.889  0.00  0.00    +0.081 C 
ATOM     26  C   UNL     1      34.331 -19.071 -23.237  0.00  0.00    +0.019 C 
ATOM     27  C   UNL     1      34.589 -18.010 -24.099  0.00  0.00    +0.003 C 
ATOM     28  C   UNL     1      35.307 -16.731 -22.227  0.00  0.00    +0.099 C 
ATOM     29  C   UNL     1      35.087 -16.815 -23.592  0.00  0.00    +0.021 C 
ENDBRANCH  21  25
ENDBRANCH  17  18
ENDBRANCH   5  17
TORSDOF 5
ENDMDL
MODEL 2
REMARK VINA RESULT:     -10.6      2.412      3.444
REMARK  Name = 491941
REMARK  5 active torsions:
REMARK  status: ('A' for Active; 'I' for Inactive)
REMARK    1  A    between atoms: C_5  and  C_17
REMARK    2  A    between atoms: C_7  and  S_11
REMARK    3  A    between atoms: S_11  and  N_14
REMARK    4  A    between atoms: C_17  and  C_18
REMARK    5  A    between atoms: C_21  and  C_25
REMARK                            x       y       z     vdW  Elec       q    Type
REMARK                         _______ _______ _______ _____ _____    ______ ____
ROOT
ATOM      1  S   UNL     1      34.897 -23.159 -14.620  0.00  0.00    -0.035 S 
ATOM      2  O   UNL     1      34.064 -21.917 -18.760  0.00  0.00    -0.274 OA
ATOM      3  N   UNL     1      35.556 -22.696 -17.115  0.00  0.00    -0.227 N 
ATOM      4  N   UNL     1      33.382 -23.632 -16.662  0.00  0.00    -0.386 NA
ATOM      5  C   UNL     1      35.214 -22.075 -18.342  0.00  0.00    +0.236 C 
ATOM      6  C   UNL     1      34.518 -23.190 -16.268  0.00  0.00    +0.217 C 
ATOM      7  C   UNL     1      33.343 -23.824 -14.330  0.00  0.00    +0.247 C 
ATOM      8  C   UNL     1      32.686 -24.006 -15.529  0.00  0.00    +0.123 C 
ATOM      9  C   UNL     1      36.959 -22.843 -16.694  0.00  0.00    +0.123 C 
ATOM     10  C   UNL     1      31.326 -24.558 -15.695  0.00  0.00    +0.064 C 
ENDROOT
BRANCH   7  11
ATOM     11  S   UNL     1      32.949 -24.117 -12.648  0.00  0.00    +0.052 S 
ATOM     12  O   UNL     1      32.146 -25.336 -12.626  0.00  0.00    -0.157 OA
ATOM     13  O   UNL     1      34.223 -24.059 -11.940  0.00  0.00    -0.157 OA
BRANCH  11  14
ATOM     14  N   UNL     1      31.958 -22.832 -12.078  0.00  0.00    -0.206 NA
ATOM     15  H   UNL     1      32.516 -21.982 -12.000  0.00  0.00    +0.144 HD
ATOM     16  H   UNL     1      31.578 -23.076 -11.163  0.00  0.00    +0.144 HD
ENDBRANCH  11  14
ENDBRANCH   7  11
BRANCH   5  17
ATOM     17  C   UNL     1      36.383 -21.532 -19.174  0.00  0.00    +0.112 C 
BRANCH  17  18
ATOM     18  C   UNL     1      36.002 -20.445 -20.119  0.00  0.00    -0.013 C 
ATOM     19  C   UNL     1      34.706 -20.389 -20.634  0.00  0.00    -0.004 C 
ATOM     20  C   UNL     1      36.941 -19.482 -20.489  0.00  0.00    -0.004 C 
ATOM     21  C   UNL     1      35.289 -18.409 -21.889  0.00  0.00    +0.018 C 
ATOM     22  C   UNL     1      34.350 -19.371 -21.518  0.00  0.00    +0.001 C 
ATOM     23  C   UNL     1      36.585 -18.464 -21.374  0.00  0.00    +0.001 C 
BRANCH  21  25
ATOM     24  N   UNL     1      35.003 -16.105 -22.298  0.00  0.00    -0.244 NA
ATOM     25  C   UNL     1      34.920 -17.353 -22.806  0.00  0.00    +0.081 C 
ATOM     26  C   UNL     1      34.520 -17.644 -24.099  0.00  0.00    +0.019 C 
ATOM     27  C   UNL     1      34.180 -16.580 -24.927  0.00  0.00    +0.003 C 
ATOM     28  C   UNL     1      34.664 -15.096 -23.132  0.00  0.00    +0.099 C 
ATOM     29  C   UNL     1      34.251 -15.278 -24.442  0.00  0.00    +0.021 C 
ENDBRANCH  21  25
ENDBRANCH  17  18
ENDBRANCH   5  17
TORSDOF 5
ENDMDL
MODEL 3
REMARK VINA RESULT:     -10.4      2.879      4.519
REMARK  Name = 491941
REMARK  5 active torsions:
REMARK  status: ('A' for Active; 'I' for Inactive)
REMARK    1  A    between atoms: C_5  and  C_17
REMARK    2  A    between atoms: C_7  and  S_11
REMARK    3  A    between atoms: S_11  and  N_14
REMARK    4  A    between atoms: C_17  and  C_18
REMARK    5  A    between atoms: C_21  and  C_25
REMARK                            x       y       z     vdW  Elec       q    Type
REMARK                         _______ _______ _______ _____ _____    ______ ____
ROOT
ATOM      1  S   UNL     1      35.315 -22.812 -16.478  0.00  0.00    -0.035 S 
ATOM      2  O   UNL     1      33.773 -20.581 -19.945  0.00  0.00    -0.274 OA
ATOM      3  N   UNL     1      35.428 -21.919 -18.940  0.00  0.00    -0.227 N 
ATOM      4  N   UNL     1      33.286 -22.591 -18.065  0.00  0.00    -0.386 NA
ATOM      5  C   UNL     1      34.933 -21.000 -19.897  0.00  0.00    +0.236 C 
ATOM      6  C   UNL     1      34.549 -22.424 -17.935  0.00  0.00    +0.217 C 
ATOM      7  C   UNL     1      33.777 -23.282 -15.884  0.00  0.00    +0.247 C 
ATOM      8  C   UNL     1      32.825 -23.095 -16.865  0.00  0.00    +0.123 C 
ATOM      9  C   UNL     1      36.831 -22.365 -18.958  0.00  0.00    +0.123 C 
ATOM     10  C   UNL     1      31.382 -23.385 -16.737  0.00  0.00    +0.064 C 
ENDROOT
BRANCH   7  11
ATOM     11  S   UNL     1      33.752 -23.874 -14.235  0.00  0.00    +0.052 S 
ATOM     12  O   UNL     1      33.389 -25.286 -14.316  0.00  0.00    -0.157 OA
ATOM     13  O   UNL     1      35.032 -23.472 -13.663  0.00  0.00    -0.157 OA
BRANCH  11  14
ATOM     14  N   UNL     1      32.501 -23.066 -13.374  0.00  0.00    -0.206 NA
ATOM     15  H   UNL     1      32.898 -22.590 -12.565  0.00  0.00    +0.144 HD
ATOM     16  H   UNL     1      31.808 -23.747 -13.063  0.00  0.00    +0.144 HD
ENDBRANCH  11  14
ENDBRANCH   7  11
BRANCH   5  17
ATOM     17  C   UNL     1      35.950 -20.471 -20.916  0.00  0.00    +0.112 C 
BRANCH  17  18
ATOM     18  C   UNL     1      35.505 -19.247 -21.640  0.00  0.00    -0.013 C 
ATOM     19  C   UNL     1      35.606 -17.997 -21.027  0.00  0.00    -0.004 C 
ATOM     20  C   UNL     1      34.987 -19.350 -22.932  0.00  0.00    -0.004 C 
ATOM     21  C   UNL     1      34.670 -16.955 -22.995  0.00  0.00    +0.018 C 
ATOM     22  C   UNL     1      35.189 -16.852 -21.704  0.00  0.00    +0.001 C 
ATOM     23  C   UNL     1      34.569 -18.203 -23.609  0.00  0.00    +0.001 C 
BRANCH  21  25
ATOM     24  N   UNL     1      33.896 -15.964 -24.990  0.00  0.00    -0.244 NA
ATOM     25  C   UNL     1      34.238 -15.767 -23.698  0.00  0.00    +0.081 C 
ATOM     26  C   UNL     1      34.192 -14.541 -23.058  0.00  0.00    +0.019 C 
ATOM     27  C   UNL     1      33.766 -13.441 -23.795  0.00  0.00    +0.003 C 
ATOM     28  C   UNL     1      33.487 -14.872 -25.674  0.00  0.00    +0.099 C 
ATOM     29  C   UNL     1      33.404 -13.601 -25.129  0.00  0.00    +0.021 C 
ENDBRANCH  21  25
ENDBRANCH  17  18
ENDBRANCH   5  17
TORSDOF 5
ENDMDL
MODEL 4
REMARK VINA RESULT:     -10.3      3.132      5.437
REMARK  Name = 491941
REMARK  5 active torsions:
REMARK  status: ('A' for Active; 'I' for Inactive)
REMARK    1  A    between atoms: C_5  and  C_17
REMARK    2  A    between atoms: C_7  and  S_11
REMARK    3  A    between atoms: S_11  and  N_14
REMARK    4  A    between atoms: C_17  and  C_18
REMARK    5  A    between atoms: C_21  and  C_25
REMARK                            x       y       z     vdW  Elec       q    Type
REMARK                         _______ _______ _______ _____ _____    ______ ____
ROOT
ATOM      1  S   UNL     1      36.383 -21.944 -17.539  0.00  0.00    -0.035 S 
ATOM      2  O   UNL     1      33.905 -19.910 -20.556  0.00  0.00    -0.274 OA
ATOM      3  N   UNL     1      35.951 -20.864 -19.889  0.00  0.00    -0.227 N 
ATOM      4  N   UNL     1      34.167 -22.116 -18.860  0.00  0.00    -0.386 NA
ATOM      5  C   UNL     1      35.128 -20.027 -20.682  0.00  0.00    +0.236 C 
ATOM      6  C   UNL     1      35.359 -21.649 -18.853  0.00  0.00    +0.217 C 
ATOM      7  C   UNL     1      35.094 -22.827 -16.834  0.00  0.00    +0.247 C 
ATOM      8  C   UNL     1      34.003 -22.809 -17.678  0.00  0.00    +0.123 C 
ATOM      9  C   UNL     1      37.404 -20.943 -20.110  0.00  0.00    +0.123 C 
ATOM     10  C   UNL     1      32.702 -23.460 -17.423  0.00  0.00    +0.064 C 
ENDROOT
BRANCH   7  11
ATOM     11  S   UNL     1      35.431 -23.532 -15.265  0.00  0.00    +0.052 S 
ATOM     12  O   UNL     1      35.392 -24.979 -15.453  0.00  0.00    -0.157 OA
ATOM     13  O   UNL     1      36.652 -22.880 -14.805  0.00  0.00    -0.157 OA
BRANCH  11  14
ATOM     14  N   UNL     1      34.160 -23.114 -14.184  0.00  0.00    -0.206 NA
ATOM     15  H   UNL     1      33.977 -23.896 -13.556  0.00  0.00    +0.144 HD
ATOM     16  H   UNL     1      33.316 -22.902 -14.718  0.00  0.00    +0.144 HD
ENDBRANCH  11  14
ENDBRANCH   7  11
BRANCH   5  17
ATOM     17  C   UNL     1      35.844 -19.184 -21.744  0.00  0.00    +0.112 C 
BRANCH  17  18
ATOM     18  C   UNL     1      35.280 -17.816 -21.916  0.00  0.00    -0.013 C 
ATOM     19  C   UNL     1      34.945 -17.353 -23.190  0.00  0.00    -0.004 C 
ATOM     20  C   UNL     1      35.085 -16.996 -20.804  0.00  0.00    -0.004 C 
ATOM     21  C   UNL     1      34.223 -15.254 -22.239  0.00  0.00    +0.018 C 
ATOM     22  C   UNL     1      34.417 -16.073 -23.351  0.00  0.00    +0.001 C 
ATOM     23  C   UNL     1      34.556 -15.715 -20.965  0.00  0.00    +0.001 C 
BRANCH  21  25
ATOM     24  N   UNL     1      34.261 -13.186 -23.371  0.00  0.00    -0.244 NA
ATOM     25  C   UNL     1      33.675 -13.925 -22.405  0.00  0.00    +0.081 C 
ATOM     26  C   UNL     1      32.628 -13.486 -21.614  0.00  0.00    +0.019 C 
ATOM     27  C   UNL     1      32.150 -12.197 -21.828  0.00  0.00    +0.003 C 
ATOM     28  C   UNL     1      33.770 -11.938 -23.550  0.00  0.00    +0.099 C 
ATOM     29  C   UNL     1      32.726 -11.402 -22.813  0.00  0.00    +0.021 C 
ENDBRANCH  21  25
ENDBRANCH  17  18
ENDBRANCH   5  17
TORSDOF 5
ENDMDL
MODEL 5
REMARK VINA RESULT:     -10.2      8.782     13.387
REMARK  Name = 491941
REMARK  5 active torsions:
REMARK  status: ('A' for Active; 'I' for Inactive)
REMARK    1  A    between atoms: C_5  and  C_17
REMARK    2  A    between atoms: C_7  and  S_11
REMARK    3  A    between atoms: S_11  and  N_14
REMARK    4  A    between atoms: C_17  and  C_18
REMARK    5  A    between atoms: C_21  and  C_25
REMARK                            x       y       z     vdW  Elec       q    Type
REMARK                         _______ _______ _______ _____ _____    ______ ____
ROOT
ATOM      1  S   UNL     1      33.056  -9.083 -23.199  0.00  0.00    -0.035 S 
ATOM      2  O   UNL     1      32.052 -13.310 -22.492  0.00  0.00    -0.274 OA
ATOM      3  N   UNL     1      33.539 -11.658 -23.268  0.00  0.00    -0.227 N 
ATOM      4  N   UNL     1      32.352 -10.769 -21.369  0.00  0.00    -0.386 NA
ATOM      5  C   UNL     1      33.013 -12.971 -23.189  0.00  0.00    +0.236 C 
ATOM      6  C   UNL     1      32.939 -10.617 -22.497  0.00  0.00    +0.217 C 
ATOM      7  C   UNL     1      32.209  -8.481 -21.836  0.00  0.00    +0.247 C 
ATOM      8  C   UNL     1      31.921  -9.518 -20.974  0.00  0.00    +0.123 C 
ATOM      9  C   UNL     1      34.692 -11.344 -24.129  0.00  0.00    +0.123 C 
ATOM     10  C   UNL     1      31.202  -9.400 -19.689  0.00  0.00    +0.064 C 
ENDROOT
BRANCH   7  11
ATOM     11  S   UNL     1      31.912  -6.753 -21.833  0.00  0.00    +0.052 S 
ATOM     12  O   UNL     1      30.482  -6.587 -22.075  0.00  0.00    -0.157 OA
ATOM     13  O   UNL     1      32.515  -6.261 -20.600  0.00  0.00    -0.157 OA
BRANCH  11  14
ATOM     14  N   UNL     1      32.747  -6.045 -23.160  0.00  0.00    -0.206 NA
ATOM     15  H   UNL     1      32.958  -5.071 -22.947  0.00  0.00    +0.144 HD
ATOM     16  H   UNL     1      32.162  -6.093 -23.994  0.00  0.00    +0.144 HD
ENDBRANCH  11  14
ENDBRANCH   7  11
BRANCH   5  17
ATOM     17  C   UNL     1      33.685 -14.024 -24.080  0.00  0.00    +0.112 C 
BRANCH  17  18
ATOM     18  C   UNL     1      34.159 -15.230 -23.344  0.00  0.00    -0.013 C 
ATOM     19  C   UNL     1      34.459 -15.144 -21.984  0.00  0.00    -0.004 C 
ATOM     20  C   UNL     1      34.302 -16.445 -24.014  0.00  0.00    -0.004 C 
ATOM     21  C   UNL     1      35.047 -17.487 -21.965  0.00  0.00    +0.018 C 
ATOM     22  C   UNL     1      34.903 -16.272 -21.295  0.00  0.00    +0.001 C 
ATOM     23  C   UNL     1      34.746 -17.574 -23.325  0.00  0.00    +0.001 C 
BRANCH  21  25
ATOM     24  N   UNL     1      36.785 -18.595 -20.820  0.00  0.00    -0.244 NA
ATOM     25  C   UNL     1      35.507 -18.658 -21.251  0.00  0.00    +0.081 C 
ATOM     26  C   UNL     1      34.667 -19.739 -21.046  0.00  0.00    +0.019 C 
ATOM     27  C   UNL     1      35.175 -20.831 -20.351  0.00  0.00    +0.003 C 
ATOM     28  C   UNL     1      37.244 -19.675 -20.148  0.00  0.00    +0.099 C 
ATOM     29  C   UNL     1      36.487 -20.807 -19.890  0.00  0.00    +0.021 C 
ENDBRANCH  21  25
ENDBRANCH  17  18
ENDBRANCH   5  17
TORSDOF 5
ENDMDL
MODEL 6
REMARK VINA RESULT:      -9.5      1.842      2.341
REMARK  Name = 491941
REMARK  5 active torsions:
REMARK  status: ('A' for Active; 'I' for Inactive)
REMARK    1  A    between atoms: C_5  and  C_17
REMARK    2  A    between atoms: C_7  and  S_11
REMARK    3  A    between atoms: S_11  and  N_14
REMARK    4  A    between atoms: C_17  and  C_18
REMARK    5  A    between atoms: C_21  and  C_25
REMARK                            x       y       z     vdW  Elec       q    Type
REMARK                         _______ _______ _______ _____ _____    ______ ____
ROOT
ATOM      1  S   UNL     1      36.646 -24.808 -14.340  0.00  0.00    -0.035 S 
ATOM      2  O   UNL     1      32.838 -22.640 -14.751  0.00  0.00    -0.274 OA
ATOM      3  N   UNL     1      34.299 -24.361 -15.417  0.00  0.00    -0.227 N 
ATOM      4  N   UNL     1      34.545 -24.043 -13.041  0.00  0.00    -0.386 NA
ATOM      5  C   UNL     1      33.221 -23.458 -15.592  0.00  0.00    +0.236 C 
ATOM      6  C   UNL     1      35.024 -24.354 -14.188  0.00  0.00    +0.217 C 
ATOM      7  C   UNL     1      36.790 -24.573 -12.648  0.00  0.00    +0.247 C 
ATOM      8  C   UNL     1      35.576 -24.169 -12.132  0.00  0.00    +0.123 C 
ATOM      9  C   UNL     1      34.688 -25.306 -16.477  0.00  0.00    +0.123 C 
ATOM     10  C   UNL     1      35.297 -23.868 -10.713  0.00  0.00    +0.064 C 
ENDROOT
BRANCH   7  11
ATOM     11  S   UNL     1      38.377 -24.886 -11.973  0.00  0.00    +0.052 S 
ATOM     12  O   UNL     1      38.761 -23.672 -11.259  0.00  0.00    -0.157 OA
ATOM     13  O   UNL     1      38.249 -26.153 -11.262  0.00  0.00    -0.157 OA
BRANCH  11  14
ATOM     14  N   UNL     1      39.494 -25.104 -13.263  0.00  0.00    -0.206 NA
ATOM     15  H   UNL     1      39.869 -26.052 -13.231  0.00  0.00    +0.144 HD
ATOM     16  H   UNL     1      40.257 -24.433 -13.169  0.00  0.00    +0.144 HD
ENDBRANCH  11  14
ENDBRANCH   7  11
BRANCH   5  17
ATOM     17  C   UNL     1      32.520 -23.497 -16.956  0.00  0.00    +0.112 C 
BRANCH  17  18
ATOM     18  C   UNL     1      33.124 -22.593 -17.975  0.00  0.00    -0.013 C 
ATOM     19  C   UNL     1      32.309 -21.748 -18.730  0.00  0.00    -0.004 C 
ATOM     20  C   UNL     1      34.505 -22.590 -18.175  0.00  0.00    -0.004 C 
ATOM     21  C   UNL     1      34.254 -20.900 -19.884  0.00  0.00    +0.018 C 
ATOM     22  C   UNL     1      32.874 -20.902 -19.684  0.00  0.00    +0.001 C 
ATOM     23  C   UNL     1      35.070 -21.744 -19.130  0.00  0.00    +0.001 C 
BRANCH  21  25
ATOM     24  N   UNL     1      36.038 -19.499 -20.530  0.00  0.00    -0.244 NA
ATOM     25  C   UNL     1      34.841 -20.022 -20.873  0.00  0.00    +0.081 C 
ATOM     26  C   UNL     1      34.192 -19.766 -22.068  0.00  0.00    +0.019 C 
ATOM     27  C   UNL     1      34.814 -18.913 -22.973  0.00  0.00    +0.003 C 
ATOM     28  C   UNL     1      36.612 -18.674 -21.434  0.00  0.00    +0.099 C 
ATOM     29  C   UNL     1      36.048 -18.353 -22.658  0.00  0.00    +0.021 C 
ENDBRANCH  21  25
ENDBRANCH  17  18
ENDBRANCH   5  17
TORSDOF 5
ENDMDL
MODEL 7
REMARK VINA RESULT:      -9.5      3.477      6.080
REMARK  Name = 491941
REMARK  5 active torsions:
REMARK  status: ('A' for Active; 'I' for Inactive)
REMARK    1  A    between atoms: C_5  and  C_17
REMARK    2  A    between atoms: C_7  and  S_11
REMARK    3  A    between atoms: S_11  and  N_14
REMARK    4  A    between atoms: C_17  and  C_18
REMARK    5  A    between atoms: C_21  and  C_25
REMARK                            x       y       z     vdW  Elec       q    Type
REMARK                         _______ _______ _______ _____ _____    ______ ____
ROOT
ATOM      1  S   UNL     1      34.013 -22.056 -19.507  0.00  0.00    -0.035 S 
ATOM      2  O   UNL     1      37.482 -19.705 -20.852  0.00  0.00    -0.274 OA
ATOM      3  N   UNL     1      35.156 -20.047 -20.743  0.00  0.00    -0.227 N 
ATOM      4  N   UNL     1      36.127 -20.819 -18.678  0.00  0.00    -0.386 NA
ATOM      5  C   UNL     1      36.346 -19.507 -21.291  0.00  0.00    +0.236 C 
ATOM      6  C   UNL     1      35.235 -20.890 -19.594  0.00  0.00    +0.217 C 
ATOM      7  C   UNL     1      34.728 -22.583 -18.040  0.00  0.00    +0.247 C 
ATOM      8  C   UNL     1      35.836 -21.810 -17.761  0.00  0.00    +0.123 C 
ATOM      9  C   UNL     1      33.839 -19.757 -21.334  0.00  0.00    +0.123 C 
ATOM     10  C   UNL     1      36.716 -21.955 -16.584  0.00  0.00    +0.064 C 
ENDROOT
BRANCH   7  11
ATOM     11  S   UNL     1      33.927 -23.926 -17.250  0.00  0.00    +0.052 S 
ATOM     12  O   UNL     1      33.558 -24.860 -18.310  0.00  0.00    -0.157 OA
ATOM     13  O   UNL     1      34.833 -24.340 -16.184  0.00  0.00    -0.157 OA
BRANCH  11  14
ATOM     14  N   UNL     1      32.472 -23.359 -16.529  0.00  0.00    -0.206 NA
ATOM     15  H   UNL     1      32.210 -22.468 -16.949  0.00  0.00    +0.144 HD
ATOM     16  H   UNL     1      32.616 -23.234 -15.526  0.00  0.00    +0.144 HD
ENDBRANCH  11  14
ENDBRANCH   7  11
BRANCH   5  17
ATOM     17  C   UNL     1      36.181 -18.647 -22.551  0.00  0.00    +0.112 C 
BRANCH  17  18
ATOM     18  C   UNL     1      35.425 -17.382 -22.327  0.00  0.00    -0.013 C 
ATOM     19  C   UNL     1      34.844 -16.715 -23.407  0.00  0.00    -0.004 C 
ATOM     20  C   UNL     1      35.298 -16.864 -21.038  0.00  0.00    -0.004 C 
ATOM     21  C   UNL     1      34.011 -15.013 -21.909  0.00  0.00    +0.018 C 
ATOM     22  C   UNL     1      34.138 -15.531 -23.198  0.00  0.00    +0.001 C 
ATOM     23  C   UNL     1      34.591 -15.679 -20.829  0.00  0.00    +0.001 C 
BRANCH  21  25
ATOM     24  N   UNL     1      33.297 -12.921 -22.728  0.00  0.00    -0.244 NA
ATOM     25  C   UNL     1      33.278 -13.785 -21.691  0.00  0.00    +0.081 C 
ATOM     26  C   UNL     1      32.619 -13.555 -20.496  0.00  0.00    +0.019 C 
ATOM     27  C   UNL     1      31.933 -12.353 -20.355  0.00  0.00    +0.003 C 
ATOM     28  C   UNL     1      32.620 -11.763 -22.555  0.00  0.00    +0.099 C 
ATOM     29  C   UNL     1      31.929 -11.435 -21.400  0.00  0.00    +0.021 C 
ENDBRANCH  21  25
ENDBRANCH  17  18
ENDBRANCH   5  17
TORSDOF 5
ENDMDL
MODEL 8
REMARK VINA RESULT:      -9.2     12.355     17.258
REMARK  Name = 491941
REMARK  5 active torsions:
REMARK  status: ('A' for Active; 'I' for Inactive)
REMARK    1  A    between atoms: C_5  and  C_17
REMARK    2  A    between atoms: C_7  and  S_11
REMARK    3  A    between atoms: S_11  and  N_14
REMARK    4  A    between atoms: C_17  and  C_18
REMARK    5  A    between atoms: C_21  and  C_25
REMARK                            x       y       z     vdW  Elec       q    Type
REMARK                         _______ _______ _______ _____ _____    ______ ____
ROOT
ATOM      1  S   UNL     1      35.028  -5.988 -24.780  0.00  0.00    -0.035 S 
ATOM      2  O   UNL     1      31.099  -7.916 -24.311  0.00  0.00    -0.274 OA
ATOM      3  N   UNL     1      33.132  -7.158 -23.399  0.00  0.00    -0.227 N 
ATOM      4  N   UNL     1      32.494  -5.652 -25.168  0.00  0.00    -0.386 NA
ATOM      5  C   UNL     1      31.954  -7.945 -23.422  0.00  0.00    +0.236 C 
ATOM      6  C   UNL     1      33.386  -6.248 -24.469  0.00  0.00    +0.217 C 
ATOM      7  C   UNL     1      34.542  -4.923 -26.032  0.00  0.00    +0.247 C 
ATOM      8  C   UNL     1      33.165  -4.871 -26.088  0.00  0.00    +0.123 C 
ATOM      9  C   UNL     1      34.100  -7.257 -22.294  0.00  0.00    +0.123 C 
ATOM     10  C   UNL     1      32.368  -4.064 -27.034  0.00  0.00    +0.064 C 
ENDROOT
BRANCH   7  11
ATOM     11  S   UNL     1      35.845  -4.164 -26.926  0.00  0.00    +0.052 S 
ATOM     12  O   UNL     1      35.644  -2.724 -26.792  0.00  0.00    -0.157 OA
ATOM     13  O   UNL     1      37.066  -4.789 -26.430  0.00  0.00    -0.157 OA
BRANCH  11  14
ATOM     14  N   UNL     1      35.678  -4.558 -28.592  0.00  0.00    -0.206 NA
ATOM     15  H   UNL     1      34.711  -4.414 -28.880  0.00  0.00    +0.144 HD
ATOM     16  H   UNL     1      35.936  -5.535 -28.738  0.00  0.00    +0.144 HD
ENDBRANCH  11  14
ENDBRANCH   7  11
BRANCH   5  17
ATOM     17  C   UNL     1      31.775  -8.928 -22.258  0.00  0.00    +0.112 C 
BRANCH  17  18
ATOM     18  C   UNL     1      32.280 -10.302 -22.540  0.00  0.00    -0.013 C 
ATOM     19  C   UNL     1      31.692 -11.404 -21.917  0.00  0.00    -0.004 C 
ATOM     20  C   UNL     1      33.341 -10.486 -23.426  0.00  0.00    -0.004 C 
ATOM     21  C   UNL     1      33.226 -12.873 -23.066  0.00  0.00    +0.018 C 
ATOM     22  C   UNL     1      32.164 -12.689 -22.181  0.00  0.00    +0.001 C 
ATOM     23  C   UNL     1      33.815 -11.772 -23.689  0.00  0.00    +0.001 C 
BRANCH  21  25
ATOM     24  N   UNL     1      33.366 -14.704 -24.546  0.00  0.00    -0.244 NA
ATOM     25  C   UNL     1      33.717 -14.206 -23.341  0.00  0.00    +0.081 C 
ATOM     26  C   UNL     1      34.485 -14.884 -22.411  0.00  0.00    +0.019 C 
ATOM     27  C   UNL     1      34.924 -16.162 -22.741  0.00  0.00    +0.003 C 
ATOM     28  C   UNL     1      33.810 -15.949 -24.832  0.00  0.00    +0.099 C 
ATOM     29  C   UNL     1      34.584 -16.712 -23.972  0.00  0.00    +0.021 C 
ENDBRANCH  21  25
ENDBRANCH  17  18
ENDBRANCH   5  17
TORSDOF 5
ENDMDL
MODEL 9
REMARK VINA RESULT:      -9.0      3.245      5.300
REMARK  Name = 491941
REMARK  5 active torsions:
REMARK  status: ('A' for Active; 'I' for Inactive)
REMARK    1  A    between atoms: C_5  and  C_17
REMARK    2  A    between atoms: C_7  and  S_11
REMARK    3  A    between atoms: S_11  and  N_14
REMARK    4  A    between atoms: C_17  and  C_18
REMARK    5  A    between atoms: C_21  and  C_25
REMARK                            x       y       z     vdW  Elec       q    Type
REMARK                         _______ _______ _______ _____ _____    ______ ____
ROOT
ATOM      1  S   UNL     1      34.829 -22.297 -18.492  0.00  0.00    -0.035 S 
ATOM      2  O   UNL     1      37.649 -19.841 -20.814  0.00  0.00    -0.274 OA
ATOM      3  N   UNL     1      35.448 -20.483 -20.281  0.00  0.00    -0.227 N 
ATOM      4  N   UNL     1      36.776 -20.609 -18.273  0.00  0.00    -0.386 NA
ATOM      5  C   UNL     1      36.452 -19.918 -21.105  0.00  0.00    +0.236 C 
ATOM      6  C   UNL     1      35.809 -21.018 -19.007  0.00  0.00    +0.217 C 
ATOM      7  C   UNL     1      35.792 -22.361 -17.075  0.00  0.00    +0.247 C 
ATOM      8  C   UNL     1      36.772 -21.393 -17.137  0.00  0.00    +0.123 C 
ATOM      9  C   UNL     1      34.040 -20.532 -20.709  0.00  0.00    +0.123 C 
ATOM     10  C   UNL     1      37.797 -21.133 -16.105  0.00  0.00    +0.064 C 
ENDROOT
BRANCH   7  11
ATOM     11  S   UNL     1      35.338 -23.588 -15.909  0.00  0.00    +0.052 S 
ATOM     12  O   UNL     1      34.998 -22.875 -14.681  0.00  0.00    -0.157 OA
ATOM     13  O   UNL     1      34.343 -24.411 -16.585  0.00  0.00    -0.157 OA
BRANCH  11  14
ATOM     14  N   UNL     1      36.710 -24.570 -15.574  0.00  0.00    -0.206 NA
ATOM     15  H   UNL     1      37.111 -24.903 -16.450  0.00  0.00    +0.144 HD
ATOM     16  H   UNL     1      36.426 -25.367 -15.004  0.00  0.00    +0.144 HD
ENDBRANCH  11  14
ENDBRANCH   7  11
BRANCH   5  17
ATOM     17  C   UNL     1      35.991 -19.404 -22.476  0.00  0.00    +0.112 C 
BRANCH  17  18
ATOM     18  C   UNL     1      35.395 -18.038 -22.444  0.00  0.00    -0.013 C 
ATOM     19  C   UNL     1      35.328 -17.334 -21.241  0.00  0.00    -0.004 C 
ATOM     20  C   UNL     1      34.906 -17.463 -23.617  0.00  0.00    -0.004 C 
ATOM     21  C   UNL     1      34.280 -15.482 -22.383  0.00  0.00    +0.018 C 
ATOM     22  C   UNL     1      34.770 -16.056 -21.210  0.00  0.00    +0.001 C 
ATOM     23  C   UNL     1      34.348 -16.185 -23.586  0.00  0.00    +0.001 C 
BRANCH  21  25
ATOM     24  N   UNL     1      34.192 -13.301 -23.276  0.00  0.00    -0.244 NA
ATOM     25  C   UNL     1      33.702 -14.156 -22.353  0.00  0.00    +0.081 C 
ATOM     26  C   UNL     1      32.721 -13.831 -21.432  0.00  0.00    +0.019 C 
ATOM     27  C   UNL     1      32.209 -12.538 -21.460  0.00  0.00    +0.003 C 
ATOM     28  C   UNL     1      33.671 -12.053 -23.273  0.00  0.00    +0.099 C 
ATOM     29  C   UNL     1      32.688 -11.626 -22.395  0.00  0.00    +0.021 C 
ENDBRANCH  21  25
ENDBRANCH  17  18
ENDBRANCH   5  17
TORSDOF 5
ENDMDL
