MODEL 1
REMARK VINA RESULT:     -11.8      0.000      0.000
REMARK  Name = 151194
REMARK  3 active torsions:
REMARK  status: ('A' for Active; 'I' for Inactive)
REMARK    1  A    between atoms: N_1  and  C_14
REMARK    2  A    between atoms: C_6  and  C_20
REMARK    3  A    between atoms: C_20  and  C_22
REMARK                            x       y       z     vdW  Elec       q    Type
REMARK                         _______ _______ _______ _____ _____    ______ ____
ROOT
ATOM      1  N   UNL     1      35.289 -22.551 -17.967  0.00  0.00    -0.297 N 
ATOM      2  N   UNL     1      32.060 -23.310 -16.534  0.00  0.00    -0.151 NA
ATOM      3  N   UNL     1      33.028 -22.925 -17.407  0.00  0.00    -0.133 NA
ATOM      4  C   UNL     1      33.728 -23.779 -14.856  0.00  0.00    +0.018 A 
ATOM      5  C   UNL     1      34.727 -23.382 -15.757  0.00  0.00    +0.035 A 
ATOM      6  C   UNL     1      32.411 -23.724 -15.297  0.00  0.00    +0.085 A 
ATOM      7  C   UNL     1      34.321 -22.964 -17.019  0.00  0.00    +0.154 A 
ATOM      8  C   UNL     1      34.086 -24.210 -13.567  0.00  0.00    +0.001 C 
ATOM      9  C   UNL     1      36.075 -23.419 -15.360  0.00  0.00    +0.003 C 
ATOM     10  C   UNL     1      35.427 -24.244 -13.184  0.00  0.00    +0.000 C 
ATOM     11  C   UNL     1      36.420 -23.849 -14.079  0.00  0.00    +0.000 C 
ATOM     12  H   UNL     1      36.158 -23.001 -17.866  0.00  0.00    +0.154 HD
ENDROOT
BRANCH   1  14
ATOM     13 CL   UNL     1      35.115 -18.652 -22.419  0.00  0.00    -0.082 Cl
ATOM     14  C   UNL     1      35.248 -21.627 -19.023  0.00  0.00    +0.049 C 
ATOM     15  C   UNL     1      34.027 -21.283 -19.610  0.00  0.00    +0.016 C 
ATOM     16  C   UNL     1      36.428 -21.045 -19.494  0.00  0.00    +0.016 C 
ATOM     17  C   UNL     1      33.985 -20.364 -20.658  0.00  0.00    +0.013 C 
ATOM     18  C   UNL     1      36.387 -20.126 -20.543  0.00  0.00    +0.013 C 
ATOM     19  C   UNL     1      35.166 -19.786 -21.125  0.00  0.00    +0.058 C 
ENDBRANCH   1  14
BRANCH   6  20
ATOM     20  C   UNL     1      31.269 -24.124 -14.421  0.00  0.00    +0.074 C 
BRANCH  20  22
ATOM     21  N   UNL     1      27.419 -23.512 -16.203  0.00  0.00    -0.242 NA
ATOM     22  C   UNL     1      29.909 -23.908 -15.050  0.00  0.00    -0.013 C 
ATOM     23  C   UNL     1      29.262 -22.705 -14.861  0.00  0.00    +0.017 C 
ATOM     24  C   UNL     1      29.344 -24.919 -15.800  0.00  0.00    +0.017 C 
ATOM     25  C   UNL     1      28.021 -22.557 -15.458  0.00  0.00    +0.099 C 
ATOM     26  C   UNL     1      28.099 -24.671 -16.355  0.00  0.00    +0.099 C 
ENDBRANCH  20  22
ENDBRANCH   6  20
TORSDOF 3
ENDMDL
MODEL 2
REMARK VINA RESULT:     -11.4     11.632     14.761
REMARK  Name = 151194
REMARK  3 active torsions:
REMARK  status: ('A' for Active; 'I' for Inactive)
REMARK    1  A    between atoms: N_1  and  C_14
REMARK    2  A    between atoms: C_6  and  C_20
REMARK    3  A    between atoms: C_20  and  C_22
REMARK                            x       y       z     vdW  Elec       q    Type
REMARK                         _______ _______ _______ _____ _____    ______ ____
ROOT
ATOM      1  N   UNL     1      33.636  -7.372 -22.258  0.00  0.00    -0.297 N 
ATOM      2  N   UNL     1      32.845 -10.758 -23.236  0.00  0.00    -0.151 NA
ATOM      3  N   UNL     1      33.317  -9.484 -23.258  0.00  0.00    -0.133 NA
ATOM      4  C   UNL     1      31.972 -10.422 -21.013  0.00  0.00    +0.018 A 
ATOM      5  C   UNL     1      32.459  -9.106 -21.035  0.00  0.00    +0.035 A 
ATOM      6  C   UNL     1      32.193 -11.204 -22.140  0.00  0.00    +0.085 A 
ATOM      7  C   UNL     1      33.124  -8.690 -22.182  0.00  0.00    +0.154 A 
ATOM      8  C   UNL     1      31.292 -10.893 -19.877  0.00  0.00    +0.001 C 
ATOM      9  C   UNL     1      32.262  -8.274 -19.920  0.00  0.00    +0.003 C 
ATOM     10  C   UNL     1      31.102 -10.058 -18.775  0.00  0.00    +0.000 C 
ATOM     11  C   UNL     1      31.586  -8.750 -18.796  0.00  0.00    +0.000 C 
ATOM     12  H   UNL     1      33.901  -7.000 -21.386  0.00  0.00    +0.154 HD
ENDROOT
BRANCH   1  14
ATOM     13 CL   UNL     1      34.490  -3.669 -26.798  0.00  0.00    -0.082 Cl
ATOM     14  C   UNL     1      33.838  -6.493 -23.334  0.00  0.00    +0.049 C 
ATOM     15  C   UNL     1      35.024  -6.545 -24.071  0.00  0.00    +0.016 C 
ATOM     16  C   UNL     1      32.855  -5.560 -23.675  0.00  0.00    +0.016 C 
ATOM     17  C   UNL     1      35.226  -5.674 -25.141  0.00  0.00    +0.013 C 
ATOM     18  C   UNL     1      33.055  -4.687 -24.745  0.00  0.00    +0.013 C 
ATOM     19  C   UNL     1      34.241  -4.744 -25.478  0.00  0.00    +0.058 C 
ENDBRANCH   1  14
BRANCH   6  20
ATOM     20  C   UNL     1      31.719 -12.619 -22.224  0.00  0.00    +0.074 C 
BRANCH  20  22
ATOM     21  N   UNL     1      34.810 -15.524 -21.616  0.00  0.00    -0.242 NA
ATOM     22  C   UNL     1      32.811 -13.645 -22.009  0.00  0.00    -0.013 C 
ATOM     23  C   UNL     1      33.404 -14.237 -23.104  0.00  0.00    +0.017 C 
ATOM     24  C   UNL     1      33.190 -13.967 -20.723  0.00  0.00    +0.017 C 
ATOM     25  C   UNL     1      34.398 -15.170 -22.854  0.00  0.00    +0.099 C 
ATOM     26  C   UNL     1      34.194 -14.912 -20.580  0.00  0.00    +0.099 C 
ENDBRANCH  20  22
ENDBRANCH   6  20
TORSDOF 3
ENDMDL
MODEL 3
REMARK VINA RESULT:     -10.7      1.459      2.356
REMARK  Name = 151194
REMARK  3 active torsions:
REMARK  status: ('A' for Active; 'I' for Inactive)
REMARK    1  A    between atoms: N_1  and  C_14
REMARK    2  A    between atoms: C_6  and  C_20
REMARK    3  A    between atoms: C_20  and  C_22
REMARK                            x       y       z     vdW  Elec       q    Type
REMARK                         _______ _______ _______ _____ _____    ______ ____
ROOT
ATOM      1  N   UNL     1      36.105 -21.280 -19.285  0.00  0.00    -0.297 N 
ATOM      2  N   UNL     1      33.264 -23.247 -18.232  0.00  0.00    -0.151 NA
ATOM      3  N   UNL     1      34.094 -22.475 -18.981  0.00  0.00    -0.133 NA
ATOM      4  C   UNL     1      34.848 -23.227 -16.413  0.00  0.00    +0.018 A 
ATOM      5  C   UNL     1      35.705 -22.430 -17.186  0.00  0.00    +0.035 A 
ATOM      6  C   UNL     1      33.640 -23.608 -16.985  0.00  0.00    +0.085 A 
ATOM      7  C   UNL     1      35.278 -22.083 -18.462  0.00  0.00    +0.154 A 
ATOM      8  C   UNL     1      35.232 -23.606 -15.115  0.00  0.00    +0.001 C 
ATOM      9  C   UNL     1      36.939 -22.018 -16.653  0.00  0.00    +0.003 C 
ATOM     10  C   UNL     1      36.459 -23.191 -14.596  0.00  0.00    +0.000 C 
ATOM     11  C   UNL     1      37.311 -22.399 -15.364  0.00  0.00    +0.000 C 
ATOM     12  H   UNL     1      37.067 -21.398 -19.115  0.00  0.00    +0.154 HD
ENDROOT
BRANCH   1  14
ATOM     13 CL   UNL     1      34.898 -17.353 -23.549  0.00  0.00    -0.082 Cl
ATOM     14  C   UNL     1      35.818 -20.348 -20.296  0.00  0.00    +0.049 C 
ATOM     15  C   UNL     1      36.784 -19.418 -20.690  0.00  0.00    +0.016 C 
ATOM     16  C   UNL     1      34.565 -20.345 -20.914  0.00  0.00    +0.016 C 
ATOM     17  C   UNL     1      36.500 -18.494 -21.694  0.00  0.00    +0.013 C 
ATOM     18  C   UNL     1      34.280 -19.421 -21.920  0.00  0.00    +0.013 C 
ATOM     19  C   UNL     1      35.248 -18.495 -22.309  0.00  0.00    +0.058 C 
ENDBRANCH   1  14
BRANCH   6  20
ATOM     20  C   UNL     1      32.652 -24.456 -16.253  0.00  0.00    +0.074 C 
BRANCH  20  22
ATOM     21  N   UNL     1      29.289 -22.283 -14.725  0.00  0.00    -0.242 NA
ATOM     22  C   UNL     1      31.464 -23.688 -15.713  0.00  0.00    -0.013 C 
ATOM     23  C   UNL     1      30.329 -23.571 -16.487  0.00  0.00    +0.017 C 
ATOM     24  C   UNL     1      31.542 -23.121 -14.458  0.00  0.00    +0.017 C 
ATOM     25  C   UNL     1      29.270 -22.859 -15.947  0.00  0.00    +0.099 C 
ATOM     26  C   UNL     1      30.428 -22.429 -14.010  0.00  0.00    +0.099 C 
ENDBRANCH  20  22
ENDBRANCH   6  20
TORSDOF 3
ENDMDL
MODEL 4
REMARK VINA RESULT:     -10.7      5.104      9.601
REMARK  Name = 151194
REMARK  3 active torsions:
REMARK  status: ('A' for Active; 'I' for Inactive)
REMARK    1  A    between atoms: N_1  and  C_14
REMARK    2  A    between atoms: C_6  and  C_20
REMARK    3  A    between atoms: C_20  and  C_22
REMARK                            x       y       z     vdW  Elec       q    Type
REMARK                         _______ _______ _______ _____ _____    ______ ____
ROOT
ATOM      1  N   UNL     1      34.959 -20.155 -21.355  0.00  0.00    -0.297 N 
ATOM      2  N   UNL     1      35.400 -16.639 -20.652  0.00  0.00    -0.151 NA
ATOM      3  N   UNL     1      35.373 -17.990 -20.514  0.00  0.00    -0.133 NA
ATOM      4  C   UNL     1      34.599 -16.831 -22.919  0.00  0.00    +0.018 A 
ATOM      5  C   UNL     1      34.571 -18.227 -22.776  0.00  0.00    +0.035 A 
ATOM      6  C   UNL     1      35.022 -16.085 -21.825  0.00  0.00    +0.085 A 
ATOM      7  C   UNL     1      34.968 -18.753 -21.553  0.00  0.00    +0.154 A 
ATOM      8  C   UNL     1      34.206 -16.249 -24.136  0.00  0.00    +0.001 C 
ATOM      9  C   UNL     1      34.150 -19.026 -23.853  0.00  0.00    +0.003 C 
ATOM     10  C   UNL     1      33.791 -17.052 -25.199  0.00  0.00    +0.000 C 
ATOM     11  C   UNL     1      33.763 -18.439 -25.057  0.00  0.00    +0.000 C 
ATOM     12  H   UNL     1      35.122 -20.672 -22.177  0.00  0.00    +0.154 HD
ENDROOT
BRANCH   1  14
ATOM     13 CL   UNL     1      34.131 -23.511 -16.548  0.00  0.00    -0.082 Cl
ATOM     14  C   UNL     1      34.762 -20.950 -20.215  0.00  0.00    +0.049 C 
ATOM     15  C   UNL     1      33.469 -21.274 -19.797  0.00  0.00    +0.016 C 
ATOM     16  C   UNL     1      35.860 -21.423 -19.490  0.00  0.00    +0.016 C 
ATOM     17  C   UNL     1      33.273 -22.065 -18.665  0.00  0.00    +0.013 C 
ATOM     18  C   UNL     1      35.666 -22.215 -18.357  0.00  0.00    +0.013 C 
ATOM     19  C   UNL     1      34.372 -22.535 -17.945  0.00  0.00    +0.058 C 
ENDBRANCH   1  14
BRANCH   6  20
ATOM     20  C   UNL     1      35.091 -14.594 -21.867  0.00  0.00    +0.074 C 
BRANCH  20  22
ATOM     21  N   UNL     1      31.342 -12.659 -21.113  0.00  0.00    -0.242 NA
ATOM     22  C   UNL     1      33.767 -13.911 -21.601  0.00  0.00    -0.013 C 
ATOM     23  C   UNL     1      33.093 -14.180 -20.429  0.00  0.00    +0.017 C 
ATOM     24  C   UNL     1      33.261 -13.032 -22.537  0.00  0.00    +0.017 C 
ATOM     25  C   UNL     1      31.886 -13.529 -20.232  0.00  0.00    +0.099 C 
ATOM     26  C   UNL     1      32.046 -12.433 -22.245  0.00  0.00    +0.099 C 
ENDBRANCH  20  22
ENDBRANCH   6  20
TORSDOF 3
ENDMDL
MODEL 5
REMARK VINA RESULT:     -10.6     11.639     15.116
REMARK  Name = 151194
REMARK  3 active torsions:
REMARK  status: ('A' for Active; 'I' for Inactive)
REMARK    1  A    between atoms: N_1  and  C_14
REMARK    2  A    between atoms: C_6  and  C_20
REMARK    3  A    between atoms: C_20  and  C_22
REMARK                            x       y       z     vdW  Elec       q    Type
REMARK                         _______ _______ _______ _____ _____    ______ ____
ROOT
ATOM      1  N   UNL     1      32.255 -12.332 -22.252  0.00  0.00    -0.297 N 
ATOM      2  N   UNL     1      33.706  -9.138 -23.118  0.00  0.00    -0.151 NA
ATOM      3  N   UNL     1      33.344 -10.448 -23.163  0.00  0.00    -0.133 NA
ATOM      4  C   UNL     1      32.556  -8.868 -21.015  0.00  0.00    +0.018 A 
ATOM      5  C   UNL     1      32.183 -10.220 -21.060  0.00  0.00    +0.035 A 
ATOM      6  C   UNL     1      33.318  -8.379 -22.070  0.00  0.00    +0.085 A 
ATOM      7  C   UNL     1      32.603 -10.962 -22.157  0.00  0.00    +0.154 A 
ATOM      8  C   UNL     1      32.157  -8.072 -19.928  0.00  0.00    +0.001 C 
ATOM      9  C   UNL     1      31.413 -10.762 -20.018  0.00  0.00    +0.003 C 
ATOM     10  C   UNL     1      31.392  -8.621 -18.898  0.00  0.00    +0.000 C 
ATOM     11  C   UNL     1      31.020  -9.964 -18.943  0.00  0.00    +0.000 C 
ATOM     12  H   UNL     1      31.398 -12.553 -21.822  0.00  0.00    +0.154 HD
ENDROOT
BRANCH   1  14
ATOM     13 CL   UNL     1      34.945 -16.982 -24.741  0.00  0.00    -0.082 Cl
ATOM     14  C   UNL     1      32.893 -13.434 -22.843  0.00  0.00    +0.049 C 
ATOM     15  C   UNL     1      33.721 -14.260 -22.078  0.00  0.00    +0.016 C 
ATOM     16  C   UNL     1      32.705 -13.712 -24.200  0.00  0.00    +0.016 C 
ATOM     17  C   UNL     1      34.354 -15.356 -22.664  0.00  0.00    +0.013 C 
ATOM     18  C   UNL     1      33.338 -14.808 -24.787  0.00  0.00    +0.013 C 
ATOM     19  C   UNL     1      34.163 -15.630 -24.019  0.00  0.00    +0.058 C 
ENDBRANCH   1  14
BRANCH   6  20
ATOM     20  C   UNL     1      33.769  -6.956 -22.124  0.00  0.00    +0.074 C 
BRANCH  20  22
ATOM     21  N   UNL     1      30.722  -4.212 -23.371  0.00  0.00    -0.242 NA
ATOM     22  C   UNL     1      32.693  -5.987 -22.565  0.00  0.00    -0.013 C 
ATOM     23  C   UNL     1      32.189  -5.081 -21.656  0.00  0.00    +0.017 C 
ATOM     24  C   UNL     1      32.237  -6.031 -23.866  0.00  0.00    +0.017 C 
ATOM     25  C   UNL     1      31.206  -4.215 -22.109  0.00  0.00    +0.099 C 
ATOM     26  C   UNL     1      31.252  -5.123 -24.219  0.00  0.00    +0.099 C 
ENDBRANCH  20  22
ENDBRANCH   6  20
TORSDOF 3
ENDMDL
MODEL 6
REMARK VINA RESULT:     -10.5     11.408     15.272
REMARK  Name = 151194
REMARK  3 active torsions:
REMARK  status: ('A' for Active; 'I' for Inactive)
REMARK    1  A    between atoms: N_1  and  C_14
REMARK    2  A    between atoms: C_6  and  C_20
REMARK    3  A    between atoms: C_20  and  C_22
REMARK                            x       y       z     vdW  Elec       q    Type
REMARK                         _______ _______ _______ _____ _____    ______ ____
ROOT
ATOM      1  N   UNL     1      32.228 -12.340 -22.148  0.00  0.00    -0.297 N 
ATOM      2  N   UNL     1      33.496  -9.099 -23.117  0.00  0.00    -0.151 NA
ATOM      3  N   UNL     1      33.192 -10.423 -23.129  0.00  0.00    -0.133 NA
ATOM      4  C   UNL     1      32.431  -8.849 -20.967  0.00  0.00    +0.018 A 
ATOM      5  C   UNL     1      32.116 -10.217 -20.980  0.00  0.00    +0.035 A 
ATOM      6  C   UNL     1      33.122  -8.343 -22.062  0.00  0.00    +0.085 A 
ATOM      7  C   UNL     1      32.520 -10.956 -22.085  0.00  0.00    +0.154 A 
ATOM      8  C   UNL     1      32.046  -8.057 -19.873  0.00  0.00    +0.001 C 
ATOM      9  C   UNL     1      31.418 -10.778 -19.897  0.00  0.00    +0.003 C 
ATOM     10  C   UNL     1      31.353  -8.624 -18.803  0.00  0.00    +0.000 C 
ATOM     11  C   UNL     1      31.039  -9.983 -18.815  0.00  0.00    +0.000 C 
ATOM     12  H   UNL     1      31.402 -12.593 -21.677  0.00  0.00    +0.154 HD
ENDROOT
BRANCH   1  14
ATOM     13 CL   UNL     1      35.008 -16.903 -24.701  0.00  0.00    -0.082 Cl
ATOM     14  C   UNL     1      32.888 -13.422 -22.754  0.00  0.00    +0.049 C 
ATOM     15  C   UNL     1      33.726 -14.247 -21.999  0.00  0.00    +0.016 C 
ATOM     16  C   UNL     1      32.711 -13.680 -24.116  0.00  0.00    +0.016 C 
ATOM     17  C   UNL     1      34.380 -15.322 -22.600  0.00  0.00    +0.013 C 
ATOM     18  C   UNL     1      33.365 -14.755 -24.718  0.00  0.00    +0.013 C 
ATOM     19  C   UNL     1      34.200 -15.576 -23.960  0.00  0.00    +0.058 C 
ENDBRANCH   1  14
BRANCH   6  20
ATOM     20  C   UNL     1      33.508  -6.902 -22.153  0.00  0.00    +0.074 C 
BRANCH  20  22
ATOM     21  N   UNL     1      34.245  -5.552 -26.154  0.00  0.00    -0.242 NA
ATOM     22  C   UNL     1      33.768  -6.426 -23.567  0.00  0.00    -0.013 C 
ATOM     23  C   UNL     1      32.707  -6.017 -24.346  0.00  0.00    +0.017 C 
ATOM     24  C   UNL     1      35.062  -6.410 -24.046  0.00  0.00    +0.017 C 
ATOM     25  C   UNL     1      32.998  -5.589 -25.632  0.00  0.00    +0.099 C 
ATOM     26  C   UNL     1      35.247  -5.965 -25.345  0.00  0.00    +0.099 C 
ENDBRANCH  20  22
ENDBRANCH   6  20
TORSDOF 3
ENDMDL
MODEL 7
REMARK VINA RESULT:     -10.5      3.396      6.742
REMARK  Name = 151194
REMARK  3 active torsions:
REMARK  status: ('A' for Active; 'I' for Inactive)
REMARK    1  A    between atoms: N_1  and  C_14
REMARK    2  A    between atoms: C_6  and  C_20
REMARK    3  A    between atoms: C_20  and  C_22
REMARK                            x       y       z     vdW  Elec       q    Type
REMARK                         _______ _______ _______ _____ _____    ______ ____
ROOT
ATOM      1  N   UNL     1      34.936 -25.431 -14.172  0.00  0.00    -0.297 N 
ATOM      2  N   UNL     1      34.126 -23.709 -17.243  0.00  0.00    -0.151 NA
ATOM      3  N   UNL     1      34.783 -24.449 -16.312  0.00  0.00    -0.133 NA
ATOM      4  C   UNL     1      32.288 -23.376 -15.718  0.00  0.00    +0.018 A 
ATOM      5  C   UNL     1      32.966 -24.140 -14.755  0.00  0.00    +0.035 A 
ATOM      6  C   UNL     1      32.914 -23.192 -16.945  0.00  0.00    +0.085 A 
ATOM      7  C   UNL     1      34.209 -24.653 -15.106  0.00  0.00    +0.154 A 
ATOM      8  C   UNL     1      31.027 -22.834 -15.414  0.00  0.00    +0.001 C 
ATOM      9  C   UNL     1      32.375 -24.356 -13.499  0.00  0.00    +0.003 C 
ATOM     10  C   UNL     1      30.450 -23.055 -14.163  0.00  0.00    +0.000 C 
ATOM     11  C   UNL     1      31.123 -23.815 -13.206  0.00  0.00    +0.000 C 
ATOM     12  H   UNL     1      34.365 -25.936 -13.549  0.00  0.00    +0.154 HD
ENDROOT
BRANCH   1  14
ATOM     13 CL   UNL     1      40.735 -26.238 -13.297  0.00  0.00    -0.082 Cl
ATOM     14  C   UNL     1      36.311 -25.622 -13.964  0.00  0.00    +0.049 C 
ATOM     15  C   UNL     1      36.992 -26.632 -14.649  0.00  0.00    +0.016 C 
ATOM     16  C   UNL     1      37.007 -24.805 -13.069  0.00  0.00    +0.016 C 
ATOM     17  C   UNL     1      38.358 -26.822 -14.444  0.00  0.00    +0.013 C 
ATOM     18  C   UNL     1      38.374 -24.994 -12.863  0.00  0.00    +0.013 C 
ATOM     19  C   UNL     1      39.049 -26.003 -13.550  0.00  0.00    +0.058 C 
ENDBRANCH   1  14
BRANCH   6  20
ATOM     20  C   UNL     1      32.283 -22.396 -18.041  0.00  0.00    +0.074 C 
BRANCH  20  22
ATOM     21  N   UNL     1      35.103 -20.483 -20.640  0.00  0.00    -0.242 NA
ATOM     22  C   UNL     1      33.279 -21.721 -18.959  0.00  0.00    -0.013 C 
ATOM     23  C   UNL     1      32.832 -20.783 -19.866  0.00  0.00    +0.017 C 
ATOM     24  C   UNL     1      34.615 -22.056 -18.870  0.00  0.00    +0.017 C 
ATOM     25  C   UNL     1      33.783 -20.194 -20.683  0.00  0.00    +0.099 C 
ATOM     26  C   UNL     1      35.485 -21.410 -19.732  0.00  0.00    +0.099 C 
ENDBRANCH  20  22
ENDBRANCH   6  20
TORSDOF 3
ENDMDL
MODEL 8
REMARK VINA RESULT:     -10.2     11.915     16.057
REMARK  Name = 151194
REMARK  3 active torsions:
REMARK  status: ('A' for Active; 'I' for Inactive)
REMARK    1  A    between atoms: N_1  and  C_14
REMARK    2  A    between atoms: C_6  and  C_20
REMARK    3  A    between atoms: C_20  and  C_22
REMARK                            x       y       z     vdW  Elec       q    Type
REMARK                         _______ _______ _______ _____ _____    ______ ____
ROOT
ATOM      1  N   UNL     1      32.754 -11.801 -22.825  0.00  0.00    -0.297 N 
ATOM      2  N   UNL     1      34.881  -9.085 -23.897  0.00  0.00    -0.151 NA
ATOM      3  N   UNL     1      34.296 -10.308 -23.803  0.00  0.00    -0.133 NA
ATOM      4  C   UNL     1      33.495  -8.258 -22.104  0.00  0.00    +0.018 A 
ATOM      5  C   UNL     1      32.891  -9.521 -22.007  0.00  0.00    +0.035 A 
ATOM      6  C   UNL     1      34.484  -8.096 -23.067  0.00  0.00    +0.085 A 
ATOM      7  C   UNL     1      33.329 -10.509 -22.880  0.00  0.00    +0.154 A 
ATOM      8  C   UNL     1      33.088  -7.225 -21.243  0.00  0.00    +0.001 C 
ATOM      9  C   UNL     1      31.886  -9.738 -21.049  0.00  0.00    +0.003 C 
ATOM     10  C   UNL     1      32.089  -7.451 -20.296  0.00  0.00    +0.000 C 
ATOM     11  C   UNL     1      31.488  -8.705 -20.199  0.00  0.00    +0.000 C 
ATOM     12  H   UNL     1      31.815 -11.804 -22.527  0.00  0.00    +0.154 HD
ENDROOT
BRANCH   1  14
ATOM     13 CL   UNL     1      34.890 -17.189 -24.036  0.00  0.00    -0.082 Cl
ATOM     14  C   UNL     1      33.261 -13.079 -23.112  0.00  0.00    +0.049 C 
ATOM     15  C   UNL     1      33.988 -13.780 -22.147  0.00  0.00    +0.016 C 
ATOM     16  C   UNL     1      33.041 -13.656 -24.366  0.00  0.00    +0.016 C 
ATOM     17  C   UNL     1      34.492 -15.050 -22.432  0.00  0.00    +0.013 C 
ATOM     18  C   UNL     1      33.544 -14.926 -24.652  0.00  0.00    +0.013 C 
ATOM     19  C   UNL     1      34.270 -15.623 -23.685  0.00  0.00    +0.058 C 
ENDBRANCH   1  14
BRANCH   6  20
ATOM     20  C   UNL     1      35.192  -6.794 -23.258  0.00  0.00    +0.074 C 
BRANCH  20  22
ATOM     21  N   UNL     1      33.716  -4.483 -26.552  0.00  0.00    -0.242 NA
ATOM     22  C   UNL     1      34.671  -5.977 -24.421  0.00  0.00    -0.013 C 
ATOM     23  C   UNL     1      35.441  -5.855 -25.558  0.00  0.00    +0.017 C 
ATOM     24  C   UNL     1      33.435  -5.373 -24.321  0.00  0.00    +0.017 C 
ATOM     25  C   UNL     1      34.919  -5.098 -26.594  0.00  0.00    +0.099 C 
ATOM     26  C   UNL     1      33.003  -4.637 -25.412  0.00  0.00    +0.099 C 
ENDBRANCH  20  22
ENDBRANCH   6  20
TORSDOF 3
ENDMDL
MODEL 9
REMARK VINA RESULT:      -9.9      3.293      7.175
REMARK  Name = 151194
REMARK  3 active torsions:
REMARK  status: ('A' for Active; 'I' for Inactive)
REMARK    1  A    between atoms: N_1  and  C_14
REMARK    2  A    between atoms: C_6  and  C_20
REMARK    3  A    between atoms: C_20  and  C_22
REMARK                            x       y       z     vdW  Elec       q    Type
REMARK                         _______ _______ _______ _____ _____    ______ ____
ROOT
ATOM      1  N   UNL     1      31.574 -23.446 -16.550  0.00  0.00    -0.297 N 
ATOM      2  N   UNL     1      33.811 -23.987 -13.765  0.00  0.00    -0.151 NA
ATOM      3  N   UNL     1      32.685 -23.920 -14.524  0.00  0.00    -0.133 NA
ATOM      4  C   UNL     1      35.136 -23.191 -15.616  0.00  0.00    +0.018 A 
ATOM      5  C   UNL     1      33.974 -23.121 -16.400  0.00  0.00    +0.035 A 
ATOM      6  C   UNL     1      34.996 -23.631 -14.305  0.00  0.00    +0.085 A 
ATOM      7  C   UNL     1      32.777 -23.497 -15.804  0.00  0.00    +0.154 A 
ATOM      8  C   UNL     1      36.373 -22.821 -16.171  0.00  0.00    +0.001 C 
ATOM      9  C   UNL     1      34.061 -22.682 -17.732  0.00  0.00    +0.003 C 
ATOM     10  C   UNL     1      36.448 -22.387 -17.495  0.00  0.00    +0.000 C 
ATOM     11  C   UNL     1      35.293 -22.318 -18.275  0.00  0.00    +0.000 C 
ATOM     12  H   UNL     1      31.700 -23.597 -17.514  0.00  0.00    +0.154 HD
ENDROOT
BRANCH   1  14
ATOM     13 CL   UNL     1      25.940 -22.496 -14.995  0.00  0.00    -0.082 Cl
ATOM     14  C   UNL     1      30.238 -23.221 -16.181  0.00  0.00    +0.049 C 
ATOM     15  C   UNL     1      29.940 -22.532 -15.002  0.00  0.00    +0.016 C 
ATOM     16  C   UNL     1      29.198 -23.686 -16.991  0.00  0.00    +0.016 C 
ATOM     17  C   UNL     1      28.613 -22.308 -14.636  0.00  0.00    +0.013 C 
ATOM     18  C   UNL     1      27.870 -23.462 -16.625  0.00  0.00    +0.013 C 
ATOM     19  C   UNL     1      27.578 -22.773 -15.447  0.00  0.00    +0.058 C 
ENDBRANCH   1  14
BRANCH   6  20
ATOM     20  C   UNL     1      36.166 -23.744 -13.383  0.00  0.00    +0.074 C 
BRANCH  20  22
ATOM     21  N   UNL     1      38.702 -27.101 -14.201  0.00  0.00    -0.242 NA
ATOM     22  C   UNL     1      37.062 -24.930 -13.672  0.00  0.00    -0.013 C 
ATOM     23  C   UNL     1      38.412 -24.836 -13.407  0.00  0.00    +0.017 C 
ATOM     24  C   UNL     1      36.510 -26.081 -14.195  0.00  0.00    +0.017 C 
ATOM     25  C   UNL     1      39.188 -25.948 -13.689  0.00  0.00    +0.099 C 
ATOM     26  C   UNL     1      37.372 -27.137 -14.441  0.00  0.00    +0.099 C 
ENDBRANCH  20  22
ENDBRANCH   6  20
TORSDOF 3
ENDMDL
