MODEL 1
REMARK VINA RESULT:     -12.2      0.000      0.000
REMARK  Name = 100472
REMARK  3 active torsions:
REMARK  status: ('A' for Active; 'I' for Inactive)
REMARK    1  A    between atoms: C_1  and  C_13
REMARK    2  A    between atoms: C_2  and  C_7
REMARK    3  A    between atoms: C_13  and  C_16
REMARK                            x       y       z     vdW  Elec       q    Type
REMARK                         _______ _______ _______ _____ _____    ______ ____
ROOT
ATOM      1  C   UNL     1      34.864 -17.375 -23.398  0.00  0.00    -0.013 C 
ATOM      2  C   UNL     1      34.751 -19.391 -21.472  0.00  0.00    -0.000 C 
ATOM      3  C   UNL     1      35.381 -17.150 -22.121  0.00  0.00    -0.004 C 
ATOM      4  C   UNL     1      34.291 -18.607 -23.711  0.00  0.00    -0.004 C 
ATOM      5  C   UNL     1      35.324 -18.158 -21.159  0.00  0.00    -0.000 C 
ATOM      6  C   UNL     1      34.234 -19.615 -22.748  0.00  0.00    -0.000 C 
ENDROOT
BRANCH   2   7
ATOM      7  C   UNL     1      34.691 -20.436 -20.473  0.00  0.00    -0.000 C 
ATOM      8  C   UNL     1      35.869 -20.969 -19.950  0.00  0.00    -0.000 C 
ATOM      9  C   UNL     1      33.456 -20.910 -20.034  0.00  0.00    -0.000 C 
ATOM     10  C   UNL     1      35.812 -21.976 -18.987  0.00  0.00    +0.000 C 
ATOM     11  C   UNL     1      33.397 -21.918 -19.070  0.00  0.00    +0.000 C 
ATOM     12  C   UNL     1      34.576 -22.450 -18.547  0.00  0.00    +0.000 C 
ENDBRANCH   2   7
BRANCH   1  13
ATOM     13  C   UNL     1      34.925 -16.297 -24.427  0.00  0.00    +0.112 C 
BRANCH  13  16
ATOM     14  O   UNL     1      33.576 -14.384 -25.001  0.00  0.00    -0.274 OA
ATOM     15  N   UNL     1      33.872 -14.943 -22.740  0.00  0.00    -0.269 N 
ATOM     16  C   UNL     1      34.044 -15.091 -24.114  0.00  0.00    +0.232 C 
ATOM     17  H   UNL     1      34.324 -15.608 -22.171  0.00  0.00    +0.156 HD
ATOM     18  N   UNL     1      33.090 -13.990 -20.722  0.00  0.00    -0.229 NA
ATOM     19  C   UNL     1      33.124 -13.949 -22.066  0.00  0.00    +0.134 C 
ATOM     20  C   UNL     1      32.484 -13.012 -22.849  0.00  0.00    +0.034 C 
ATOM     21  C   UNL     1      31.746 -12.032 -22.196  0.00  0.00    +0.004 C 
ATOM     22  C   UNL     1      31.678 -12.029 -20.807  0.00  0.00    +0.021 C 
ATOM     23  C   UNL     1      32.362 -13.021 -20.123  0.00  0.00    +0.100 C 
ENDBRANCH  13  16
ENDBRANCH   1  13
TORSDOF 3
ENDMDL
MODEL 2
REMARK VINA RESULT:     -12.1      2.226      3.670
REMARK  Name = 100472
REMARK  3 active torsions:
REMARK  status: ('A' for Active; 'I' for Inactive)
REMARK    1  A    between atoms: C_1  and  C_13
REMARK    2  A    between atoms: C_2  and  C_7
REMARK    3  A    between atoms: C_13  and  C_16
REMARK                            x       y       z     vdW  Elec       q    Type
REMARK                         _______ _______ _______ _____ _____    ______ ____
ROOT
ATOM      1  C   UNL     1      35.180 -20.108 -21.373  0.00  0.00    -0.013 C 
ATOM      2  C   UNL     1      34.537 -21.589 -19.097  0.00  0.00    -0.000 C 
ATOM      3  C   UNL     1      36.192 -20.694 -20.612  0.00  0.00    -0.004 C 
ATOM      4  C   UNL     1      33.846 -20.263 -20.995  0.00  0.00    -0.004 C 
ATOM      5  C   UNL     1      35.871 -21.434 -19.475  0.00  0.00    -0.000 C 
ATOM      6  C   UNL     1      33.525 -21.003 -19.858  0.00  0.00    -0.000 C 
ENDROOT
BRANCH   2   7
ATOM      7  C   UNL     1      34.203 -22.356 -17.917  0.00  0.00    -0.000 C 
ATOM      8  C   UNL     1      35.194 -22.678 -16.990  0.00  0.00    -0.000 C 
ATOM      9  C   UNL     1      32.889 -22.775 -17.707  0.00  0.00    -0.000 C 
ATOM     10  C   UNL     1      34.872 -23.417 -15.852  0.00  0.00    +0.000 C 
ATOM     11  C   UNL     1      32.566 -23.514 -16.568  0.00  0.00    +0.000 C 
ATOM     12  C   UNL     1      33.559 -23.834 -15.641  0.00  0.00    +0.000 C 
ENDBRANCH   2   7
BRANCH   1  13
ATOM     13  C   UNL     1      35.524 -19.317 -22.589  0.00  0.00    +0.112 C 
BRANCH  13  16
ATOM     14  O   UNL     1      35.262 -17.208 -21.451  0.00  0.00    -0.274 OA
ATOM     15  N   UNL     1      34.678 -17.369 -23.720  0.00  0.00    -0.269 N 
ATOM     16  C   UNL     1      35.145 -17.841 -22.496  0.00  0.00    +0.232 C 
ATOM     17  H   UNL     1      34.652 -18.022 -24.457  0.00  0.00    +0.156 HD
ATOM     18  N   UNL     1      33.821 -15.816 -25.285  0.00  0.00    -0.229 NA
ATOM     19  C   UNL     1      34.235 -16.061 -24.029  0.00  0.00    +0.134 C 
ATOM     20  C   UNL     1      34.268 -15.135 -23.008  0.00  0.00    +0.034 C 
ATOM     21  C   UNL     1      33.836 -13.847 -23.300  0.00  0.00    +0.004 C 
ATOM     22  C   UNL     1      33.398 -13.541 -24.584  0.00  0.00    +0.021 C 
ATOM     23  C   UNL     1      33.410 -14.552 -25.532  0.00  0.00    +0.100 C 
ENDBRANCH  13  16
ENDBRANCH   1  13
TORSDOF 3
ENDMDL
MODEL 3
REMARK VINA RESULT:     -12.0      5.071      9.101
REMARK  Name = 100472
REMARK  3 active torsions:
REMARK  status: ('A' for Active; 'I' for Inactive)
REMARK    1  A    between atoms: C_1  and  C_13
REMARK    2  A    between atoms: C_2  and  C_7
REMARK    3  A    between atoms: C_13  and  C_16
REMARK                            x       y       z     vdW  Elec       q    Type
REMARK                         _______ _______ _______ _____ _____    ______ ____
ROOT
ATOM      1  C   UNL     1      34.729 -21.794 -19.072  0.00  0.00    -0.013 C 
ATOM      2  C   UNL     1      34.750 -19.828 -21.052  0.00  0.00    -0.000 C 
ATOM      3  C   UNL     1      33.526 -21.310 -19.588  0.00  0.00    -0.004 C 
ATOM      4  C   UNL     1      35.942 -21.295 -19.547  0.00  0.00    -0.004 C 
ATOM      5  C   UNL     1      33.537 -20.327 -20.578  0.00  0.00    -0.000 C 
ATOM      6  C   UNL     1      35.953 -20.312 -20.536  0.00  0.00    -0.000 C 
ENDROOT
BRANCH   2   7
ATOM      7  C   UNL     1      34.761 -18.808 -22.078  0.00  0.00    -0.000 C 
ATOM      8  C   UNL     1      34.324 -19.110 -23.367  0.00  0.00    -0.000 C 
ATOM      9  C   UNL     1      35.211 -17.523 -21.778  0.00  0.00    -0.000 C 
ATOM     10  C   UNL     1      34.334 -18.127 -24.356  0.00  0.00    +0.000 C 
ATOM     11  C   UNL     1      35.221 -16.538 -22.766  0.00  0.00    +0.000 C 
ATOM     12  C   UNL     1      34.782 -16.842 -24.056  0.00  0.00    +0.000 C 
ENDBRANCH   2   7
BRANCH   1  13
ATOM     13  C   UNL     1      34.717 -22.845 -18.014  0.00  0.00    +0.112 C 
BRANCH  13  16
ATOM     14  O   UNL     1      32.314 -22.688 -17.899  0.00  0.00    -0.274 OA
ATOM     15  N   UNL     1      33.487 -23.671 -16.118  0.00  0.00    -0.269 N 
ATOM     16  C   UNL     1      33.354 -23.047 -17.356  0.00  0.00    +0.232 C 
ATOM     17  H   UNL     1      34.406 -23.890 -15.838  0.00  0.00    +0.156 HD
ATOM     18  N   UNL     1      32.807 -24.625 -14.064  0.00  0.00    -0.229 NA
ATOM     19  C   UNL     1      32.457 -24.025 -15.215  0.00  0.00    +0.134 C 
ATOM     20  C   UNL     1      31.166 -23.726 -15.596  0.00  0.00    +0.034 C 
ATOM     21  C   UNL     1      30.146 -24.071 -14.716  0.00  0.00    +0.004 C 
ATOM     22  C   UNL     1      30.454 -24.693 -13.512  0.00  0.00    +0.021 C 
ATOM     23  C   UNL     1      31.788 -24.946 -13.235  0.00  0.00    +0.100 C 
ENDBRANCH  13  16
ENDBRANCH   1  13
TORSDOF 3
ENDMDL
MODEL 4
REMARK VINA RESULT:     -11.9      2.355      4.277
REMARK  Name = 100472
REMARK  3 active torsions:
REMARK  status: ('A' for Active; 'I' for Inactive)
REMARK    1  A    between atoms: C_1  and  C_13
REMARK    2  A    between atoms: C_2  and  C_7
REMARK    3  A    between atoms: C_13  and  C_16
REMARK                            x       y       z     vdW  Elec       q    Type
REMARK                         _______ _______ _______ _____ _____    ______ ____
ROOT
ATOM      1  C   UNL     1      35.252 -20.516 -20.655  0.00  0.00    -0.013 C 
ATOM      2  C   UNL     1      34.237 -21.958 -18.492  0.00  0.00    -0.000 C 
ATOM      3  C   UNL     1      33.874 -20.586 -20.447  0.00  0.00    -0.004 C 
ATOM      4  C   UNL     1      36.122 -21.167 -19.780  0.00  0.00    -0.004 C 
ATOM      5  C   UNL     1      33.367 -21.307 -19.366  0.00  0.00    -0.000 C 
ATOM      6  C   UNL     1      35.615 -21.888 -18.699  0.00  0.00    -0.000 C 
ENDROOT
BRANCH   2   7
ATOM      7  C   UNL     1      33.711 -22.706 -17.371  0.00  0.00    -0.000 C 
ATOM      8  C   UNL     1      34.582 -23.269 -16.438  0.00  0.00    -0.000 C 
ATOM      9  C   UNL     1      32.334 -22.864 -17.223  0.00  0.00    -0.000 C 
ATOM     10  C   UNL     1      34.075 -23.990 -15.357  0.00  0.00    +0.000 C 
ATOM     11  C   UNL     1      31.826 -23.584 -16.142  0.00  0.00    +0.000 C 
ATOM     12  C   UNL     1      32.697 -24.147 -15.209  0.00  0.00    +0.000 C 
ENDBRANCH   2   7
BRANCH   1  13
ATOM     13  C   UNL     1      35.794 -19.745 -21.811  0.00  0.00    +0.112 C 
BRANCH  13  16
ATOM     14  O   UNL     1      35.429 -17.580 -20.817  0.00  0.00    -0.274 OA
ATOM     15  N   UNL     1      34.963 -17.890 -23.097  0.00  0.00    -0.269 N 
ATOM     16  C   UNL     1      35.379 -18.277 -21.826  0.00  0.00    +0.232 C 
ATOM     17  H   UNL     1      34.988 -18.586 -23.794  0.00  0.00    +0.156 HD
ATOM     18  N   UNL     1      34.151 -16.455 -24.793  0.00  0.00    -0.229 NA
ATOM     19  C   UNL     1      34.508 -16.614 -23.506  0.00  0.00    +0.134 C 
ATOM     20  C   UNL     1      34.469 -15.629 -22.542  0.00  0.00    +0.034 C 
ATOM     21  C   UNL     1      34.024 -14.371 -22.933  0.00  0.00    +0.004 C 
ATOM     22  C   UNL     1      33.644 -14.154 -24.253  0.00  0.00    +0.021 C 
ATOM     23  C   UNL     1      33.725 -15.218 -25.136  0.00  0.00    +0.100 C 
ENDBRANCH  13  16
ENDBRANCH   1  13
TORSDOF 3
ENDMDL
MODEL 5
REMARK VINA RESULT:     -11.7      4.889      8.572
REMARK  Name = 100472
REMARK  3 active torsions:
REMARK  status: ('A' for Active; 'I' for Inactive)
REMARK    1  A    between atoms: C_1  and  C_13
REMARK    2  A    between atoms: C_2  and  C_7
REMARK    3  A    between atoms: C_13  and  C_16
REMARK                            x       y       z     vdW  Elec       q    Type
REMARK                         _______ _______ _______ _____ _____    ______ ____
ROOT
ATOM      1  C   UNL     1      34.378 -22.385 -19.042  0.00  0.00    -0.013 C 
ATOM      2  C   UNL     1      34.630 -20.137 -20.675  0.00  0.00    -0.000 C 
ATOM      3  C   UNL     1      35.643 -21.943 -19.432  0.00  0.00    -0.004 C 
ATOM      4  C   UNL     1      33.239 -21.702 -19.470  0.00  0.00    -0.004 C 
ATOM      5  C   UNL     1      35.769 -20.820 -20.248  0.00  0.00    -0.000 C 
ATOM      6  C   UNL     1      33.365 -20.578 -20.286  0.00  0.00    -0.000 C 
ENDROOT
BRANCH   2   7
ATOM      7  C   UNL     1      34.761 -18.971 -21.523  0.00  0.00    -0.000 C 
ATOM      8  C   UNL     1      35.089 -17.736 -20.965  0.00  0.00    -0.000 C 
ATOM      9  C   UNL     1      34.558 -19.083 -22.898  0.00  0.00    -0.000 C 
ATOM     10  C   UNL     1      35.215 -16.613 -21.782  0.00  0.00    +0.000 C 
ATOM     11  C   UNL     1      34.684 -17.960 -23.716  0.00  0.00    +0.000 C 
ATOM     12  C   UNL     1      35.013 -16.725 -23.157  0.00  0.00    +0.000 C 
ENDBRANCH   2   7
BRANCH   1  13
ATOM     13  C   UNL     1      34.244 -23.587 -18.169  0.00  0.00    +0.112 C 
BRANCH  13  16
ATOM     14  O   UNL     1      33.922 -23.239 -15.806  0.00  0.00    -0.274 OA
ATOM     15  N   UNL     1      32.051 -23.285 -17.225  0.00  0.00    -0.269 N 
ATOM     16  C   UNL     1      33.407 -23.350 -16.914  0.00  0.00    +0.232 C 
ATOM     17  H   UNL     1      31.817 -23.397 -18.175  0.00  0.00    +0.156 HD
ATOM     18  N   UNL     1      29.728 -23.050 -16.848  0.00  0.00    -0.229 NA
ATOM     19  C   UNL     1      30.971 -23.078 -16.335  0.00  0.00    +0.134 C 
ATOM     20  C   UNL     1      31.284 -22.918 -15.002  0.00  0.00    +0.034 C 
ATOM     21  C   UNL     1      30.230 -22.713 -14.119  0.00  0.00    +0.004 C 
ATOM     22  C   UNL     1      28.926 -22.675 -14.599  0.00  0.00    +0.021 C 
ATOM     23  C   UNL     1      28.730 -22.847 -15.960  0.00  0.00    +0.100 C 
ENDBRANCH  13  16
ENDBRANCH   1  13
TORSDOF 3
ENDMDL
MODEL 6
REMARK VINA RESULT:     -11.6      2.627      8.005
REMARK  Name = 100472
REMARK  3 active torsions:
REMARK  status: ('A' for Active; 'I' for Inactive)
REMARK    1  A    between atoms: C_1  and  C_13
REMARK    2  A    between atoms: C_2  and  C_7
REMARK    3  A    between atoms: C_13  and  C_16
REMARK                            x       y       z     vdW  Elec       q    Type
REMARK                         _______ _______ _______ _____ _____    ______ ____
ROOT
ATOM      1  C   UNL     1      35.135 -16.877 -22.438  0.00  0.00    -0.013 C 
ATOM      2  C   UNL     1      33.825 -14.414 -22.418  0.00  0.00    -0.000 C 
ATOM      3  C   UNL     1      34.704 -16.306 -23.636  0.00  0.00    -0.004 C 
ATOM      4  C   UNL     1      34.910 -16.216 -21.230  0.00  0.00    -0.004 C 
ATOM      5  C   UNL     1      34.050 -15.075 -23.626  0.00  0.00    -0.000 C 
ATOM      6  C   UNL     1      34.255 -14.985 -21.220  0.00  0.00    -0.000 C 
ENDROOT
BRANCH   2   7
ATOM      7  C   UNL     1      33.145 -13.137 -22.408  0.00  0.00    -0.000 C 
ATOM      8  C   UNL     1      32.120 -12.900 -21.493  0.00  0.00    -0.000 C 
ATOM      9  C   UNL     1      33.515 -12.143 -23.314  0.00  0.00    -0.000 C 
ATOM     10  C   UNL     1      31.464 -11.668 -21.482  0.00  0.00    +0.000 C 
ATOM     11  C   UNL     1      32.860 -10.911 -23.304  0.00  0.00    +0.000 C 
ATOM     12  C   UNL     1      31.835 -10.675 -22.387  0.00  0.00    +0.000 C 
ENDBRANCH   2   7
BRANCH   1  13
ATOM     13  C   UNL     1      35.836 -18.194 -22.448  0.00  0.00    +0.112 C 
BRANCH  13  16
ATOM     14  O   UNL     1      33.980 -19.659 -21.977  0.00  0.00    -0.274 OA
ATOM     15  N   UNL     1      35.898 -19.764 -20.627  0.00  0.00    -0.269 N 
ATOM     16  C   UNL     1      35.109 -19.289 -21.671  0.00  0.00    +0.232 C 
ATOM     17  H   UNL     1      36.786 -19.348 -20.527  0.00  0.00    +0.156 HD
ATOM     18  N   UNL     1      36.487 -21.083 -18.754  0.00  0.00    -0.229 NA
ATOM     19  C   UNL     1      35.573 -20.774 -19.690  0.00  0.00    +0.134 C 
ATOM     20  C   UNL     1      34.335 -21.367 -19.818  0.00  0.00    +0.034 C 
ATOM     21  C   UNL     1      34.006 -22.360 -18.904  0.00  0.00    +0.004 C 
ATOM     22  C   UNL     1      34.917 -22.717 -17.915  0.00  0.00    +0.021 C 
ATOM     23  C   UNL     1      36.133 -22.054 -17.884  0.00  0.00    +0.100 C 
ENDBRANCH  13  16
ENDBRANCH   1  13
TORSDOF 3
ENDMDL
MODEL 7
REMARK VINA RESULT:     -11.5      5.352      9.575
REMARK  Name = 100472
REMARK  3 active torsions:
REMARK  status: ('A' for Active; 'I' for Inactive)
REMARK    1  A    between atoms: C_1  and  C_13
REMARK    2  A    between atoms: C_2  and  C_7
REMARK    3  A    between atoms: C_13  and  C_16
REMARK                            x       y       z     vdW  Elec       q    Type
REMARK                         _______ _______ _______ _____ _____    ______ ____
ROOT
ATOM      1  C   UNL     1      34.065 -22.202 -18.722  0.00  0.00    -0.013 C 
ATOM      2  C   UNL     1      34.431 -20.237 -20.669  0.00  0.00    -0.000 C 
ATOM      3  C   UNL     1      32.965 -21.510 -19.231  0.00  0.00    -0.004 C 
ATOM      4  C   UNL     1      35.347 -21.910 -19.187  0.00  0.00    -0.004 C 
ATOM      5  C   UNL     1      33.148 -20.528 -20.204  0.00  0.00    -0.000 C 
ATOM      6  C   UNL     1      35.531 -20.929 -20.160  0.00  0.00    -0.000 C 
ENDROOT
BRANCH   2   7
ATOM      7  C   UNL     1      34.621 -19.217 -21.678  0.00  0.00    -0.000 C 
ATOM      8  C   UNL     1      34.254 -19.467 -23.000  0.00  0.00    -0.000 C 
ATOM      9  C   UNL     1      35.173 -17.985 -21.329  0.00  0.00    -0.000 C 
ATOM     10  C   UNL     1      34.437 -18.485 -23.973  0.00  0.00    +0.000 C 
ATOM     11  C   UNL     1      35.356 -17.001 -22.301  0.00  0.00    +0.000 C 
ATOM     12  C   UNL     1      34.987 -17.252 -23.623  0.00  0.00    +0.000 C 
ENDBRANCH   2   7
BRANCH   1  13
ATOM     13  C   UNL     1      33.869 -23.252 -17.681  0.00  0.00    +0.112 C 
BRANCH  13  16
ATOM     14  O   UNL     1      36.022 -22.760 -16.717  0.00  0.00    -0.274 OA
ATOM     15  N   UNL     1      34.346 -23.697 -15.366  0.00  0.00    -0.269 N 
ATOM     16  C   UNL     1      34.889 -23.198 -16.547  0.00  0.00    +0.232 C 
ATOM     17  H   UNL     1      33.413 -24.008 -15.413  0.00  0.00    +0.156 HD
ATOM     18  N   UNL     1      34.267 -24.324 -13.087  0.00  0.00    -0.229 NA
ATOM     19  C   UNL     1      34.979 -23.809 -14.105  0.00  0.00    +0.134 C 
ATOM     20  C   UNL     1      36.285 -23.375 -14.023  0.00  0.00    +0.034 C 
ATOM     21  C   UNL     1      36.915 -23.480 -12.789  0.00  0.00    +0.004 C 
ATOM     22  C   UNL     1      36.223 -24.005 -11.703  0.00  0.00    +0.021 C 
ATOM     23  C   UNL     1      34.913 -24.408 -11.902  0.00  0.00    +0.100 C 
ENDBRANCH  13  16
ENDBRANCH   1  13
TORSDOF 3
ENDMDL
MODEL 8
REMARK VINA RESULT:     -11.5      5.754     10.180
REMARK  Name = 100472
REMARK  3 active torsions:
REMARK  status: ('A' for Active; 'I' for Inactive)
REMARK    1  A    between atoms: C_1  and  C_13
REMARK    2  A    between atoms: C_2  and  C_7
REMARK    3  A    between atoms: C_13  and  C_16
REMARK                            x       y       z     vdW  Elec       q    Type
REMARK                         _______ _______ _______ _____ _____    ______ ____
ROOT
ATOM      1  C   UNL     1      34.055 -22.520 -18.215  0.00  0.00    -0.013 C 
ATOM      2  C   UNL     1      34.464 -20.632 -20.228  0.00  0.00    -0.000 C 
ATOM      3  C   UNL     1      32.964 -21.879 -18.802  0.00  0.00    -0.004 C 
ATOM      4  C   UNL     1      35.350 -22.217 -18.634  0.00  0.00    -0.004 C 
ATOM      5  C   UNL     1      33.169 -20.935 -19.808  0.00  0.00    -0.000 C 
ATOM      6  C   UNL     1      35.555 -21.273 -19.640  0.00  0.00    -0.000 C 
ENDROOT
BRANCH   2   7
ATOM      7  C   UNL     1      34.677 -19.652 -21.271  0.00  0.00    -0.000 C 
ATOM      8  C   UNL     1      34.207 -19.895 -22.562  0.00  0.00    -0.000 C 
ATOM      9  C   UNL     1      35.351 -18.466 -20.986  0.00  0.00    -0.000 C 
ATOM     10  C   UNL     1      34.412 -18.950 -23.568  0.00  0.00    +0.000 C 
ATOM     11  C   UNL     1      35.556 -17.520 -21.991  0.00  0.00    +0.000 C 
ATOM     12  C   UNL     1      35.085 -17.763 -23.282  0.00  0.00    +0.000 C 
ENDBRANCH   2   7
BRANCH   1  13
ATOM     13  C   UNL     1      33.836 -23.529 -17.139  0.00  0.00    +0.112 C 
BRANCH  13  16
ATOM     14  O   UNL     1      35.235 -22.390 -15.540  0.00  0.00    -0.274 OA
ATOM     15  N   UNL     1      35.260 -24.737 -15.622  0.00  0.00    -0.269 N 
ATOM     16  C   UNL     1      34.858 -23.461 -16.007  0.00  0.00    +0.232 C 
ATOM     17  H   UNL     1      34.852 -25.488 -16.110  0.00  0.00    +0.156 HD
ATOM     18  N   UNL     1      36.436 -26.386 -14.400  0.00  0.00    -0.229 NA
ATOM     19  C   UNL     1      36.189 -25.081 -14.611  0.00  0.00    +0.134 C 
ATOM     20  C   UNL     1      36.769 -24.040 -13.917  0.00  0.00    +0.034 C 
ATOM     21  C   UNL     1      37.682 -24.367 -12.922  0.00  0.00    +0.004 C 
ATOM     22  C   UNL     1      37.972 -25.702 -12.663  0.00  0.00    +0.021 C 
ATOM     23  C   UNL     1      37.328 -26.664 -13.423  0.00  0.00    +0.100 C 
ENDBRANCH  13  16
ENDBRANCH   1  13
TORSDOF 3
ENDMDL
MODEL 9
REMARK VINA RESULT:     -11.4      3.504      8.185
REMARK  Name = 100472
REMARK  3 active torsions:
REMARK  status: ('A' for Active; 'I' for Inactive)
REMARK    1  A    between atoms: C_1  and  C_13
REMARK    2  A    between atoms: C_2  and  C_7
REMARK    3  A    between atoms: C_13  and  C_16
REMARK                            x       y       z     vdW  Elec       q    Type
REMARK                         _______ _______ _______ _____ _____    ______ ____
ROOT
ATOM      1  C   UNL     1      35.385 -19.185 -21.634  0.00  0.00    -0.013 C 
ATOM      2  C   UNL     1      34.655 -16.829 -22.938  0.00  0.00    -0.000 C 
ATOM      3  C   UNL     1      34.941 -19.228 -22.956  0.00  0.00    -0.004 C 
ATOM      4  C   UNL     1      35.464 -17.964 -20.964  0.00  0.00    -0.004 C 
ATOM      5  C   UNL     1      34.576 -18.050 -23.608  0.00  0.00    -0.000 C 
ATOM      6  C   UNL     1      35.099 -16.786 -21.616  0.00  0.00    -0.000 C 
ENDROOT
BRANCH   2   7
ATOM      7  C   UNL     1      34.276 -15.607 -23.613  0.00  0.00    -0.000 C 
ATOM      8  C   UNL     1      33.772 -15.655 -24.912  0.00  0.00    -0.000 C 
ATOM      9  C   UNL     1      34.414 -14.380 -22.964  0.00  0.00    -0.000 C 
ATOM     10  C   UNL     1      33.405 -14.477 -25.563  0.00  0.00    +0.000 C 
ATOM     11  C   UNL     1      34.048 -13.201 -23.614  0.00  0.00    +0.000 C 
ATOM     12  C   UNL     1      33.543 -13.251 -24.914  0.00  0.00    +0.000 C 
ENDBRANCH   2   7
BRANCH   1  13
ATOM     13  C   UNL     1      35.776 -20.445 -20.938  0.00  0.00    +0.112 C 
BRANCH  13  16
ATOM     14  O   UNL     1      33.482 -20.905 -20.356  0.00  0.00    -0.274 OA
ATOM     15  N   UNL     1      35.202 -21.735 -18.990  0.00  0.00    -0.269 N 
ATOM     16  C   UNL     1      34.669 -21.045 -20.076  0.00  0.00    +0.232 C 
ATOM     17  H   UNL     1      36.185 -21.745 -18.921  0.00  0.00    +0.156 HD
ATOM     18  N   UNL     1      35.213 -23.028 -17.010  0.00  0.00    -0.229 NA
ATOM     19  C   UNL     1      34.497 -22.424 -17.974  0.00  0.00    +0.134 C 
ATOM     20  C   UNL     1      33.121 -22.420 -18.059  0.00  0.00    +0.034 C 
ATOM     21  C   UNL     1      32.420 -23.095 -17.067  0.00  0.00    +0.004 C 
ATOM     22  C   UNL     1      33.113 -23.737 -16.046  0.00  0.00    +0.021 C 
ATOM     23  C   UNL     1      34.496 -23.675 -16.063  0.00  0.00    +0.100 C 
ENDBRANCH  13  16
ENDBRANCH   1  13
TORSDOF 3
ENDMDL
