MODEL 1
REMARK VINA RESULT:     -12.1      0.000      0.000
REMARK  Name = 447736
REMARK  4 active torsions:
REMARK  status: ('A' for Active; 'I' for Inactive)
REMARK    1  A    between atoms: N_2  and  C_13
REMARK    2  A    between atoms: C_3  and  C_20
REMARK    3  A    between atoms: C_6  and  C_17
REMARK    4  A    between atoms: C_28  and  C_32
REMARK                            x       y       z     vdW  Elec       q    Type
REMARK                         _______ _______ _______ _____ _____    ______ ____
ROOT
ATOM      1  O   UNL     1      33.862 -24.187 -17.712  0.00  0.00    -0.270 OA
ATOM      2  N   UNL     1      34.831 -22.550 -16.331  0.00  0.00    -0.280 N 
ATOM      3  C   UNL     1      34.264 -23.046 -17.513  0.00  0.00    +0.249 C 
ATOM      4  H   UNL     1      35.102 -21.603 -16.346  0.00  0.00    +0.155 HD
ENDROOT
BRANCH   2  13
ATOM      5  N   UNL     1      38.043 -25.800 -12.151  0.00  0.00    +0.388 N 
ATOM      6  C   UNL     1      38.005 -24.843 -13.275  0.00  0.00    -0.039 C 
ATOM      7  C   UNL     1      36.599 -24.378 -13.633  0.00  0.00    -0.045 C 
ATOM      8  C   UNL     1      35.536 -24.571 -12.728  0.00  0.00    -0.030 C 
ATOM      9  C   UNL     1      35.758 -25.295 -11.424  0.00  0.00    +0.003 C 
ATOM     10  C   UNL     1      37.233 -25.324 -11.031  0.00  0.00    -0.076 C 
ATOM     11  C   UNL     1      36.347 -23.681 -14.826  0.00  0.00    +0.008 C 
ATOM     12  C   UNL     1      34.246 -24.128 -13.054  0.00  0.00    -0.003 C 
ATOM     13  C   UNL     1      35.061 -23.233 -15.136  0.00  0.00    +0.050 C 
ATOM     14  C   UNL     1      34.010 -23.461 -14.254  0.00  0.00    +0.014 C 
ATOM     15  H   UNL     1      39.008 -25.912 -11.840  0.00  0.00    -0.084 HD
ATOM     16  H   UNL     1      37.664 -26.692 -12.469  0.00  0.00    -0.084 HD
BRANCH   6  17
ATOM     17  C   UNL     1      38.738 -25.512 -14.444  0.00  0.00    -0.015 C 
ATOM     18  C   UNL     1      40.235 -25.581 -14.162  0.00  0.00    -0.002 C 
ATOM     19  C   UNL     1      38.170 -26.903 -14.700  0.00  0.00    -0.002 C 
ENDBRANCH   6  17
ENDBRANCH   2  13
BRANCH   3  20
ATOM     20  C   UNL     1      34.178 -22.074 -18.633  0.00  0.00    +0.054 C 
ATOM     21  C   UNL     1      35.277 -20.587 -20.172  0.00  0.00    +0.000 C 
ATOM     22  C   UNL     1      35.342 -21.509 -19.113  0.00  0.00    +0.005 C 
ATOM     23  C   UNL     1      34.017 -20.255 -20.726  0.00  0.00    +0.000 C 
ATOM     24  C   UNL     1      32.942 -21.768 -19.153  0.00  0.00    +0.005 C 
ATOM     25  C   UNL     1      32.859 -20.855 -20.204  0.00  0.00    +0.000 C 
ATOM     26  C   UNL     1      33.954 -19.334 -21.783  0.00  0.00    +0.003 C 
ATOM     27  C   UNL     1      36.435 -19.988 -20.692  0.00  0.00    +0.000 C 
ATOM     28  C   UNL     1      35.114 -18.749 -22.288  0.00  0.00    +0.031 C 
ATOM     29  C   UNL     1      36.353 -19.075 -21.744  0.00  0.00    +0.003 C 
BRANCH  28  32
ATOM     30  N   UNL     1      35.568 -16.514 -23.273  0.00  0.00    -0.343 N 
ATOM     31  N   UNL     1      34.433 -18.139 -24.511  0.00  0.00    -0.285 NA
ATOM     32  C   UNL     1      35.031 -17.795 -23.384  0.00  0.00    +0.117 C 
ATOM     33  H   UNL     1      35.502 -15.885 -24.027  0.00  0.00    +0.144 HD
ATOM     34  H   UNL     1      36.015 -16.239 -22.440  0.00  0.00    +0.144 HD
ATOM     35  H   UNL     1      34.376 -17.495 -25.253  0.00  0.00    +0.188 HD
ENDBRANCH  28  32
ENDBRANCH   3  20
TORSDOF 4
ENDMDL
MODEL 2
REMARK VINA RESULT:     -11.3      8.973     15.790
REMARK  Name = 447736
REMARK  4 active torsions:
REMARK  status: ('A' for Active; 'I' for Inactive)
REMARK    1  A    between atoms: N_2  and  C_13
REMARK    2  A    between atoms: C_3  and  C_20
REMARK    3  A    between atoms: C_6  and  C_17
REMARK    4  A    between atoms: C_28  and  C_32
REMARK                            x       y       z     vdW  Elec       q    Type
REMARK                         _______ _______ _______ _____ _____    ______ ____
ROOT
ATOM      1  O   UNL     1      31.130 -11.229 -22.133  0.00  0.00    -0.270 OA
ATOM      2  N   UNL     1      33.183 -10.157 -22.540  0.00  0.00    -0.280 N 
ATOM      3  C   UNL     1      32.323 -11.256 -22.419  0.00  0.00    +0.249 C 
ATOM      4  H   UNL     1      34.116 -10.362 -22.776  0.00  0.00    +0.155 HD
ENDROOT
BRANCH   2  13
ATOM      5  N   UNL     1      32.384  -4.237 -24.174  0.00  0.00    +0.388 N 
ATOM      6  C   UNL     1      32.407  -5.671 -24.526  0.00  0.00    -0.039 C 
ATOM      7  C   UNL     1      32.514  -6.594 -23.319  0.00  0.00    -0.045 C 
ATOM      8  C   UNL     1      32.238  -6.106 -22.026  0.00  0.00    -0.030 C 
ATOM      9  C   UNL     1      31.896  -4.654 -21.809  0.00  0.00    +0.003 C 
ATOM     10  C   UNL     1      31.430  -3.979 -23.097  0.00  0.00    -0.076 C 
ATOM     11  C   UNL     1      32.809  -7.958 -23.472  0.00  0.00    +0.008 C 
ATOM     12  C   UNL     1      32.323  -6.962 -20.918  0.00  0.00    -0.003 C 
ATOM     13  C   UNL     1      32.879  -8.806 -22.365  0.00  0.00    +0.050 C 
ATOM     14  C   UNL     1      32.643  -8.307 -21.088  0.00  0.00    +0.014 C 
ATOM     15  H   UNL     1      32.113  -3.696 -24.995  0.00  0.00    -0.084 HD
ATOM     16  H   UNL     1      33.314  -3.964 -23.856  0.00  0.00    -0.084 HD
BRANCH   6  17
ATOM     17  C   UNL     1      33.548  -5.856 -25.534  0.00  0.00    -0.015 C 
ATOM     18  C   UNL     1      33.427  -4.840 -26.665  0.00  0.00    -0.002 C 
ATOM     19  C   UNL     1      34.897  -5.731 -24.836  0.00  0.00    -0.002 C 
ENDBRANCH   6  17
ENDBRANCH   2  13
BRANCH   3  20
ATOM     20  C   UNL     1      32.953 -12.584 -22.639  0.00  0.00    +0.054 C 
ATOM     21  C   UNL     1      33.966 -14.569 -21.734  0.00  0.00    +0.000 C 
ATOM     22  C   UNL     1      33.367 -13.313 -21.543  0.00  0.00    +0.005 C 
ATOM     23  C   UNL     1      34.134 -15.063 -23.050  0.00  0.00    +0.000 C 
ATOM     24  C   UNL     1      33.105 -13.041 -23.927  0.00  0.00    +0.005 C 
ATOM     25  C   UNL     1      33.698 -14.286 -24.136  0.00  0.00    +0.000 C 
ATOM     26  C   UNL     1      34.732 -16.319 -23.241  0.00  0.00    +0.003 C 
ATOM     27  C   UNL     1      34.401 -15.345 -20.649  0.00  0.00    +0.000 C 
ATOM     28  C   UNL     1      35.159 -17.077 -22.150  0.00  0.00    +0.031 C 
ATOM     29  C   UNL     1      34.994 -16.591 -20.856  0.00  0.00    +0.003 C 
BRANCH  28  32
ATOM     30  N   UNL     1      35.084 -19.418 -22.976  0.00  0.00    -0.343 N 
ATOM     31  N   UNL     1      37.023 -18.583 -21.974  0.00  0.00    -0.285 NA
ATOM     32  C   UNL     1      35.778 -18.375 -22.365  0.00  0.00    +0.117 C 
ATOM     33  H   UNL     1      35.523 -20.289 -23.113  0.00  0.00    +0.144 HD
ATOM     34  H   UNL     1      34.155 -19.283 -23.272  0.00  0.00    +0.144 HD
ATOM     35  H   UNL     1      37.444 -19.462 -22.119  0.00  0.00    +0.188 HD
ENDBRANCH  28  32
ENDBRANCH   3  20
TORSDOF 4
ENDMDL
MODEL 3
REMARK VINA RESULT:     -11.2      2.294     10.586
REMARK  Name = 447736
REMARK  4 active torsions:
REMARK  status: ('A' for Active; 'I' for Inactive)
REMARK    1  A    between atoms: N_2  and  C_13
REMARK    2  A    between atoms: C_3  and  C_20
REMARK    3  A    between atoms: C_6  and  C_17
REMARK    4  A    between atoms: C_28  and  C_32
REMARK                            x       y       z     vdW  Elec       q    Type
REMARK                         _______ _______ _______ _____ _____    ______ ____
ROOT
ATOM      1  O   UNL     1      33.376 -21.305 -20.150  0.00  0.00    -0.270 OA
ATOM      2  N   UNL     1      35.335 -20.030 -20.401  0.00  0.00    -0.280 N 
ATOM      3  C   UNL     1      34.509 -20.991 -19.802  0.00  0.00    +0.249 C 
ATOM      4  H   UNL     1      36.221 -19.904 -19.988  0.00  0.00    +0.155 HD
ENDROOT
BRANCH   2  13
ATOM      5  N   UNL     1      34.100 -14.809 -23.493  0.00  0.00    +0.388 N 
ATOM      6  C   UNL     1      34.697 -15.499 -22.332  0.00  0.00    -0.039 C 
ATOM      7  C   UNL     1      34.723 -17.015 -22.470  0.00  0.00    -0.045 C 
ATOM      8  C   UNL     1      34.536 -17.616 -23.732  0.00  0.00    -0.030 C 
ATOM      9  C   UNL     1      34.247 -16.774 -24.949  0.00  0.00    +0.003 C 
ATOM     10  C   UNL     1      34.656 -15.317 -24.746  0.00  0.00    -0.076 C 
ATOM     11  C   UNL     1      35.009 -17.840 -21.370  0.00  0.00    +0.008 C 
ATOM     12  C   UNL     1      34.575 -19.012 -23.859  0.00  0.00    -0.003 C 
ATOM     13  C   UNL     1      35.057 -19.229 -21.509  0.00  0.00    +0.050 C 
ATOM     14  C   UNL     1      34.834 -19.815 -22.750  0.00  0.00    +0.014 C 
ATOM     15  H   UNL     1      34.295 -13.810 -23.424  0.00  0.00    -0.084 HD
ATOM     16  H   UNL     1      33.095 -14.978 -23.491  0.00  0.00    -0.084 HD
BRANCH   6  17
ATOM     17  C   UNL     1      33.931 -15.015 -21.094  0.00  0.00    -0.015 C 
ATOM     18  C   UNL     1      34.883 -14.341 -20.111  0.00  0.00    -0.002 C 
ATOM     19  C   UNL     1      32.810 -14.066 -21.501  0.00  0.00    -0.002 C 
ENDBRANCH   6  17
ENDBRANCH   2  13
BRANCH   3  20
ATOM     20  C   UNL     1      35.080 -21.665 -18.607  0.00  0.00    +0.054 C 
ATOM     21  C   UNL     1      34.773 -23.072 -16.680  0.00  0.00    +0.000 C 
ATOM     22  C   UNL     1      34.248 -22.429 -17.814  0.00  0.00    +0.005 C 
ATOM     23  C   UNL     1      36.146 -22.923 -16.373  0.00  0.00    +0.000 C 
ATOM     24  C   UNL     1      36.418 -21.504 -18.330  0.00  0.00    +0.005 C 
ATOM     25  C   UNL     1      36.955 -22.135 -17.208  0.00  0.00    +0.000 C 
ATOM     26  C   UNL     1      36.670 -23.565 -15.239  0.00  0.00    +0.003 C 
ATOM     27  C   UNL     1      33.964 -23.859 -15.846  0.00  0.00    +0.000 C 
ATOM     28  C   UNL     1      35.851 -24.344 -14.421  0.00  0.00    +0.031 C 
ATOM     29  C   UNL     1      34.501 -24.491 -14.724  0.00  0.00    +0.003 C 
BRANCH  28  32
ATOM     30  N   UNL     1      37.786 -25.085 -13.051  0.00  0.00    -0.343 N 
ATOM     31  N   UNL     1      35.603 -25.540 -12.352  0.00  0.00    -0.285 NA
ATOM     32  C   UNL     1      36.409 -25.003 -13.251  0.00  0.00    +0.117 C 
ATOM     33  H   UNL     1      38.142 -25.534 -12.251  0.00  0.00    +0.144 HD
ATOM     34  H   UNL     1      38.402 -24.692 -13.711  0.00  0.00    +0.144 HD
ATOM     35  H   UNL     1      35.979 -25.986 -11.558  0.00  0.00    +0.188 HD
ENDBRANCH  28  32
ENDBRANCH   3  20
TORSDOF 4
ENDMDL
MODEL 4
REMARK VINA RESULT:     -11.1      1.137      2.617
REMARK  Name = 447736
REMARK  4 active torsions:
REMARK  status: ('A' for Active; 'I' for Inactive)
REMARK    1  A    between atoms: N_2  and  C_13
REMARK    2  A    between atoms: C_3  and  C_20
REMARK    3  A    between atoms: C_6  and  C_17
REMARK    4  A    between atoms: C_28  and  C_32
REMARK                            x       y       z     vdW  Elec       q    Type
REMARK                         _______ _______ _______ _____ _____    ______ ____
ROOT
ATOM      1  O   UNL     1      34.360 -23.577 -17.683  0.00  0.00    -0.270 OA
ATOM      2  N   UNL     1      36.326 -22.408 -17.138  0.00  0.00    -0.280 N 
ATOM      3  C   UNL     1      35.150 -22.656 -17.859  0.00  0.00    +0.249 C 
ATOM      4  H   UNL     1      36.845 -21.619 -17.416  0.00  0.00    +0.155 HD
ENDROOT
BRANCH   2  13
ATOM      5  N   UNL     1      36.245 -25.683 -11.882  0.00  0.00    +0.388 N 
ATOM      6  C   UNL     1      35.569 -25.210 -13.106  0.00  0.00    -0.039 C 
ATOM      7  C   UNL     1      36.500 -24.503 -14.083  0.00  0.00    -0.045 C 
ATOM      8  C   UNL     1      37.897 -24.645 -13.961  0.00  0.00    -0.030 C 
ATOM      9  C   UNL     1      38.492 -25.444 -12.829  0.00  0.00    +0.003 C 
ATOM     10  C   UNL     1      37.476 -26.399 -12.208  0.00  0.00    -0.076 C 
ATOM     11  C   UNL     1      35.993 -23.766 -15.166  0.00  0.00    +0.008 C 
ATOM     12  C   UNL     1      38.751 -24.006 -14.871  0.00  0.00    -0.003 C 
ATOM     13  C   UNL     1      36.852 -23.143 -16.074  0.00  0.00    +0.050 C 
ATOM     14  C   UNL     1      38.230 -23.257 -15.924  0.00  0.00    +0.014 C 
ATOM     15  H   UNL     1      35.619 -26.309 -11.376  0.00  0.00    -0.084 HD
ATOM     16  H   UNL     1      36.482 -24.874 -11.308  0.00  0.00    -0.084 HD
BRANCH   6  17
ATOM     17  C   UNL     1      34.394 -24.335 -12.648  0.00  0.00    -0.015 C 
ATOM     18  C   UNL     1      33.069 -24.973 -13.052  0.00  0.00    -0.002 C 
ATOM     19  C   UNL     1      34.454 -24.115 -11.141  0.00  0.00    -0.002 C 
ENDBRANCH   6  17
ENDBRANCH   2  13
BRANCH   3  20
ATOM     20  C   UNL     1      34.870 -21.703 -18.965  0.00  0.00    +0.054 C 
ATOM     21  C   UNL     1      35.675 -20.109 -20.576  0.00  0.00    +0.000 C 
ATOM     22  C   UNL     1      35.923 -21.015 -19.531  0.00  0.00    +0.005 C 
ATOM     23  C   UNL     1      34.347 -19.920 -21.028  0.00  0.00    +0.000 C 
ATOM     24  C   UNL     1      33.571 -21.537 -19.385  0.00  0.00    +0.005 C 
ATOM     25  C   UNL     1      33.306 -20.642 -20.421  0.00  0.00    +0.000 C 
ATOM     26  C   UNL     1      34.099 -19.015 -22.072  0.00  0.00    +0.003 C 
ATOM     27  C   UNL     1      36.715 -19.388 -21.183  0.00  0.00    +0.000 C 
ATOM     28  C   UNL     1      35.145 -18.307 -22.664  0.00  0.00    +0.031 C 
ATOM     29  C   UNL     1      36.451 -18.493 -22.219  0.00  0.00    +0.003 C 
BRANCH  28  32
ATOM     30  N   UNL     1      35.299 -16.047 -23.682  0.00  0.00    -0.343 N 
ATOM     31  N   UNL     1      34.203 -17.776 -24.809  0.00  0.00    -0.285 NA
ATOM     32  C   UNL     1      34.872 -17.372 -23.744  0.00  0.00    +0.117 C 
ATOM     33  H   UNL     1      35.104 -15.431 -24.425  0.00  0.00    +0.144 HD
ATOM     34  H   UNL     1      35.797 -15.727 -22.895  0.00  0.00    +0.144 HD
ATOM     35  H   UNL     1      34.017 -17.144 -25.542  0.00  0.00    +0.188 HD
ENDBRANCH  28  32
ENDBRANCH   3  20
TORSDOF 4
ENDMDL
MODEL 5
REMARK VINA RESULT:     -11.1      8.861     15.676
REMARK  Name = 447736
REMARK  4 active torsions:
REMARK  status: ('A' for Active; 'I' for Inactive)
REMARK    1  A    between atoms: N_2  and  C_13
REMARK    2  A    between atoms: C_3  and  C_20
REMARK    3  A    between atoms: C_6  and  C_17
REMARK    4  A    between atoms: C_28  and  C_32
REMARK                            x       y       z     vdW  Elec       q    Type
REMARK                         _______ _______ _______ _____ _____    ______ ____
ROOT
ATOM      1  O   UNL     1      30.682 -11.299 -21.983  0.00  0.00    -0.270 OA
ATOM      2  N   UNL     1      32.770 -10.219 -21.964  0.00  0.00    -0.280 N 
ATOM      3  C   UNL     1      31.903 -11.317 -21.875  0.00  0.00    +0.249 C 
ATOM      4  H   UNL     1      33.729 -10.416 -21.851  0.00  0.00    +0.155 HD
ENDROOT
BRANCH   2  13
ATOM      5  N   UNL     1      32.577  -4.841 -25.027  0.00  0.00    +0.388 N 
ATOM      6  C   UNL     1      32.691  -6.313 -25.030  0.00  0.00    -0.039 C 
ATOM      7  C   UNL     1      32.413  -6.950 -23.675  0.00  0.00    -0.045 C 
ATOM      8  C   UNL     1      31.758  -6.213 -22.666  0.00  0.00    -0.030 C 
ATOM      9  C   UNL     1      31.382  -4.771 -22.890  0.00  0.00    +0.003 C 
ATOM     10  C   UNL     1      31.341  -4.414 -24.373  0.00  0.00    -0.076 C 
ATOM     11  C   UNL     1      32.726  -8.296 -23.427  0.00  0.00    +0.008 C 
ATOM     12  C   UNL     1      31.490  -6.807 -21.424  0.00  0.00    -0.003 C 
ATOM     13  C   UNL     1      32.443  -8.882 -22.191  0.00  0.00    +0.050 C 
ATOM     14  C   UNL     1      31.831  -8.137 -21.189  0.00  0.00    +0.014 C 
ATOM     15  H   UNL     1      32.578  -4.504 -25.990  0.00  0.00    -0.084 HD
ATOM     16  H   UNL     1      33.368  -4.454 -24.512  0.00  0.00    -0.084 HD
BRANCH   6  17
ATOM     17  C   UNL     1      34.085  -6.643 -25.580  0.00  0.00    -0.015 C 
ATOM     18  C   UNL     1      34.164  -6.301 -27.064  0.00  0.00    -0.002 C 
ATOM     19  C   UNL     1      35.155  -5.895 -24.793  0.00  0.00    -0.002 C 
ENDBRANCH   6  17
ENDBRANCH   2  13
BRANCH   3  20
ATOM     20  C   UNL     1      32.556 -12.622 -21.594  0.00  0.00    +0.054 C 
ATOM     21  C   UNL     1      33.892 -14.473 -22.353  0.00  0.00    +0.000 C 
ATOM     22  C   UNL     1      33.269 -13.238 -22.602  0.00  0.00    +0.005 C 
ATOM     23  C   UNL     1      33.773 -15.062 -21.071  0.00  0.00    +0.000 C 
ATOM     24  C   UNL     1      32.426 -13.173 -20.341  0.00  0.00    +0.005 C 
ATOM     25  C   UNL     1      33.036 -14.399 -20.076  0.00  0.00    +0.000 C 
ATOM     26  C   UNL     1      34.395 -16.296 -20.823  0.00  0.00    +0.003 C 
ATOM     27  C   UNL     1      34.628 -15.135 -23.347  0.00  0.00    +0.000 C 
ATOM     28  C   UNL     1      35.124 -16.940 -21.822  0.00  0.00    +0.031 C 
ATOM     29  C   UNL     1      35.240 -16.361 -23.083  0.00  0.00    +0.003 C 
BRANCH  28  32
ATOM     30  N   UNL     1      35.165 -19.163 -20.715  0.00  0.00    -0.343 N 
ATOM     31  N   UNL     1      36.930 -18.501 -22.096  0.00  0.00    -0.285 NA
ATOM     32  C   UNL     1      35.761 -18.219 -21.549  0.00  0.00    +0.117 C 
ATOM     33  H   UNL     1      35.613 -20.022 -20.545  0.00  0.00    +0.144 HD
ATOM     34  H   UNL     1      34.295 -18.970 -20.297  0.00  0.00    +0.144 HD
ATOM     35  H   UNL     1      37.363 -19.366 -21.912  0.00  0.00    +0.188 HD
ENDBRANCH  28  32
ENDBRANCH   3  20
TORSDOF 4
ENDMDL
MODEL 6
REMARK VINA RESULT:     -10.8      3.304     11.121
REMARK  Name = 447736
REMARK  4 active torsions:
REMARK  status: ('A' for Active; 'I' for Inactive)
REMARK    1  A    between atoms: N_2  and  C_13
REMARK    2  A    between atoms: C_3  and  C_20
REMARK    3  A    between atoms: C_6  and  C_17
REMARK    4  A    between atoms: C_28  and  C_32
REMARK                            x       y       z     vdW  Elec       q    Type
REMARK                         _______ _______ _______ _____ _____    ______ ____
ROOT
ATOM      1  O   UNL     1      34.620 -20.105 -22.564  0.00  0.00    -0.270 OA
ATOM      2  N   UNL     1      34.889 -18.201 -21.211  0.00  0.00    -0.280 N 
ATOM      3  C   UNL     1      34.840 -19.576 -21.480  0.00  0.00    +0.249 C 
ATOM      4  H   UNL     1      35.078 -17.951 -20.277  0.00  0.00    +0.155 HD
ENDROOT
BRANCH   2  13
ATOM      5  N   UNL     1      33.045 -12.600 -23.104  0.00  0.00    +0.388 N 
ATOM      6  C   UNL     1      33.475 -13.509 -22.022  0.00  0.00    -0.039 C 
ATOM      7  C   UNL     1      33.995 -14.851 -22.523  0.00  0.00    -0.045 C 
ATOM      8  C   UNL     1      34.357 -15.011 -23.876  0.00  0.00    -0.030 C 
ATOM      9  C   UNL     1      34.178 -13.882 -24.858  0.00  0.00    +0.003 C 
ATOM     10  C   UNL     1      34.054 -12.530 -24.159  0.00  0.00    -0.076 C 
ATOM     11  C   UNL     1      34.199 -15.925 -21.642  0.00  0.00    +0.008 C 
ATOM     12  C   UNL     1      34.850 -16.243 -24.331  0.00  0.00    -0.003 C 
ATOM     13  C   UNL     1      34.702 -17.144 -22.102  0.00  0.00    +0.050 C 
ATOM     14  C   UNL     1      35.021 -17.305 -23.446  0.00  0.00    +0.014 C 
ATOM     15  H   UNL     1      32.902 -11.667 -22.718  0.00  0.00    -0.084 HD
ATOM     16  H   UNL     1      32.179 -12.959 -23.505  0.00  0.00    -0.084 HD
BRANCH   6  17
ATOM     17  C   UNL     1      32.286 -13.640 -21.062  0.00  0.00    -0.015 C 
ATOM     18  C   UNL     1      32.749 -14.188 -19.716  0.00  0.00    -0.002 C 
ATOM     19  C   UNL     1      31.593 -12.293 -20.890  0.00  0.00    -0.002 C 
ENDBRANCH   6  17
ENDBRANCH   2  13
BRANCH   3  20
ATOM     20  C   UNL     1      35.053 -20.462 -20.306  0.00  0.00    +0.054 C 
ATOM     21  C   UNL     1      34.147 -21.931 -18.631  0.00  0.00    +0.000 C 
ATOM     22  C   UNL     1      33.963 -21.091 -19.742  0.00  0.00    +0.005 C 
ATOM     23  C   UNL     1      35.451 -22.115 -18.111  0.00  0.00    +0.000 C 
ATOM     24  C   UNL     1      36.329 -20.623 -19.820  0.00  0.00    +0.005 C 
ATOM     25  C   UNL     1      36.532 -21.453 -18.717  0.00  0.00    +0.000 C 
ATOM     26  C   UNL     1      35.635 -22.955 -17.001  0.00  0.00    +0.003 C 
ATOM     27  C   UNL     1      33.067 -22.592 -18.026  0.00  0.00    +0.000 C 
ATOM     28  C   UNL     1      34.550 -23.604 -16.412  0.00  0.00    +0.031 C 
ATOM     29  C   UNL     1      33.268 -23.423 -16.923  0.00  0.00    +0.003 C 
BRANCH  28  32
ATOM     30  N   UNL     1      33.778 -24.621 -14.282  0.00  0.00    -0.343 N 
ATOM     31  N   UNL     1      35.895 -25.129 -15.131  0.00  0.00    -0.285 NA
ATOM     32  C   UNL     1      34.758 -24.470 -15.262  0.00  0.00    +0.117 C 
ATOM     33  H   UNL     1      33.939 -25.213 -13.512  0.00  0.00    +0.144 HD
ATOM     34  H   UNL     1      32.925 -24.136 -14.360  0.00  0.00    +0.144 HD
ATOM     35  H   UNL     1      36.037 -25.715 -14.353  0.00  0.00    +0.188 HD
ENDBRANCH  28  32
ENDBRANCH   3  20
TORSDOF 4
ENDMDL
MODEL 7
REMARK VINA RESULT:     -10.8      9.712     16.495
REMARK  Name = 447736
REMARK  4 active torsions:
REMARK  status: ('A' for Active; 'I' for Inactive)
REMARK    1  A    between atoms: N_2  and  C_13
REMARK    2  A    between atoms: C_3  and  C_20
REMARK    3  A    between atoms: C_6  and  C_17
REMARK    4  A    between atoms: C_28  and  C_32
REMARK                            x       y       z     vdW  Elec       q    Type
REMARK                         _______ _______ _______ _____ _____    ______ ____
ROOT
ATOM      1  O   UNL     1      30.483 -10.230 -22.330  0.00  0.00    -0.270 OA
ATOM      2  N   UNL     1      32.577  -9.194 -22.067  0.00  0.00    -0.280 N 
ATOM      3  C   UNL     1      31.690 -10.278 -22.119  0.00  0.00    +0.249 C 
ATOM      4  H   UNL     1      33.520  -9.416 -21.885  0.00  0.00    +0.155 HD
ENDROOT
BRANCH   2  13
ATOM      5  N   UNL     1      32.159  -3.793 -25.068  0.00  0.00    +0.388 N 
ATOM      6  C   UNL     1      32.191  -5.270 -25.087  0.00  0.00    -0.039 C 
ATOM      7  C   UNL     1      32.113  -5.899 -23.702  0.00  0.00    -0.045 C 
ATOM      8  C   UNL     1      31.681  -5.135 -22.598  0.00  0.00    -0.030 C 
ATOM      9  C   UNL     1      31.351  -3.673 -22.759  0.00  0.00    +0.003 C 
ATOM     10  C   UNL     1      31.078  -3.304 -24.215  0.00  0.00    -0.076 C 
ATOM     11  C   UNL     1      32.389  -7.262 -23.507  0.00  0.00    +0.008 C 
ATOM     12  C   UNL     1      31.595  -5.721 -21.327  0.00  0.00    -0.003 C 
ATOM     13  C   UNL     1      32.290  -7.840 -22.239  0.00  0.00    +0.050 C 
ATOM     14  C   UNL     1      31.899  -7.069 -21.149  0.00  0.00    +0.014 C 
ATOM     15  H   UNL     1      32.015  -3.451 -26.018  0.00  0.00    -0.084 HD
ATOM     16  H   UNL     1      33.046  -3.453 -24.697  0.00  0.00    -0.084 HD
BRANCH   6  17
ATOM     17  C   UNL     1      33.451  -5.671 -25.865  0.00  0.00    -0.015 C 
ATOM     18  C   UNL     1      33.500  -4.945 -27.205  0.00  0.00    -0.002 C 
ATOM     19  C   UNL     1      34.699  -5.375 -25.041  0.00  0.00    -0.002 C 
ENDBRANCH   6  17
ENDBRANCH   2  13
BRANCH   3  20
ATOM     20  C   UNL     1      32.298 -11.610 -21.864  0.00  0.00    +0.054 C 
ATOM     21  C   UNL     1      33.583 -13.484 -22.655  0.00  0.00    +0.000 C 
ATOM     22  C   UNL     1      33.003 -12.223 -22.879  0.00  0.00    +0.005 C 
ATOM     23  C   UNL     1      33.431 -14.100 -21.390  0.00  0.00    +0.000 C 
ATOM     24  C   UNL     1      32.136 -12.188 -20.627  0.00  0.00    +0.005 C 
ATOM     25  C   UNL     1      32.704 -13.439 -20.386  0.00  0.00    +0.000 C 
ATOM     26  C   UNL     1      34.011 -15.359 -21.166  0.00  0.00    +0.003 C 
ATOM     27  C   UNL     1      34.310 -14.144 -23.658  0.00  0.00    +0.000 C 
ATOM     28  C   UNL     1      34.730 -16.001 -22.174  0.00  0.00    +0.031 C 
ATOM     29  C   UNL     1      34.879 -15.395 -23.418  0.00  0.00    +0.003 C 
BRANCH  28  32
ATOM     30  N   UNL     1      35.482 -17.796 -20.631  0.00  0.00    -0.343 N 
ATOM     31  N   UNL     1      35.726 -18.049 -22.942  0.00  0.00    -0.285 NA
ATOM     32  C   UNL     1      35.323 -17.306 -21.926  0.00  0.00    +0.117 C 
ATOM     33  H   UNL     1      35.885 -18.683 -20.486  0.00  0.00    +0.144 HD
ATOM     34  H   UNL     1      35.190 -17.256 -19.862  0.00  0.00    +0.144 HD
ATOM     35  H   UNL     1      36.127 -18.932 -22.776  0.00  0.00    +0.188 HD
ENDBRANCH  28  32
ENDBRANCH   3  20
TORSDOF 4
ENDMDL
MODEL 8
REMARK VINA RESULT:     -10.4      2.674      4.682
REMARK  Name = 447736
REMARK  4 active torsions:
REMARK  status: ('A' for Active; 'I' for Inactive)
REMARK    1  A    between atoms: N_2  and  C_13
REMARK    2  A    between atoms: C_3  and  C_20
REMARK    3  A    between atoms: C_6  and  C_17
REMARK    4  A    between atoms: C_28  and  C_32
REMARK                            x       y       z     vdW  Elec       q    Type
REMARK                         _______ _______ _______ _____ _____    ______ ____
ROOT
ATOM      1  O   UNL     1      37.472 -20.340 -19.876  0.00  0.00    -0.270 OA
ATOM      2  N   UNL     1      35.288 -20.887 -19.198  0.00  0.00    -0.280 N 
ATOM      3  C   UNL     1      36.254 -20.264 -20.000  0.00  0.00    +0.249 C 
ATOM      4  H   UNL     1      34.349 -20.716 -19.441  0.00  0.00    +0.155 HD
ENDROOT
BRANCH   2  13
ATOM      5  N   UNL     1      33.730 -24.601 -14.493  0.00  0.00    +0.388 N 
ATOM      6  C   UNL     1      33.429 -24.011 -15.813  0.00  0.00    -0.039 C 
ATOM      7  C   UNL     1      34.596 -23.240 -16.418  0.00  0.00    -0.045 C 
ATOM      8  C   UNL     1      35.901 -23.418 -15.914  0.00  0.00    -0.030 C 
ATOM      9  C   UNL     1      36.152 -24.322 -14.734  0.00  0.00    +0.003 C 
ATOM     10  C   UNL     1      35.008 -25.309 -14.516  0.00  0.00    -0.076 C 
ATOM     11  C   UNL     1      34.415 -22.403 -17.531  0.00  0.00    +0.008 C 
ATOM     12  C   UNL     1      36.975 -22.718 -16.483  0.00  0.00    -0.003 C 
ATOM     13  C   UNL     1      35.493 -21.720 -18.098  0.00  0.00    +0.050 C 
ATOM     14  C   UNL     1      36.771 -21.872 -17.570  0.00  0.00    +0.014 C 
ATOM     15  H   UNL     1      32.990 -25.257 -14.245  0.00  0.00    -0.084 HD
ATOM     16  H   UNL     1      33.787 -23.849 -13.806  0.00  0.00    -0.084 HD
BRANCH   6  17
ATOM     17  C   UNL     1      32.166 -23.159 -15.635  0.00  0.00    -0.015 C 
ATOM     18  C   UNL     1      30.968 -23.844 -16.282  0.00  0.00    -0.002 C 
ATOM     19  C   UNL     1      31.908 -22.897 -14.155  0.00  0.00    -0.002 C 
ENDBRANCH   6  17
ENDBRANCH   2  13
BRANCH   3  20
ATOM     20  C   UNL     1      35.720 -19.407 -21.089  0.00  0.00    +0.054 C 
ATOM     21  C   UNL     1      35.133 -17.220 -21.903  0.00  0.00    +0.000 C 
ATOM     22  C   UNL     1      35.637 -18.045 -20.883  0.00  0.00    +0.005 C 
ATOM     23  C   UNL     1      34.718 -17.804 -23.124  0.00  0.00    +0.000 C 
ATOM     24  C   UNL     1      35.323 -19.998 -22.266  0.00  0.00    +0.005 C 
ATOM     25  C   UNL     1      34.820 -19.195 -23.289  0.00  0.00    +0.000 C 
ATOM     26  C   UNL     1      34.214 -16.980 -24.143  0.00  0.00    +0.003 C 
ATOM     27  C   UNL     1      35.032 -15.830 -21.737  0.00  0.00    +0.000 C 
ATOM     28  C   UNL     1      34.121 -15.600 -23.961  0.00  0.00    +0.031 C 
ATOM     29  C   UNL     1      34.529 -15.026 -22.760  0.00  0.00    +0.003 C 
BRANCH  28  32
ATOM     30  N   UNL     1      33.228 -13.437 -24.791  0.00  0.00    -0.343 N 
ATOM     31  N   UNL     1      33.458 -15.252 -26.245  0.00  0.00    -0.285 NA
ATOM     32  C   UNL     1      33.596 -14.760 -25.026  0.00  0.00    +0.117 C 
ATOM     33  H   UNL     1      32.875 -12.886 -25.527  0.00  0.00    +0.144 HD
ATOM     34  H   UNL     1      33.321 -13.053 -23.890  0.00  0.00    +0.144 HD
ATOM     35  H   UNL     1      33.103 -14.685 -26.967  0.00  0.00    +0.188 HD
ENDBRANCH  28  32
ENDBRANCH   3  20
TORSDOF 4
ENDMDL
MODEL 9
REMARK VINA RESULT:     -10.1      1.791      3.529
REMARK  Name = 447736
REMARK  4 active torsions:
REMARK  status: ('A' for Active; 'I' for Inactive)
REMARK    1  A    between atoms: N_2  and  C_13
REMARK    2  A    between atoms: C_3  and  C_20
REMARK    3  A    between atoms: C_6  and  C_17
REMARK    4  A    between atoms: C_28  and  C_32
REMARK                            x       y       z     vdW  Elec       q    Type
REMARK                         _______ _______ _______ _____ _____    ______ ____
ROOT
ATOM      1  O   UNL     1      35.355 -22.921 -19.394  0.00  0.00    -0.270 OA
ATOM      2  N   UNL     1      36.372 -21.522 -17.802  0.00  0.00    -0.280 N 
ATOM      3  C   UNL     1      35.794 -21.833 -19.041  0.00  0.00    +0.249 C 
ATOM      4  H   UNL     1      36.673 -20.592 -17.687  0.00  0.00    +0.155 HD
ENDROOT
BRANCH   2  13
ATOM      5  N   UNL     1      34.795 -25.243 -13.109  0.00  0.00    +0.388 N 
ATOM      6  C   UNL     1      34.490 -24.635 -14.420  0.00  0.00    -0.039 C 
ATOM      7  C   UNL     1      35.665 -23.885 -15.033  0.00  0.00    -0.045 C 
ATOM      8  C   UNL     1      36.972 -24.095 -14.549  0.00  0.00    -0.030 C 
ATOM      9  C   UNL     1      37.219 -25.015 -13.380  0.00  0.00    +0.003 C 
ATOM     10  C   UNL     1      36.057 -25.979 -13.155  0.00  0.00    -0.076 C 
ATOM     11  C   UNL     1      35.487 -23.034 -16.136  0.00  0.00    +0.008 C 
ATOM     12  C   UNL     1      38.054 -23.414 -15.126  0.00  0.00    -0.003 C 
ATOM     13  C   UNL     1      36.573 -22.369 -16.711  0.00  0.00    +0.050 C 
ATOM     14  C   UNL     1      37.854 -22.554 -16.203  0.00  0.00    +0.014 C 
ATOM     15  H   UNL     1      34.044 -25.885 -12.856  0.00  0.00    -0.084 HD
ATOM     16  H   UNL     1      34.878 -24.499 -12.416  0.00  0.00    -0.084 HD
BRANCH   6  17
ATOM     17  C   UNL     1      33.249 -23.757 -14.217  0.00  0.00    -0.015 C 
ATOM     18  C   UNL     1      32.430 -23.689 -15.501  0.00  0.00    -0.002 C 
ATOM     19  C   UNL     1      32.405 -24.289 -13.064  0.00  0.00    -0.002 C 
ENDBRANCH   6  17
ENDBRANCH   2  13
BRANCH   3  20
ATOM     20  C   UNL     1      35.746 -20.714 -20.018  0.00  0.00    +0.054 C 
ATOM     21  C   UNL     1      34.726 -19.689 -21.940  0.00  0.00    +0.000 C 
ATOM     22  C   UNL     1      34.785 -20.738 -21.007  0.00  0.00    +0.005 C 
ATOM     23  C   UNL     1      35.656 -18.626 -21.846  0.00  0.00    +0.000 C 
ATOM     24  C   UNL     1      36.661 -19.694 -19.905  0.00  0.00    +0.005 C 
ATOM     25  C   UNL     1      36.618 -18.643 -20.822  0.00  0.00    +0.000 C 
ATOM     26  C   UNL     1      35.597 -17.577 -22.778  0.00  0.00    +0.003 C 
ATOM     27  C   UNL     1      33.765 -19.671 -22.963  0.00  0.00    +0.000 C 
ATOM     28  C   UNL     1      34.635 -17.576 -23.788  0.00  0.00    +0.031 C 
ATOM     29  C   UNL     1      33.721 -18.622 -23.880  0.00  0.00    +0.003 C 
BRANCH  28  32
ATOM     30  N   UNL     1      35.664 -15.611 -24.905  0.00  0.00    -0.343 N 
ATOM     31  N   UNL     1      33.508 -16.302 -25.485  0.00  0.00    -0.285 NA
ATOM     32  C   UNL     1      34.588 -16.483 -24.746  0.00  0.00    +0.117 C 
ATOM     33  H   UNL     1      35.611 -14.878 -25.560  0.00  0.00    +0.144 HD
ATOM     34  H   UNL     1      36.476 -15.728 -24.362  0.00  0.00    +0.144 HD
ATOM     35  H   UNL     1      33.474 -15.562 -26.134  0.00  0.00    +0.188 HD
ENDBRANCH  28  32
ENDBRANCH   3  20
TORSDOF 4
ENDMDL
