MODEL 1
REMARK VINA RESULT:     -11.4      0.000      0.000
REMARK  Name = 6857690
REMARK  2 active torsions:
REMARK  status: ('A' for Active; 'I' for Inactive)
REMARK    1  A    between atoms: C_4  and  C_18
REMARK    2  A    between atoms: C_21  and  O_24
REMARK                            x       y       z     vdW  Elec       q    Type
REMARK                         _______ _______ _______ _____ _____    ______ ____
ROOT
ATOM      1  O   UNL     1      37.336 -25.309 -15.354  0.00  0.00    -0.252 OA
ATOM      2  N   UNL     1      35.796 -23.741 -14.670  0.00  0.00    -0.259 N 
ATOM      3  N   UNL     1      36.673 -25.372 -13.149  0.00  0.00    -0.261 N 
ATOM      4  C   UNL     1      34.895 -23.239 -16.906  0.00  0.00    +0.064 C 
ATOM      5  C   UNL     1      35.980 -22.921 -15.863  0.00  0.00    +0.104 C 
ATOM      6  C   UNL     1      33.503 -23.236 -16.278  0.00  0.00    -0.019 C 
ATOM      7  C   UNL     1      33.351 -23.365 -14.880  0.00  0.00    -0.010 C 
ATOM      8  C   UNL     1      34.540 -23.489 -13.953  0.00  0.00    +0.121 C 
ATOM      9  C   UNL     1      32.065 -23.367 -14.319  0.00  0.00    -0.028 C 
ATOM     10  C   UNL     1      32.350 -23.190 -17.081  0.00  0.00    -0.005 C 
ATOM     11  C   UNL     1      30.934 -23.286 -15.129  0.00  0.00    -0.026 C 
ATOM     12  C   UNL     1      36.642 -24.836 -14.445  0.00  0.00    +0.308 C 
ATOM     13  C   UNL     1      31.077 -23.207 -16.510  0.00  0.00    -0.005 C 
ATOM     14  C   UNL     1      31.886 -23.464 -12.833  0.00  0.00    +0.030 C 
ATOM     15  C   UNL     1      29.560 -23.283 -14.545  0.00  0.00    +0.031 C 
ATOM     16  C   UNL     1      36.440 -24.600 -11.931  0.00  0.00    +0.117 C 
ATOM     17  C   UNL     1      37.216 -26.708 -12.948  0.00  0.00    +0.117 C 
ENDROOT
BRANCH   4  18
ATOM     18  C   UNL     1      35.060 -22.311 -18.100  0.00  0.00    -0.014 C 
ATOM     19  C   UNL     1      33.941 -21.902 -18.817  0.00  0.00    +0.033 C 
ATOM     20  C   UNL     1      36.331 -21.879 -18.466  0.00  0.00    -0.004 C 
ATOM     21  C   UNL     1      34.092 -21.051 -19.911  0.00  0.00    +0.133 C 
ATOM     22  C   UNL     1      36.483 -21.026 -19.560  0.00  0.00    +0.003 C 
ATOM     23  C   UNL     1      35.364 -20.613 -20.283  0.00  0.00    +0.037 C 
BRANCH  21  24
ATOM     24  O   UNL     1      33.001 -20.647 -20.616  0.00  0.00    -0.506 OA
ATOM     25  H   UNL     1      32.802 -19.735 -20.690  0.00  0.00    +0.292 HD
ENDBRANCH  21  24
ENDBRANCH   4  18
TORSDOF 2
ENDMDL
MODEL 2
REMARK VINA RESULT:      -9.2     15.625     19.174
REMARK  Name = 6857690
REMARK  2 active torsions:
REMARK  status: ('A' for Active; 'I' for Inactive)
REMARK    1  A    between atoms: C_4  and  C_18
REMARK    2  A    between atoms: C_21  and  O_24
REMARK                            x       y       z     vdW  Elec       q    Type
REMARK                         _______ _______ _______ _____ _____    ______ ____
ROOT
ATOM      1  O   UNL     1      35.482  -7.653 -25.407  0.00  0.00    -0.252 OA
ATOM      2  N   UNL     1      33.393  -6.705 -25.215  0.00  0.00    -0.259 N 
ATOM      3  N   UNL     1      34.874  -6.107 -27.003  0.00  0.00    -0.261 N 
ATOM      4  C   UNL     1      33.094  -7.169 -22.816  0.00  0.00    +0.064 C 
ATOM      5  C   UNL     1      32.940  -7.701 -24.252  0.00  0.00    +0.104 C 
ATOM      6  C   UNL     1      32.510  -5.764 -22.679  0.00  0.00    -0.019 C 
ATOM      7  C   UNL     1      32.295  -4.967 -23.824  0.00  0.00    -0.010 C 
ATOM      8  C   UNL     1      32.607  -5.466 -25.218  0.00  0.00    +0.121 C 
ATOM      9  C   UNL     1      31.764  -3.676 -23.681  0.00  0.00    -0.028 C 
ATOM     10  C   UNL     1      32.257  -5.210 -21.412  0.00  0.00    -0.005 C 
ATOM     11  C   UNL     1      31.487  -3.155 -22.418  0.00  0.00    -0.026 C 
ATOM     12  C   UNL     1      34.633  -6.868 -25.848  0.00  0.00    +0.308 C 
ATOM     13  C   UNL     1      31.742  -3.919 -21.284  0.00  0.00    -0.005 C 
ATOM     14  C   UNL     1      31.492  -2.830 -24.888  0.00  0.00    +0.030 C 
ATOM     15  C   UNL     1      30.918  -1.786 -22.252  0.00  0.00    +0.031 C 
ATOM     16  C   UNL     1      33.837  -5.670 -27.934  0.00  0.00    +0.117 C 
ATOM     17  C   UNL     1      36.244  -5.944 -27.470  0.00  0.00    +0.117 C 
ENDROOT
BRANCH   4  18
ATOM     18  C   UNL     1      32.535  -8.193 -21.839  0.00  0.00    -0.014 C 
ATOM     19  C   UNL     1      31.806  -9.277 -22.317  0.00  0.00    +0.033 C 
ATOM     20  C   UNL     1      32.757  -8.037 -20.475  0.00  0.00    -0.004 C 
ATOM     21  C   UNL     1      31.294 -10.216 -21.422  0.00  0.00    +0.133 C 
ATOM     22  C   UNL     1      32.245  -8.976 -19.579  0.00  0.00    +0.003 C 
ATOM     23  C   UNL     1      31.514 -10.066 -20.053  0.00  0.00    +0.037 C 
BRANCH  21  24
ATOM     24  O   UNL     1      30.581 -11.279 -21.884  0.00  0.00    -0.506 OA
ATOM     25  H   UNL     1      29.917 -11.151 -22.532  0.00  0.00    +0.292 HD
ENDBRANCH  21  24
ENDBRANCH   4  18
TORSDOF 2
ENDMDL
MODEL 3
REMARK VINA RESULT:      -9.2     16.089     19.267
REMARK  Name = 6857690
REMARK  2 active torsions:
REMARK  status: ('A' for Active; 'I' for Inactive)
REMARK    1  A    between atoms: C_4  and  C_18
REMARK    2  A    between atoms: C_21  and  O_24
REMARK                            x       y       z     vdW  Elec       q    Type
REMARK                         _______ _______ _______ _____ _____    ______ ____
ROOT
ATOM      1  O   UNL     1      32.996  -9.461 -23.240  0.00  0.00    -0.252 OA
ATOM      2  N   UNL     1      33.436  -7.261 -22.727  0.00  0.00    -0.259 N 
ATOM      3  N   UNL     1      32.417  -8.732 -21.133  0.00  0.00    -0.261 N 
ATOM      4  C   UNL     1      33.547  -6.449 -25.048  0.00  0.00    +0.064 C 
ATOM      5  C   UNL     1      34.316  -7.084 -23.877  0.00  0.00    +0.104 C 
ATOM      6  C   UNL     1      32.755  -5.224 -24.594  0.00  0.00    -0.019 C 
ATOM      7  C   UNL     1      32.458  -5.035 -23.228  0.00  0.00    -0.010 C 
ATOM      8  C   UNL     1      32.919  -6.008 -22.164  0.00  0.00    +0.121 C 
ATOM      9  C   UNL     1      31.723  -3.908 -22.827  0.00  0.00    -0.028 C 
ATOM     10  C   UNL     1      32.238  -4.312 -25.531  0.00  0.00    -0.005 C 
ATOM     11  C   UNL     1      31.247  -2.996 -23.767  0.00  0.00    -0.026 C 
ATOM     12  C   UNL     1      32.951  -8.539 -22.416  0.00  0.00    +0.308 C 
ATOM     13  C   UNL     1      31.498  -3.204 -25.120  0.00  0.00    -0.005 C 
ATOM     14  C   UNL     1      31.430  -3.671 -21.376  0.00  0.00    +0.030 C 
ATOM     15  C   UNL     1      30.469  -1.792 -23.354  0.00  0.00    +0.031 C 
ATOM     16  C   UNL     1      32.846  -8.004 -19.942  0.00  0.00    +0.117 C 
ATOM     17  C   UNL     1      31.569  -9.890 -20.886  0.00  0.00    +0.117 C 
ENDROOT
BRANCH   4  18
ATOM     18  C   UNL     1      34.509  -6.198 -26.201  0.00  0.00    -0.014 C 
ATOM     19  C   UNL     1      34.195  -6.660 -27.475  0.00  0.00    +0.033 C 
ATOM     20  C   UNL     1      35.694  -5.507 -25.972  0.00  0.00    -0.004 C 
ATOM     21  C   UNL     1      35.075  -6.430 -28.531  0.00  0.00    +0.133 C 
ATOM     22  C   UNL     1      36.575  -5.276 -27.029  0.00  0.00    +0.003 C 
ATOM     23  C   UNL     1      36.266  -5.737 -28.308  0.00  0.00    +0.037 C 
BRANCH  21  24
ATOM     24  O   UNL     1      34.774  -6.880 -29.779  0.00  0.00    -0.506 OA
ATOM     25  H   UNL     1      35.302  -7.543 -30.178  0.00  0.00    +0.292 HD
ENDBRANCH  21  24
ENDBRANCH   4  18
TORSDOF 2
ENDMDL
MODEL 4
REMARK VINA RESULT:      -9.2     16.213     19.395
REMARK  Name = 6857690
REMARK  2 active torsions:
REMARK  status: ('A' for Active; 'I' for Inactive)
REMARK    1  A    between atoms: C_4  and  C_18
REMARK    2  A    between atoms: C_21  and  O_24
REMARK                            x       y       z     vdW  Elec       q    Type
REMARK                         _______ _______ _______ _____ _____    ______ ____
ROOT
ATOM      1  O   UNL     1      33.122  -9.388 -23.227  0.00  0.00    -0.252 OA
ATOM      2  N   UNL     1      33.494  -7.174 -22.716  0.00  0.00    -0.259 N 
ATOM      3  N   UNL     1      32.474  -8.662 -21.139  0.00  0.00    -0.261 N 
ATOM      4  C   UNL     1      33.641  -6.372 -25.039  0.00  0.00    +0.064 C 
ATOM      5  C   UNL     1      34.397  -6.982 -23.846  0.00  0.00    +0.104 C 
ATOM      6  C   UNL     1      32.808  -5.166 -24.612  0.00  0.00    -0.019 C 
ATOM      7  C   UNL     1      32.472  -4.977 -23.254  0.00  0.00    -0.010 C 
ATOM      8  C   UNL     1      32.932  -5.932 -22.174  0.00  0.00    +0.121 C 
ATOM      9  C   UNL     1      31.699  -3.867 -22.878  0.00  0.00    -0.028 C 
ATOM     10  C   UNL     1      32.290  -4.272 -25.567  0.00  0.00    -0.005 C 
ATOM     11  C   UNL     1      31.224  -2.972 -23.835  0.00  0.00    -0.026 C 
ATOM     12  C   UNL     1      33.034  -8.462 -22.409  0.00  0.00    +0.308 C 
ATOM     13  C   UNL     1      31.512  -3.181 -25.180  0.00  0.00    -0.005 C 
ATOM     14  C   UNL     1      31.366  -3.629 -21.436  0.00  0.00    +0.030 C 
ATOM     15  C   UNL     1      30.406  -1.786 -23.448  0.00  0.00    +0.031 C 
ATOM     16  C   UNL     1      32.855  -7.917 -19.942  0.00  0.00    +0.117 C 
ATOM     17  C   UNL     1      31.649  -9.840 -20.906  0.00  0.00    +0.117 C 
ENDROOT
BRANCH   4  18
ATOM     18  C   UNL     1      34.624  -6.103 -26.170  0.00  0.00    -0.014 C 
ATOM     19  C   UNL     1      35.743  -5.311 -25.938  0.00  0.00    +0.033 C 
ATOM     20  C   UNL     1      34.394  -6.652 -27.428  0.00  0.00    -0.004 C 
ATOM     21  C   UNL     1      36.644  -5.065 -26.973  0.00  0.00    +0.133 C 
ATOM     22  C   UNL     1      35.296  -6.407 -28.464  0.00  0.00    +0.003 C 
ATOM     23  C   UNL     1      36.420  -5.614 -28.237  0.00  0.00    +0.037 C 
BRANCH  21  24
ATOM     24  O   UNL     1      37.742  -4.292 -26.752  0.00  0.00    -0.506 OA
ATOM     25  H   UNL     1      37.964  -4.034 -25.879  0.00  0.00    +0.292 HD
ENDBRANCH  21  24
ENDBRANCH   4  18
TORSDOF 2
ENDMDL
MODEL 5
REMARK VINA RESULT:      -8.6      2.006      5.983
REMARK  Name = 6857690
REMARK  2 active torsions:
REMARK  status: ('A' for Active; 'I' for Inactive)
REMARK    1  A    between atoms: C_4  and  C_18
REMARK    2  A    between atoms: C_21  and  O_24
REMARK                            x       y       z     vdW  Elec       q    Type
REMARK                         _______ _______ _______ _____ _____    ______ ____
ROOT
ATOM      1  O   UNL     1      37.330 -21.654 -16.766  0.00  0.00    -0.252 OA
ATOM      2  N   UNL     1      35.565 -23.131 -16.723  0.00  0.00    -0.259 N 
ATOM      3  N   UNL     1      35.923 -21.670 -18.589  0.00  0.00    -0.261 N 
ATOM      4  C   UNL     1      35.502 -23.423 -14.279  0.00  0.00    +0.064 C 
ATOM      5  C   UNL     1      36.121 -23.890 -15.609  0.00  0.00    +0.104 C 
ATOM      6  C   UNL     1      33.979 -23.352 -14.371  0.00  0.00    -0.019 C 
ATOM      7  C   UNL     1      33.343 -23.295 -15.629  0.00  0.00    -0.010 C 
ATOM      8  C   UNL     1      34.124 -23.323 -16.925  0.00  0.00    +0.121 C 
ATOM      9  C   UNL     1      31.942 -23.222 -15.696  0.00  0.00    -0.028 C 
ATOM     10  C   UNL     1      33.192 -23.256 -13.210  0.00  0.00    -0.005 C 
ATOM     11  C   UNL     1      31.176 -23.163 -14.534  0.00  0.00    -0.026 C 
ATOM     12  C   UNL     1      36.331 -22.124 -17.326  0.00  0.00    +0.308 C 
ATOM     13  C   UNL     1      31.801 -23.171 -13.292  0.00  0.00    -0.005 C 
ATOM     14  C   UNL     1      31.247 -23.200 -17.024  0.00  0.00    +0.030 C 
ATOM     15  C   UNL     1      29.686 -23.090 -14.591  0.00  0.00    +0.031 C 
ATOM     16  C   UNL     1      35.226 -22.492 -19.575  0.00  0.00    +0.117 C 
ATOM     17  C   UNL     1      36.429 -20.396 -19.082  0.00  0.00    +0.117 C 
ENDROOT
BRANCH   4  18
ATOM     18  C   UNL     1      36.036 -24.289 -13.147  0.00  0.00    -0.014 C 
ATOM     19  C   UNL     1      35.975 -23.826 -11.837  0.00  0.00    +0.033 C 
ATOM     20  C   UNL     1      36.580 -25.537 -13.431  0.00  0.00    -0.004 C 
ATOM     21  C   UNL     1      36.463 -24.618 -10.799  0.00  0.00    +0.133 C 
ATOM     22  C   UNL     1      37.068 -26.331 -12.393  0.00  0.00    +0.003 C 
ATOM     23  C   UNL     1      37.010 -25.872 -11.077  0.00  0.00    +0.037 C 
BRANCH  21  24
ATOM     24  O   UNL     1      36.407 -24.171  -9.515  0.00  0.00    -0.506 OA
ATOM     25  H   UNL     1      35.577 -23.991  -9.118  0.00  0.00    +0.292 HD
ENDBRANCH  21  24
ENDBRANCH   4  18
TORSDOF 2
ENDMDL
MODEL 6
REMARK VINA RESULT:      -8.4     14.367     17.582
REMARK  Name = 6857690
REMARK  2 active torsions:
REMARK  status: ('A' for Active; 'I' for Inactive)
REMARK    1  A    between atoms: C_4  and  C_18
REMARK    2  A    between atoms: C_21  and  O_24
REMARK                            x       y       z     vdW  Elec       q    Type
REMARK                         _______ _______ _______ _____ _____    ______ ____
ROOT
ATOM      1  O   UNL     1      31.472  -8.062 -18.817  0.00  0.00    -0.252 OA
ATOM      2  N   UNL     1      31.668  -8.737 -21.008  0.00  0.00    -0.259 N 
ATOM      3  N   UNL     1      31.604 -10.327 -19.216  0.00  0.00    -0.261 N 
ATOM      4  C   UNL     1      32.537  -6.606 -21.882  0.00  0.00    +0.064 C 
ATOM      5  C   UNL     1      31.286  -7.430 -21.530  0.00  0.00    +0.104 C 
ATOM      6  C   UNL     1      33.521  -7.420 -22.719  0.00  0.00    -0.019 C 
ATOM      7  C   UNL     1      33.442  -8.829 -22.742  0.00  0.00    -0.010 C 
ATOM      8  C   UNL     1      32.384  -9.585 -21.969  0.00  0.00    +0.121 C 
ATOM      9  C   UNL     1      34.358  -9.564 -23.511  0.00  0.00    -0.028 C 
ATOM     10  C   UNL     1      34.571  -6.791 -23.411  0.00  0.00    -0.005 C 
ATOM     11  C   UNL     1      35.371  -8.920 -24.219  0.00  0.00    -0.026 C 
ATOM     12  C   UNL     1      31.576  -8.987 -19.632  0.00  0.00    +0.308 C 
ATOM     13  C   UNL     1      35.483  -7.535 -24.161  0.00  0.00    -0.005 C 
ATOM     14  C   UNL     1      34.265 -11.059 -23.578  0.00  0.00    +0.030 C 
ATOM     15  C   UNL     1      36.349  -9.689 -25.044  0.00  0.00    +0.031 C 
ATOM     16  C   UNL     1      31.109 -11.448 -20.010  0.00  0.00    +0.117 C 
ATOM     17  C   UNL     1      31.896 -10.629 -17.821  0.00  0.00    +0.117 C 
ENDROOT
BRANCH   4  18
ATOM     18  C   UNL     1      32.109  -5.284 -22.503  0.00  0.00    -0.014 C 
ATOM     19  C   UNL     1      32.094  -4.130 -21.727  0.00  0.00    +0.033 C 
ATOM     20  C   UNL     1      31.735  -5.241 -23.842  0.00  0.00    -0.004 C 
ATOM     21  C   UNL     1      31.702  -2.919 -22.296  0.00  0.00    +0.133 C 
ATOM     22  C   UNL     1      31.344  -4.029 -24.412  0.00  0.00    +0.003 C 
ATOM     23  C   UNL     1      31.327  -2.868 -23.639  0.00  0.00    +0.037 C 
BRANCH  21  24
ATOM     24  O   UNL     1      31.686  -1.786 -21.542  0.00  0.00    -0.506 OA
ATOM     25  H   UNL     1      31.014  -1.147 -21.671  0.00  0.00    +0.292 HD
ENDBRANCH  21  24
ENDBRANCH   4  18
TORSDOF 2
ENDMDL
