MODEL 1
REMARK VINA RESULT:     -11.5      0.000      0.000
REMARK  Name = 11406590
REMARK  3 active torsions:
REMARK  status: ('A' for Active; 'I' for Inactive)
REMARK    1  A    between atoms: N_2  and  C_16
REMARK    2  A    between atoms: C_12  and  O_21
REMARK    3  A    between atoms: O_21  and  C_24
REMARK                            x       y       z     vdW  Elec       q    Type
REMARK                         _______ _______ _______ _____ _____    ______ ____
ROOT
ATOM      1  O   UNL     1      34.738 -17.028 -25.174  0.00  0.00    -0.266 OA
ATOM      2  N   UNL     1      32.157 -11.598 -21.431  0.00  0.00    -0.270 N 
ATOM      3  N   UNL     1      33.000 -13.380 -22.704  0.00  0.00    -0.322 NA
ATOM      4  N   UNL     1      33.868 -15.215 -24.003  0.00  0.00    -0.225 N 
ATOM      5  N   UNL     1      33.275 -13.329 -20.313  0.00  0.00    -0.170 NA
ATOM      6  C   UNL     1      32.845 -12.830 -21.483  0.00  0.00    +0.146 C 
ATOM      7  C   UNL     1      33.660 -14.563 -22.750  0.00  0.00    +0.204 C 
ATOM      8  C   UNL     1      34.148 -15.170 -21.602  0.00  0.00    +0.068 C 
ATOM      9  C   UNL     1      33.925 -14.506 -20.406  0.00  0.00    +0.116 C 
ATOM     10  C   UNL     1      34.853 -16.437 -21.668  0.00  0.00    +0.048 C 
ATOM     11  C   UNL     1      34.540 -16.434 -24.113  0.00  0.00    +0.289 C 
ATOM     12  C   UNL     1      35.044 -17.044 -22.845  0.00  0.00    +0.199 C 
ATOM     13  C   UNL     1      33.345 -14.553 -25.194  0.00  0.00    +0.123 C 
ATOM     14  H   UNL     1      32.026 -11.169 -20.555  0.00  0.00    +0.159 HD
ENDROOT
BRANCH   2  16
ATOM     15  O   UNL     1      32.579  -8.205 -22.715  0.00  0.00    -0.354 OA
ATOM     16  C   UNL     1      31.638 -10.937 -22.612  0.00  0.00    +0.084 C 
ATOM     17  C   UNL     1      30.766  -9.746 -22.211  0.00  0.00    +0.052 C 
ATOM     18  C   UNL     1      32.794 -10.491 -23.509  0.00  0.00    +0.052 C 
ATOM     19  C   UNL     1      31.599  -8.556 -21.741  0.00  0.00    +0.144 C 
ATOM     20  C   UNL     1      33.506  -9.264 -22.950  0.00  0.00    +0.144 C 
ENDBRANCH   2  16
BRANCH  12  21
ATOM     21  O   UNL     1      35.708 -18.248 -22.958  0.00  0.00    -0.447 OA
BRANCH  21  24
ATOM     22  F   UNL     1      37.900 -18.837 -21.400  0.00  0.00    -0.201 F 
ATOM     23  F   UNL     1      35.265 -21.727 -18.733  0.00  0.00    -0.204 F 
ATOM     24  C   UNL     1      35.599 -19.114 -21.906  0.00  0.00    +0.173 C 
ATOM     25  C   UNL     1      36.716 -19.402 -21.127  0.00  0.00    +0.177 C 
ATOM     26  C   UNL     1      34.370 -19.702 -21.620  0.00  0.00    +0.042 C 
ATOM     27  C   UNL     1      36.603 -20.286 -20.054  0.00  0.00    +0.062 C 
ATOM     28  C   UNL     1      34.257 -20.586 -20.547  0.00  0.00    +0.033 C 
ATOM     29  C   UNL     1      35.373 -20.878 -19.764  0.00  0.00    +0.143 C 
ENDBRANCH  21  24
ENDBRANCH  12  21
TORSDOF 3
ENDMDL
MODEL 2
REMARK VINA RESULT:     -11.3      3.657      8.745
REMARK  Name = 11406590
REMARK  3 active torsions:
REMARK  status: ('A' for Active; 'I' for Inactive)
REMARK    1  A    between atoms: N_2  and  C_16
REMARK    2  A    between atoms: C_12  and  O_21
REMARK    3  A    between atoms: O_21  and  C_24
REMARK                            x       y       z     vdW  Elec       q    Type
REMARK                         _______ _______ _______ _____ _____    ______ ____
ROOT
ATOM      1  O   UNL     1      33.186 -13.370 -25.775  0.00  0.00    -0.266 OA
ATOM      2  N   UNL     1      35.428 -17.615 -20.567  0.00  0.00    -0.270 N 
ATOM      3  N   UNL     1      34.692 -16.237 -22.318  0.00  0.00    -0.322 NA
ATOM      4  N   UNL     1      33.936 -14.814 -24.110  0.00  0.00    -0.225 N 
ATOM      5  N   UNL     1      34.607 -15.485 -20.033  0.00  0.00    -0.170 NA
ATOM      6  C   UNL     1      34.882 -16.384 -20.992  0.00  0.00    +0.146 C 
ATOM      7  C   UNL     1      34.169 -15.054 -22.722  0.00  0.00    +0.204 C 
ATOM      8  C   UNL     1      33.846 -14.052 -21.817  0.00  0.00    +0.068 C 
ATOM      9  C   UNL     1      34.089 -14.324 -20.480  0.00  0.00    +0.116 C 
ATOM     10  C   UNL     1      33.286 -12.791 -22.266  0.00  0.00    +0.048 C 
ATOM     11  C   UNL     1      33.399 -13.616 -24.586  0.00  0.00    +0.289 C 
ATOM     12  C   UNL     1      33.071 -12.572 -23.568  0.00  0.00    +0.199 C 
ATOM     13  C   UNL     1      34.283 -15.885 -25.039  0.00  0.00    +0.123 C 
ATOM     14  H   UNL     1      35.580 -17.755 -19.605  0.00  0.00    +0.159 HD
ENDROOT
BRANCH   2  16
ATOM     15  O   UNL     1      35.728 -21.227 -20.116  0.00  0.00    -0.354 OA
ATOM     16  C   UNL     1      35.773 -18.681 -21.486  0.00  0.00    +0.084 C 
ATOM     17  C   UNL     1      37.044 -19.392 -21.020  0.00  0.00    +0.052 C 
ATOM     18  C   UNL     1      34.607 -19.665 -21.602  0.00  0.00    +0.052 C 
ATOM     19  C   UNL     1      36.784 -20.313 -19.831  0.00  0.00    +0.144 C 
ATOM     20  C   UNL     1      34.494 -20.558 -20.371  0.00  0.00    +0.144 C 
ENDBRANCH   2  16
BRANCH  12  21
ATOM     21  O   UNL     1      32.540 -11.390 -24.041  0.00  0.00    -0.447 OA
BRANCH  21  24
ATOM     22  F   UNL     1      30.531 -10.914 -22.221  0.00  0.00    -0.201 F 
ATOM     23  F   UNL     1      32.789  -7.044 -20.695  0.00  0.00    -0.204 F 
ATOM     24  C   UNL     1      32.601 -10.308 -23.208  0.00  0.00    +0.173 C 
ATOM     25  C   UNL     1      31.577 -10.080 -22.292  0.00  0.00    +0.177 C 
ATOM     26  C   UNL     1      33.687  -9.441 -23.280  0.00  0.00    +0.042 C 
ATOM     27  C   UNL     1      31.641  -8.976 -21.442  0.00  0.00    +0.062 C 
ATOM     28  C   UNL     1      33.751  -8.336 -22.430  0.00  0.00    +0.033 C 
ATOM     29  C   UNL     1      32.728  -8.105 -21.511  0.00  0.00    +0.143 C 
ENDBRANCH  21  24
ENDBRANCH  12  21
TORSDOF 3
ENDMDL
MODEL 3
REMARK VINA RESULT:     -10.4      1.530      2.610
REMARK  Name = 11406590
REMARK  3 active torsions:
REMARK  status: ('A' for Active; 'I' for Inactive)
REMARK    1  A    between atoms: N_2  and  C_16
REMARK    2  A    between atoms: C_12  and  O_21
REMARK    3  A    between atoms: O_21  and  C_24
REMARK                            x       y       z     vdW  Elec       q    Type
REMARK                         _______ _______ _______ _____ _____    ______ ____
ROOT
ATOM      1  O   UNL     1      35.625 -17.481 -20.300  0.00  0.00    -0.266 OA
ATOM      2  N   UNL     1      33.067 -11.936 -23.887  0.00  0.00    -0.270 N 
ATOM      3  N   UNL     1      33.916 -13.751 -22.667  0.00  0.00    -0.322 NA
ATOM      4  N   UNL     1      34.788 -15.621 -21.422  0.00  0.00    -0.225 N 
ATOM      5  N   UNL     1      33.320 -13.991 -24.987  0.00  0.00    -0.170 NA
ATOM      6  C   UNL     1      33.453 -13.293 -23.847  0.00  0.00    +0.146 C 
ATOM      7  C   UNL     1      34.286 -15.054 -22.632  0.00  0.00    +0.204 C 
ATOM      8  C   UNL     1      34.191 -15.869 -23.752  0.00  0.00    +0.068 C 
ATOM      9  C   UNL     1      33.700 -15.281 -24.906  0.00  0.00    +0.116 C 
ATOM     10  C   UNL     1      34.592 -17.263 -23.698  0.00  0.00    +0.048 C 
ATOM     11  C   UNL     1      35.185 -16.956 -21.325  0.00  0.00    +0.289 C 
ATOM     12  C   UNL     1      35.062 -17.788 -22.561  0.00  0.00    +0.199 C 
ATOM     13  C   UNL     1      34.876 -14.741 -20.260  0.00  0.00    +0.123 C 
ATOM     14  H   UNL     1      32.725 -11.569 -24.734  0.00  0.00    +0.159 HD
ENDROOT
BRANCH   2  16
ATOM     15  O   UNL     1      31.019  -9.109 -22.814  0.00  0.00    -0.354 OA
ATOM     16  C   UNL     1      33.152 -11.060 -22.736  0.00  0.00    +0.084 C 
ATOM     17  C   UNL     1      33.369  -9.614 -23.185  0.00  0.00    +0.052 C 
ATOM     18  C   UNL     1      31.881 -11.185 -21.893  0.00  0.00    +0.052 C 
ATOM     19  C   UNL     1      32.093  -8.987 -23.743  0.00  0.00    +0.144 C 
ATOM     20  C   UNL     1      30.698 -10.471 -22.539  0.00  0.00    +0.144 C 
ENDBRANCH   2  16
BRANCH  12  21
ATOM     21  O   UNL     1      35.455 -19.107 -22.461  0.00  0.00    -0.447 OA
BRANCH  21  24
ATOM     22  F   UNL     1      37.001 -20.417 -20.599  0.00  0.00    -0.201 F 
ATOM     23  F   UNL     1      33.105 -22.100 -18.503  0.00  0.00    -0.204 F 
ATOM     24  C   UNL     1      34.871 -19.852 -21.476  0.00  0.00    +0.173 C 
ATOM     25  C   UNL     1      35.666 -20.509 -20.540  0.00  0.00    +0.177 C 
ATOM     26  C   UNL     1      33.484 -19.950 -21.413  0.00  0.00    +0.042 C 
ATOM     27  C   UNL     1      35.068 -21.270 -19.535  0.00  0.00    +0.062 C 
ATOM     28  C   UNL     1      32.886 -20.710 -20.408  0.00  0.00    +0.033 C 
ATOM     29  C   UNL     1      33.679 -21.369 -19.469  0.00  0.00    +0.143 C 
ENDBRANCH  21  24
ENDBRANCH  12  21
TORSDOF 3
ENDMDL
MODEL 4
REMARK VINA RESULT:     -10.1      6.423     11.264
REMARK  Name = 11406590
REMARK  3 active torsions:
REMARK  status: ('A' for Active; 'I' for Inactive)
REMARK    1  A    between atoms: N_2  and  C_16
REMARK    2  A    between atoms: C_12  and  O_21
REMARK    3  A    between atoms: O_21  and  C_24
REMARK                            x       y       z     vdW  Elec       q    Type
REMARK                         _______ _______ _______ _____ _____    ______ ____
ROOT
ATOM      1  O   UNL     1      32.615 -22.287 -19.839  0.00  0.00    -0.266 OA
ATOM      2  N   UNL     1      36.875 -23.258 -14.265  0.00  0.00    -0.270 N 
ATOM      3  N   UNL     1      35.434 -22.951 -16.091  0.00  0.00    -0.322 NA
ATOM      4  N   UNL     1      33.962 -22.632 -17.972  0.00  0.00    -0.225 N 
ATOM      5  N   UNL     1      37.738 -22.264 -16.205  0.00  0.00    -0.170 NA
ATOM      6  C   UNL     1      36.674 -22.801 -15.586  0.00  0.00    +0.146 C 
ATOM      7  C   UNL     1      35.245 -22.512 -17.359  0.00  0.00    +0.204 C 
ATOM      8  C   UNL     1      36.275 -21.939 -18.093  0.00  0.00    +0.068 C 
ATOM      9  C   UNL     1      37.505 -21.842 -17.463  0.00  0.00    +0.116 C 
ATOM     10  C   UNL     1      36.056 -21.474 -19.450  0.00  0.00    +0.048 C 
ATOM     11  C   UNL     1      33.706 -22.198 -19.275  0.00  0.00    +0.289 C 
ATOM     12  C   UNL     1      34.851 -21.590 -20.019  0.00  0.00    +0.199 C 
ATOM     13  C   UNL     1      32.897 -23.237 -17.177  0.00  0.00    +0.123 C 
ATOM     14  H   UNL     1      37.769 -23.164 -13.865  0.00  0.00    +0.159 HD
ENDROOT
BRANCH   2  16
ATOM     15  O   UNL     1      36.951 -25.684 -11.535  0.00  0.00    -0.354 OA
ATOM     16  C   UNL     1      35.820 -23.858 -13.472  0.00  0.00    +0.084 C 
ATOM     17  C   UNL     1      35.812 -25.376 -13.662  0.00  0.00    +0.052 C 
ATOM     18  C   UNL     1      36.007 -23.493 -11.997  0.00  0.00    +0.052 C 
ATOM     19  C   UNL     1      36.954 -26.056 -12.912  0.00  0.00    +0.144 C 
ATOM     20  C   UNL     1      37.145 -24.281 -11.357  0.00  0.00    +0.144 C 
ENDBRANCH   2  16
BRANCH  12  21
ATOM     21  O   UNL     1      34.596 -21.162 -21.306  0.00  0.00    -0.447 OA
BRANCH  21  24
ATOM     22  F   UNL     1      34.679 -20.257 -23.904  0.00  0.00    -0.201 F 
ATOM     23  F   UNL     1      35.502 -15.854 -22.375  0.00  0.00    -0.204 F 
ATOM     24  C   UNL     1      34.821 -19.841 -21.573  0.00  0.00    +0.173 C 
ATOM     25  C   UNL     1      34.861 -19.398 -22.893  0.00  0.00    +0.177 C 
ATOM     26  C   UNL     1      35.011 -18.946 -20.524  0.00  0.00    +0.042 C 
ATOM     27  C   UNL     1      35.091 -18.049 -23.164  0.00  0.00    +0.062 C 
ATOM     28  C   UNL     1      35.241 -17.597 -20.795  0.00  0.00    +0.033 C 
ATOM     29  C   UNL     1      35.280 -17.149 -22.115  0.00  0.00    +0.143 C 
ENDBRANCH  21  24
ENDBRANCH  12  21
TORSDOF 3
ENDMDL
MODEL 5
REMARK VINA RESULT:      -9.3      4.139      9.090
REMARK  Name = 11406590
REMARK  3 active torsions:
REMARK  status: ('A' for Active; 'I' for Inactive)
REMARK    1  A    between atoms: N_2  and  C_16
REMARK    2  A    between atoms: C_12  and  O_21
REMARK    3  A    between atoms: O_21  and  C_24
REMARK                            x       y       z     vdW  Elec       q    Type
REMARK                         _______ _______ _______ _____ _____    ______ ____
ROOT
ATOM      1  O   UNL     1      32.578 -10.849 -24.059  0.00  0.00    -0.266 OA
ATOM      2  N   UNL     1      34.805 -16.719 -20.782  0.00  0.00    -0.270 N 
ATOM      3  N   UNL     1      34.090 -14.782 -21.898  0.00  0.00    -0.322 NA
ATOM      4  N   UNL     1      33.351 -12.791 -23.036  0.00  0.00    -0.225 N 
ATOM      5  N   UNL     1      33.174 -15.385 -19.755  0.00  0.00    -0.170 NA
ATOM      6  C   UNL     1      33.982 -15.573 -20.812  0.00  0.00    +0.146 C 
ATOM      7  C   UNL     1      33.299 -13.683 -21.922  0.00  0.00    +0.204 C 
ATOM      8  C   UNL     1      32.425 -13.390 -20.884  0.00  0.00    +0.068 C 
ATOM      9  C   UNL     1      32.405 -14.280 -19.822  0.00  0.00    +0.116 C 
ATOM     10  C   UNL     1      31.584 -12.208 -20.925  0.00  0.00    +0.048 C 
ATOM     11  C   UNL     1      32.560 -11.643 -23.117  0.00  0.00    +0.289 C 
ATOM     12  C   UNL     1      31.638 -11.376 -21.972  0.00  0.00    +0.199 C 
ATOM     13  C   UNL     1      34.278 -13.124 -24.114  0.00  0.00    +0.123 C 
ATOM     14  H   UNL     1      34.751 -17.318 -20.002  0.00  0.00    +0.159 HD
ENDROOT
BRANCH   2  16
ATOM     15  O   UNL     1      35.132 -19.689 -22.883  0.00  0.00    -0.354 OA
ATOM     16  C   UNL     1      35.725 -17.054 -21.851  0.00  0.00    +0.084 C 
ATOM     17  C   UNL     1      36.542 -18.292 -21.478  0.00  0.00    +0.052 C 
ATOM     18  C   UNL     1      34.952 -17.281 -23.151  0.00  0.00    +0.052 C 
ATOM     19  C   UNL     1      35.725 -19.576 -21.592  0.00  0.00    +0.144 C 
ATOM     20  C   UNL     1      34.225 -18.621 -23.153  0.00  0.00    +0.144 C 
ENDBRANCH   2  16
BRANCH  12  21
ATOM     21  O   UNL     1      30.858 -10.241 -22.055  0.00  0.00    -0.447 OA
BRANCH  21  24
ATOM     22  F   UNL     1      30.815  -8.035 -23.701  0.00  0.00    -0.201 F 
ATOM     23  F   UNL     1      33.164  -5.526 -20.447  0.00  0.00    -0.204 F 
ATOM     24  C   UNL     1      31.432  -9.067 -21.656  0.00  0.00    +0.173 C 
ATOM     25  C   UNL     1      31.403  -7.959 -22.499  0.00  0.00    +0.177 C 
ATOM     26  C   UNL     1      32.043  -8.986 -20.408  0.00  0.00    +0.042 C 
ATOM     27  C   UNL     1      31.989  -6.762 -22.090  0.00  0.00    +0.062 C 
ATOM     28  C   UNL     1      32.629  -7.788 -19.998  0.00  0.00    +0.033 C 
ATOM     29  C   UNL     1      32.601  -6.676 -20.840  0.00  0.00    +0.143 C 
ENDBRANCH  21  24
ENDBRANCH  12  21
TORSDOF 3
ENDMDL
MODEL 6
REMARK VINA RESULT:      -9.2      5.849      9.104
REMARK  Name = 11406590
REMARK  3 active torsions:
REMARK  status: ('A' for Active; 'I' for Inactive)
REMARK    1  A    between atoms: N_2  and  C_16
REMARK    2  A    between atoms: C_12  and  O_21
REMARK    3  A    between atoms: O_21  and  C_24
REMARK                            x       y       z     vdW  Elec       q    Type
REMARK                         _______ _______ _______ _____ _____    ______ ____
ROOT
ATOM      1  O   UNL     1      36.520 -23.319 -15.988  0.00  0.00    -0.266 OA
ATOM      2  N   UNL     1      34.006 -19.789 -21.590  0.00  0.00    -0.270 N 
ATOM      3  N   UNL     1      34.875 -20.948 -19.743  0.00  0.00    -0.322 NA
ATOM      4  N   UNL     1      35.758 -22.140 -17.844  0.00  0.00    -0.225 N 
ATOM      5  N   UNL     1      32.506 -20.894 -20.166  0.00  0.00    -0.170 NA
ATOM      6  C   UNL     1      33.783 -20.583 -20.443  0.00  0.00    +0.146 C 
ATOM      7  C   UNL     1      34.656 -21.709 -18.644  0.00  0.00    +0.204 C 
ATOM      8  C   UNL     1      33.377 -22.090 -18.263  0.00  0.00    +0.068 C 
ATOM      9  C   UNL     1      32.336 -21.653 -19.066  0.00  0.00    +0.116 C 
ATOM     10  C   UNL     1      33.160 -22.906 -17.083  0.00  0.00    +0.048 C 
ATOM     11  C   UNL     1      35.596 -22.926 -16.701  0.00  0.00    +0.289 C 
ATOM     12  C   UNL     1      34.197 -23.307 -16.338  0.00  0.00    +0.199 C 
ATOM     13  C   UNL     1      37.092 -21.724 -18.267  0.00  0.00    +0.123 C 
ATOM     14  H   UNL     1      33.230 -19.506 -22.124  0.00  0.00    +0.159 HD
ENDROOT
BRANCH   2  16
ATOM     15  O   UNL     1      35.258 -16.636 -22.941  0.00  0.00    -0.354 OA
ATOM     16  C   UNL     1      35.329 -19.373 -22.012  0.00  0.00    +0.084 C 
ATOM     17  C   UNL     1      35.319 -19.003 -23.496  0.00  0.00    +0.052 C 
ATOM     18  C   UNL     1      35.801 -18.195 -21.158  0.00  0.00    +0.052 C 
ATOM     19  C   UNL     1      34.661 -17.649 -23.747  0.00  0.00    +0.144 C 
ATOM     20  C   UNL     1      35.102 -16.896 -21.547  0.00  0.00    +0.144 C 
ENDBRANCH   2  16
BRANCH  12  21
ATOM     21  O   UNL     1      34.040 -24.083 -15.208  0.00  0.00    -0.447 OA
BRANCH  21  24
ATOM     22  F   UNL     1      33.496 -25.131 -12.722  0.00  0.00    -0.201 F 
ATOM     23  F   UNL     1      28.900 -25.416 -13.814  0.00  0.00    -0.204 F 
ATOM     24  C   UNL     1      32.761 -24.415 -14.861  0.00  0.00    +0.173 C 
ATOM     25  C   UNL     1      32.501 -24.945 -13.599  0.00  0.00    +0.177 C 
ATOM     26  C   UNL     1      31.725 -24.223 -15.770  0.00  0.00    +0.042 C 
ATOM     27  C   UNL     1      31.195 -25.283 -13.245  0.00  0.00    +0.062 C 
ATOM     28  C   UNL     1      30.419 -24.561 -15.416  0.00  0.00    +0.033 C 
ATOM     29  C   UNL     1      30.154 -25.091 -14.154  0.00  0.00    +0.143 C 
ENDBRANCH  21  24
ENDBRANCH  12  21
TORSDOF 3
ENDMDL
MODEL 7
REMARK VINA RESULT:      -9.1      5.179      9.970
REMARK  Name = 11406590
REMARK  3 active torsions:
REMARK  status: ('A' for Active; 'I' for Inactive)
REMARK    1  A    between atoms: N_2  and  C_16
REMARK    2  A    between atoms: C_12  and  O_21
REMARK    3  A    between atoms: O_21  and  C_24
REMARK                            x       y       z     vdW  Elec       q    Type
REMARK                         _______ _______ _______ _____ _____    ______ ____
ROOT
ATOM      1  O   UNL     1      37.667 -19.195 -20.733  0.00  0.00    -0.266 OA
ATOM      2  N   UNL     1      33.598 -23.582 -16.945  0.00  0.00    -0.270 N 
ATOM      3  N   UNL     1      34.976 -22.139 -18.179  0.00  0.00    -0.322 NA
ATOM      4  N   UNL     1      36.384 -20.653 -19.451  0.00  0.00    -0.225 N 
ATOM      5  N   UNL     1      32.650 -22.404 -18.737  0.00  0.00    -0.170 NA
ATOM      6  C   UNL     1      33.747 -22.663 -18.006  0.00  0.00    +0.146 C 
ATOM      7  C   UNL     1      35.115 -21.257 -19.198  0.00  0.00    +0.204 C 
ATOM      8  C   UNL     1      34.048 -20.915 -20.017  0.00  0.00    +0.068 C 
ATOM      9  C   UNL     1      32.834 -21.521 -19.738  0.00  0.00    +0.116 C 
ATOM     10  C   UNL     1      34.214 -19.968 -21.105  0.00  0.00    +0.048 C 
ATOM     11  C   UNL     1      36.589 -19.738 -20.485  0.00  0.00    +0.289 C 
ATOM     12  C   UNL     1      35.406 -19.406 -21.336  0.00  0.00    +0.199 C 
ATOM     13  C   UNL     1      37.489 -21.031 -18.574  0.00  0.00    +0.123 C 
ATOM     14  H   UNL     1      32.712 -23.984 -16.791  0.00  0.00    +0.159 HD
ENDROOT
BRANCH   2  16
ATOM     15  O   UNL     1      33.769 -24.129 -13.338  0.00  0.00    -0.354 OA
ATOM     16  C   UNL     1      34.692 -23.961 -16.074  0.00  0.00    +0.084 C 
ATOM     17  C   UNL     1      34.954 -22.862 -15.043  0.00  0.00    +0.052 C 
ATOM     18  C   UNL     1      34.372 -25.290 -15.386  0.00  0.00    +0.052 C 
ATOM     19  C   UNL     1      33.898 -22.844 -13.941  0.00  0.00    +0.144 C 
ATOM     20  C   UNL     1      33.344 -25.120 -14.272  0.00  0.00    +0.144 C 
ENDBRANCH   2  16
BRANCH  12  21
ATOM     21  O   UNL     1      35.611 -18.502 -22.358  0.00  0.00    -0.447 OA
BRANCH  21  24
ATOM     22  F   UNL     1      35.009 -16.873 -24.493  0.00  0.00    -0.201 F 
ATOM     23  F   UNL     1      33.810 -13.381 -21.532  0.00  0.00    -0.204 F 
ATOM     24  C   UNL     1      35.163 -17.227 -22.153  0.00  0.00    +0.173 C 
ATOM     25  C   UNL     1      34.862 -16.415 -23.243  0.00  0.00    +0.177 C 
ATOM     26  C   UNL     1      35.010 -16.748 -20.855  0.00  0.00    +0.042 C 
ATOM     27  C   UNL     1      34.405 -15.114 -23.033  0.00  0.00    +0.062 C 
ATOM     28  C   UNL     1      34.553 -15.447 -20.644  0.00  0.00    +0.033 C 
ATOM     29  C   UNL     1      34.250 -14.631 -21.733  0.00  0.00    +0.143 C 
ENDBRANCH  21  24
ENDBRANCH  12  21
TORSDOF 3
ENDMDL
MODEL 8
REMARK VINA RESULT:      -8.8      4.534      7.486
REMARK  Name = 11406590
REMARK  3 active torsions:
REMARK  status: ('A' for Active; 'I' for Inactive)
REMARK    1  A    between atoms: N_2  and  C_16
REMARK    2  A    between atoms: C_12  and  O_21
REMARK    3  A    between atoms: O_21  and  C_24
REMARK                            x       y       z     vdW  Elec       q    Type
REMARK                         _______ _______ _______ _____ _____    ______ ____
ROOT
ATOM      1  O   UNL     1      32.313 -10.199 -19.247  0.00  0.00    -0.266 OA
ATOM      2  N   UNL     1      31.764  -4.717 -23.697  0.00  0.00    -0.270 N 
ATOM      3  N   UNL     1      31.958  -6.509 -22.195  0.00  0.00    -0.322 NA
ATOM      4  N   UNL     1      32.155  -8.356 -20.659  0.00  0.00    -0.225 N 
ATOM      5  N   UNL     1      31.137  -6.854 -24.431  0.00  0.00    -0.170 NA
ATOM      6  C   UNL     1      31.612  -6.095 -23.430  0.00  0.00    +0.146 C 
ATOM      7  C   UNL     1      31.811  -7.832 -21.942  0.00  0.00    +0.204 C 
ATOM      8  C   UNL     1      31.329  -8.709 -22.904  0.00  0.00    +0.068 C 
ATOM      9  C   UNL     1      31.008  -8.162 -24.136  0.00  0.00    +0.116 C 
ATOM     10  C   UNL     1      31.177 -10.124 -22.617  0.00  0.00    +0.048 C 
ATOM     11  C   UNL     1      32.025  -9.709 -20.340  0.00  0.00    +0.289 C 
ATOM     12  C   UNL     1      31.501 -10.608 -21.413  0.00  0.00    +0.199 C 
ATOM     13  C   UNL     1      32.658  -7.411 -19.667  0.00  0.00    +0.123 C 
ATOM     14  H   UNL     1      31.521  -4.381 -24.590  0.00  0.00    +0.159 HD
ENDROOT
BRANCH   2  16
ATOM     15  O   UNL     1      30.194  -1.877 -22.022  0.00  0.00    -0.354 OA
ATOM     16  C   UNL     1      32.262  -3.776 -22.714  0.00  0.00    +0.084 C 
ATOM     17  C   UNL     1      32.223  -2.353 -23.276  0.00  0.00    +0.052 C 
ATOM     18  C   UNL     1      31.437  -3.879 -21.430  0.00  0.00    +0.052 C 
ATOM     19  C   UNL     1      30.807  -1.786 -23.306  0.00  0.00    +0.144 C 
ATOM     20  C   UNL     1      30.066  -3.228 -21.582  0.00  0.00    +0.144 C 
ENDBRANCH   2  16
BRANCH  12  21
ATOM     21  O   UNL     1      31.374 -11.944 -21.095  0.00  0.00    -0.447 OA
BRANCH  21  24
ATOM     22  F   UNL     1      32.320 -13.974 -19.493  0.00  0.00    -0.201 F 
ATOM     23  F   UNL     1      35.315 -15.310 -22.906  0.00  0.00    -0.204 F 
ATOM     24  C   UNL     1      32.355 -12.782 -21.545  0.00  0.00    +0.173 C 
ATOM     25  C   UNL     1      32.824 -13.805 -20.723  0.00  0.00    +0.177 C 
ATOM     26  C   UNL     1      32.880 -12.609 -22.822  0.00  0.00    +0.042 C 
ATOM     27  C   UNL     1      33.825 -14.660 -21.184  0.00  0.00    +0.062 C 
ATOM     28  C   UNL     1      33.882 -13.464 -23.283  0.00  0.00    +0.033 C 
ATOM     29  C   UNL     1      34.354 -14.489 -22.464  0.00  0.00    +0.143 C 
ENDBRANCH  21  24
ENDBRANCH  12  21
TORSDOF 3
ENDMDL
MODEL 9
REMARK VINA RESULT:      -8.7      5.714     11.053
REMARK  Name = 11406590
REMARK  3 active torsions:
REMARK  status: ('A' for Active; 'I' for Inactive)
REMARK    1  A    between atoms: N_2  and  C_16
REMARK    2  A    between atoms: C_12  and  O_21
REMARK    3  A    between atoms: O_21  and  C_24
REMARK                            x       y       z     vdW  Elec       q    Type
REMARK                         _______ _______ _______ _____ _____    ______ ____
ROOT
ATOM      1  O   UNL     1      34.343  -6.320 -22.771  0.00  0.00    -0.266 OA
ATOM      2  N   UNL     1      32.895 -13.248 -23.036  0.00  0.00    -0.270 N 
ATOM      3  N   UNL     1      33.407 -10.958 -22.969  0.00  0.00    -0.322 NA
ATOM      4  N   UNL     1      33.924  -8.606 -22.895  0.00  0.00    -0.225 N 
ATOM      5  N   UNL     1      31.398 -11.807 -21.949  0.00  0.00    -0.170 NA
ATOM      6  C   UNL     1      32.548 -11.940 -22.630  0.00  0.00    +0.146 C 
ATOM      7  C   UNL     1      33.070  -9.705 -22.578  0.00  0.00    +0.204 C 
ATOM      8  C   UNL     1      31.905  -9.451 -21.868  0.00  0.00    +0.068 C 
ATOM      9  C   UNL     1      31.104 -10.545 -21.580  0.00  0.00    +0.116 C 
ATOM     10  C   UNL     1      31.559  -8.103 -21.457  0.00  0.00    +0.048 C 
ATOM     11  C   UNL     1      33.631  -7.293 -22.519  0.00  0.00    +0.289 C 
ATOM     12  C   UNL     1      32.364  -7.077 -21.757  0.00  0.00    +0.199 C 
ATOM     13  C   UNL     1      35.143  -8.902 -23.642  0.00  0.00    +0.123 C 
ATOM     14  H   UNL     1      32.289 -13.988 -22.804  0.00  0.00    +0.159 HD
ENDROOT
BRANCH   2  16
ATOM     15  O   UNL     1      33.638 -15.756 -25.584  0.00  0.00    -0.354 OA
ATOM     16  C   UNL     1      34.103 -13.545 -23.779  0.00  0.00    +0.084 C 
ATOM     17  C   UNL     1      34.571 -14.970 -23.479  0.00  0.00    +0.052 C 
ATOM     18  C   UNL     1      33.852 -13.356 -25.276  0.00  0.00    +0.052 C 
ATOM     19  C   UNL     1      33.713 -16.018 -24.184  0.00  0.00    +0.144 C 
ATOM     20  C   UNL     1      33.028 -14.497 -25.863  0.00  0.00    +0.144 C 
ENDBRANCH   2  16
BRANCH  12  21
ATOM     21  O   UNL     1      32.077  -5.779 -21.387  0.00  0.00    -0.447 OA
BRANCH  21  24
ATOM     22  F   UNL     1      32.104  -3.059 -20.967  0.00  0.00    -0.201 F 
ATOM     23  F   UNL     1      30.605  -2.330 -25.397  0.00  0.00    -0.204 F 
ATOM     24  C   UNL     1      31.711  -4.920 -22.385  0.00  0.00    +0.173 C 
ATOM     25  C   UNL     1      31.729  -3.546 -22.158  0.00  0.00    +0.177 C 
ATOM     26  C   UNL     1      31.321  -5.424 -23.622  0.00  0.00    +0.042 C 
ATOM     27  C   UNL     1      31.355  -2.670 -23.177  0.00  0.00    +0.062 C 
ATOM     28  C   UNL     1      30.947  -4.548 -24.642  0.00  0.00    +0.033 C 
ATOM     29  C   UNL     1      30.965  -3.171 -24.419  0.00  0.00    +0.143 C 
ENDBRANCH  21  24
ENDBRANCH  12  21
TORSDOF 3
ENDMDL
