MODEL 1
REMARK VINA RESULT:     -12.9      0.000      0.000
REMARK  Name = 448407
REMARK  4 active torsions:
REMARK  status: ('A' for Active; 'I' for Inactive)
REMARK    1  A    between atoms: C_1  and  N_8
REMARK    2  A    between atoms: C_2  and  C_23
REMARK    3  A    between atoms: N_22  and  C_25
REMARK    4  A    between atoms: C_25  and  C_28
REMARK                            x       y       z     vdW  Elec       q    Type
REMARK                         _______ _______ _______ _____ _____    ______ ____
ROOT
ATOM      1  C   UNL     1      35.721 -18.624 -21.415  0.00  0.00    +0.090 C 
ATOM      2  C   UNL     1      34.792 -20.474 -20.133  0.00  0.00    +0.055 C 
ATOM      3  C   UNL     1      34.615 -19.365 -20.961  0.00  0.00    +0.023 C 
ATOM      4  C   UNL     1      37.007 -19.027 -21.016  0.00  0.00    +0.018 C 
ATOM      5  C   UNL     1      36.075 -20.860 -19.748  0.00  0.00    +0.005 C 
ATOM      6  C   UNL     1      37.183 -20.136 -20.189  0.00  0.00    +0.002 C 
ENDROOT
BRANCH   1   8
ATOM      7  O   UNL     1      33.799 -13.800 -21.566  0.00  0.00    -0.207 OA
ATOM      8  N   UNL     1      35.546 -17.520 -22.240  0.00  0.00    -0.137 N 
ATOM      9  N   UNL     1      35.259 -17.584 -23.567  0.00  0.00    -0.215 N 
ATOM     10  N   UNL     1      35.075 -16.338 -21.674  0.00  0.00    -0.143 NA
ATOM     11  N   UNL     1      34.081 -15.948 -24.976  0.00  0.00    -0.309 NA
ATOM     12  N   UNL     1      33.336 -13.958 -23.832  0.00  0.00    -0.251 NA
ATOM     13  N   UNL     1      32.928 -14.223 -26.093  0.00  0.00    -0.283 N 
ATOM     14  C   UNL     1      34.594 -16.454 -23.917  0.00  0.00    +0.243 C 
ATOM     15  C   UNL     1      34.514 -15.702 -22.655  0.00  0.00    +0.241 C 
ATOM     16  C   UNL     1      33.848 -14.394 -22.633  0.00  0.00    +0.239 C 
ATOM     17  C   UNL     1      33.455 -14.700 -24.915  0.00  0.00    +0.208 C 
ATOM     18  H   UNL     1      35.492 -18.324 -24.172  0.00  0.00    +0.175 HD
ATOM     19  H   UNL     1      33.001 -14.756 -26.918  0.00  0.00    +0.156 HD
ATOM     20  H   UNL     1      32.475 -13.349 -26.111  0.00  0.00    +0.156 HD
ENDBRANCH   1   8
BRANCH   2  23
ATOM     21  O   UNL     1      32.530 -21.086 -20.222  0.00  0.00    -0.270 OA
ATOM     22  N   UNL     1      33.843 -22.127 -18.619  0.00  0.00    -0.297 N 
ATOM     23  C   UNL     1      33.637 -21.230 -19.674  0.00  0.00    +0.246 C 
ATOM     24  H   UNL     1      34.745 -22.190 -18.232  0.00  0.00    +0.150 HD
BRANCH  22  25
ATOM     25  C   UNL     1      32.802 -22.964 -18.068  0.00  0.00    +0.117 C 
BRANCH  25  28
ATOM     26 CL   UNL     1      30.885 -23.977 -13.342  0.00  0.00    -0.082 Cl
ATOM     27 CL   UNL     1      36.204 -23.927 -14.255  0.00  0.00    -0.082 Cl
ATOM     28  C   UNL     1      33.053 -23.297 -16.626  0.00  0.00    -0.001 C 
ATOM     29  C   UNL     1      34.359 -23.440 -16.170  0.00  0.00    +0.009 C 
ATOM     30  C   UNL     1      31.977 -23.461 -15.761  0.00  0.00    +0.009 C 
ATOM     31  C   UNL     1      32.210 -23.772 -14.421  0.00  0.00    +0.058 C 
ATOM     32  C   UNL     1      34.592 -23.749 -14.830  0.00  0.00    +0.058 C 
ATOM     33  C   UNL     1      33.517 -23.916 -13.955  0.00  0.00    +0.023 C 
ENDBRANCH  25  28
ENDBRANCH  22  25
ENDBRANCH   2  23
TORSDOF 4
ENDMDL
MODEL 2
REMARK VINA RESULT:     -12.8      4.663     10.341
REMARK  Name = 448407
REMARK  4 active torsions:
REMARK  status: ('A' for Active; 'I' for Inactive)
REMARK    1  A    between atoms: C_1  and  N_8
REMARK    2  A    between atoms: C_2  and  C_23
REMARK    3  A    between atoms: N_22  and  C_25
REMARK    4  A    between atoms: C_25  and  C_28
REMARK                            x       y       z     vdW  Elec       q    Type
REMARK                         _______ _______ _______ _____ _____    ______ ____
ROOT
ATOM      1  C   UNL     1      34.687 -22.183 -18.263  0.00  0.00    +0.090 C 
ATOM      2  C   UNL     1      34.761 -20.608 -20.118  0.00  0.00    +0.055 C 
ATOM      3  C   UNL     1      35.408 -21.325 -19.111  0.00  0.00    +0.023 C 
ATOM      4  C   UNL     1      33.299 -22.304 -18.453  0.00  0.00    +0.018 C 
ATOM      5  C   UNL     1      33.384 -20.739 -20.293  0.00  0.00    +0.005 C 
ATOM      6  C   UNL     1      32.653 -21.587 -19.460  0.00  0.00    +0.002 C 
ENDROOT
BRANCH   1   8
ATOM      7  O   UNL     1      33.867 -25.091 -14.036  0.00  0.00    -0.207 OA
ATOM      8  N   UNL     1      35.331 -22.899 -17.260  0.00  0.00    -0.137 N 
ATOM      9  N   UNL     1      36.499 -22.527 -16.673  0.00  0.00    -0.215 N 
ATOM     10  N   UNL     1      34.560 -23.685 -16.408  0.00  0.00    -0.143 NA
ATOM     11  N   UNL     1      37.337 -23.058 -14.422  0.00  0.00    -0.309 NA
ATOM     12  N   UNL     1      35.874 -24.431 -13.081  0.00  0.00    -0.251 NA
ATOM     13  N   UNL     1      37.901 -23.712 -12.230  0.00  0.00    -0.283 N 
ATOM     14  C   UNL     1      36.536 -23.052 -15.423  0.00  0.00    +0.243 C 
ATOM     15  C   UNL     1      35.263 -23.781 -15.322  0.00  0.00    +0.241 C 
ATOM     16  C   UNL     1      34.935 -24.498 -14.083  0.00  0.00    +0.239 C 
ATOM     17  C   UNL     1      36.989 -23.752 -13.261  0.00  0.00    +0.208 C 
ATOM     18  H   UNL     1      37.199 -21.970 -17.084  0.00  0.00    +0.175 HD
ATOM     19  H   UNL     1      38.743 -23.213 -12.336  0.00  0.00    +0.156 HD
ATOM     20  H   UNL     1      37.710 -24.183 -11.387  0.00  0.00    +0.156 HD
ENDBRANCH   1   8
BRANCH   2  23
ATOM     21  O   UNL     1      36.659 -19.341 -20.656  0.00  0.00    -0.270 OA
ATOM     22  N   UNL     1      34.929 -19.361 -22.201  0.00  0.00    -0.297 N 
ATOM     23  C   UNL     1      35.524 -19.726 -20.987  0.00  0.00    +0.246 C 
ATOM     24  H   UNL     1      34.028 -19.702 -22.398  0.00  0.00    +0.150 HD
BRANCH  22  25
ATOM     25  C   UNL     1      35.569 -18.511 -23.178  0.00  0.00    +0.117 C 
BRANCH  25  28
ATOM     26 CL   UNL     1      33.401 -14.569 -25.786  0.00  0.00    -0.082 Cl
ATOM     27 CL   UNL     1      34.410 -14.210 -20.497  0.00  0.00    -0.082 Cl
ATOM     28  C   UNL     1      35.007 -17.118 -23.166  0.00  0.00    -0.001 C 
ATOM     29  C   UNL     1      34.975 -16.400 -21.976  0.00  0.00    +0.009 C 
ATOM     30  C   UNL     1      34.525 -16.561 -24.344  0.00  0.00    +0.009 C 
ATOM     31  C   UNL     1      34.002 -15.268 -24.333  0.00  0.00    +0.058 C 
ATOM     32  C   UNL     1      34.453 -15.107 -21.964  0.00  0.00    +0.058 C 
ATOM     33  C   UNL     1      33.966 -14.540 -23.142  0.00  0.00    +0.023 C 
ENDBRANCH  25  28
ENDBRANCH  22  25
ENDBRANCH   2  23
TORSDOF 4
ENDMDL
MODEL 3
REMARK VINA RESULT:     -12.6      4.217      9.784
REMARK  Name = 448407
REMARK  4 active torsions:
REMARK  status: ('A' for Active; 'I' for Inactive)
REMARK    1  A    between atoms: C_1  and  N_8
REMARK    2  A    between atoms: C_2  and  C_23
REMARK    3  A    between atoms: N_22  and  C_25
REMARK    4  A    between atoms: C_25  and  C_28
REMARK                            x       y       z     vdW  Elec       q    Type
REMARK                         _______ _______ _______ _____ _____    ______ ____
ROOT
ATOM      1  C   UNL     1      34.486 -22.228 -18.325  0.00  0.00    +0.090 C 
ATOM      2  C   UNL     1      34.935 -20.821 -20.260  0.00  0.00    +0.055 C 
ATOM      3  C   UNL     1      34.052 -21.586 -19.498  0.00  0.00    +0.023 C 
ATOM      4  C   UNL     1      35.829 -22.080 -17.937  0.00  0.00    +0.018 C 
ATOM      5  C   UNL     1      36.264 -20.685 -19.861  0.00  0.00    +0.005 C 
ATOM      6  C   UNL     1      36.711 -21.315 -18.699  0.00  0.00    +0.002 C 
ENDROOT
BRANCH   1   8
ATOM      7  O   UNL     1      29.516 -22.632 -16.867  0.00  0.00    -0.207 OA
ATOM      8  N   UNL     1      33.606 -22.989 -17.565  0.00  0.00    -0.137 N 
ATOM      9  N   UNL     1      33.913 -23.568 -16.374  0.00  0.00    -0.215 N 
ATOM     10  N   UNL     1      32.243 -22.723 -17.665  0.00  0.00    -0.143 NA
ATOM     11  N   UNL     1      32.422 -24.153 -14.508  0.00  0.00    -0.309 NA
ATOM     12  N   UNL     1      30.093 -23.621 -14.852  0.00  0.00    -0.251 NA
ATOM     13  N   UNL     1      30.783 -24.610 -12.878  0.00  0.00    -0.283 N 
ATOM     14  C   UNL     1      32.771 -23.700 -15.655  0.00  0.00    +0.243 C 
ATOM     15  C   UNL     1      31.742 -23.139 -16.544  0.00  0.00    +0.241 C 
ATOM     16  C   UNL     1      30.342 -23.107 -16.102  0.00  0.00    +0.239 C 
ATOM     17  C   UNL     1      31.080 -24.104 -14.123  0.00  0.00    +0.208 C 
ATOM     18  H   UNL     1      34.812 -23.843 -16.082  0.00  0.00    +0.175 HD
ATOM     19  H   UNL     1      31.500 -24.977 -12.311  0.00  0.00    +0.156 HD
ATOM     20  H   UNL     1      29.854 -24.602 -12.552  0.00  0.00    +0.156 HD
ENDBRANCH   1   8
BRANCH   2  23
ATOM     21  O   UNL     1      33.253 -20.094 -21.724  0.00  0.00    -0.270 OA
ATOM     22  N   UNL     1      35.444 -19.601 -22.304  0.00  0.00    -0.297 N 
ATOM     23  C   UNL     1      34.469 -20.162 -21.470  0.00  0.00    +0.246 C 
ATOM     24  H   UNL     1      36.388 -19.693 -22.043  0.00  0.00    +0.150 HD
BRANCH  22  25
ATOM     25  C   UNL     1      35.138 -18.896 -23.527  0.00  0.00    +0.117 C 
BRANCH  25  28
ATOM     26 CL   UNL     1      33.505 -14.323 -25.389  0.00  0.00    -0.082 Cl
ATOM     27 CL   UNL     1      34.762 -14.937 -20.177  0.00  0.00    -0.082 Cl
ATOM     28  C   UNL     1      34.799 -17.455 -23.276  0.00  0.00    -0.001 C 
ATOM     29  C   UNL     1      34.924 -16.932 -21.994  0.00  0.00    +0.009 C 
ATOM     30  C   UNL     1      34.363 -16.658 -24.327  0.00  0.00    +0.009 C 
ATOM     31  C   UNL     1      34.047 -15.319 -24.094  0.00  0.00    +0.058 C 
ATOM     32  C   UNL     1      34.610 -15.594 -21.760  0.00  0.00    +0.058 C 
ATOM     33  C   UNL     1      34.170 -14.787 -22.810  0.00  0.00    +0.023 C 
ENDBRANCH  25  28
ENDBRANCH  22  25
ENDBRANCH   2  23
TORSDOF 4
ENDMDL
MODEL 4
REMARK VINA RESULT:     -12.1      5.811     10.514
REMARK  Name = 448407
REMARK  4 active torsions:
REMARK  status: ('A' for Active; 'I' for Inactive)
REMARK    1  A    between atoms: C_1  and  N_8
REMARK    2  A    between atoms: C_2  and  C_23
REMARK    3  A    between atoms: N_22  and  C_25
REMARK    4  A    between atoms: C_25  and  C_28
REMARK                            x       y       z     vdW  Elec       q    Type
REMARK                         _______ _______ _______ _____ _____    ______ ____
ROOT
ATOM      1  C   UNL     1      32.881 -24.725 -13.711  0.00  0.00    +0.090 C 
ATOM      2  C   UNL     1      31.374 -23.699 -15.324  0.00  0.00    +0.055 C 
ATOM      3  C   UNL     1      32.667 -23.994 -14.892  0.00  0.00    +0.023 C 
ATOM      4  C   UNL     1      31.762 -25.153 -12.975  0.00  0.00    +0.018 C 
ATOM      5  C   UNL     1      30.276 -24.131 -14.582  0.00  0.00    +0.005 C 
ATOM      6  C   UNL     1      30.470 -24.859 -13.407  0.00  0.00    +0.002 C 
ENDROOT
BRANCH   1   8
ATOM      7  O   UNL     1      36.960 -22.790 -11.140  0.00  0.00    -0.207 OA
ATOM      8  N   UNL     1      34.170 -25.020 -13.281  0.00  0.00    -0.137 N 
ATOM      9  N   UNL     1      35.071 -25.755 -13.984  0.00  0.00    -0.215 N 
ATOM     10  N   UNL     1      34.802 -24.125 -12.422  0.00  0.00    -0.143 NA
ATOM     11  N   UNL     1      37.528 -25.678 -13.907  0.00  0.00    -0.309 NA
ATOM     12  N   UNL     1      38.455 -24.071 -12.364  0.00  0.00    -0.251 NA
ATOM     13  N   UNL     1      39.852 -25.402 -13.638  0.00  0.00    -0.283 N 
ATOM     14  C   UNL     1      36.319 -25.371 -13.615  0.00  0.00    +0.243 C 
ATOM     15  C   UNL     1      36.070 -24.325 -12.612  0.00  0.00    +0.241 C 
ATOM     16  C   UNL     1      37.207 -23.655 -11.967  0.00  0.00    +0.239 C 
ATOM     17  C   UNL     1      38.583 -25.017 -13.273  0.00  0.00    +0.208 C 
ATOM     18  H   UNL     1      34.855 -26.448 -14.650  0.00  0.00    +0.175 HD
ATOM     19  H   UNL     1      39.978 -26.106 -14.315  0.00  0.00    +0.156 HD
ATOM     20  H   UNL     1      40.635 -24.971 -13.225  0.00  0.00    +0.156 HD
ENDBRANCH   1   8
BRANCH   2  23
ATOM     21  O   UNL     1      30.064 -22.436 -16.802  0.00  0.00    -0.270 OA
ATOM     22  N   UNL     1      32.275 -22.800 -17.398  0.00  0.00    -0.297 N 
ATOM     23  C   UNL     1      31.171 -22.942 -16.549  0.00  0.00    +0.246 C 
ATOM     24  H   UNL     1      33.121 -23.228 -17.137  0.00  0.00    +0.150 HD
BRANCH  22  25
ATOM     25  C   UNL     1      32.237 -22.059 -18.638  0.00  0.00    +0.117 C 
BRANCH  25  28
ATOM     26 CL   UNL     1      37.384 -22.190 -17.910  0.00  0.00    -0.082 Cl
ATOM     27 CL   UNL     1      35.201 -19.382 -21.968  0.00  0.00    -0.082 Cl
ATOM     28  C   UNL     1      33.607 -21.629 -19.078  0.00  0.00    -0.001 C 
ATOM     29  C   UNL     1      33.746 -20.804 -20.188  0.00  0.00    +0.009 C 
ATOM     30  C   UNL     1      34.723 -22.060 -18.370  0.00  0.00    +0.009 C 
ATOM     31  C   UNL     1      35.996 -21.661 -18.778  0.00  0.00    +0.058 C 
ATOM     32  C   UNL     1      35.018 -20.404 -20.596  0.00  0.00    +0.058 C 
ATOM     33  C   UNL     1      36.144 -20.833 -19.891  0.00  0.00    +0.023 C 
ENDBRANCH  25  28
ENDBRANCH  22  25
ENDBRANCH   2  23
TORSDOF 4
ENDMDL
MODEL 5
REMARK VINA RESULT:     -12.0      4.881     10.546
REMARK  Name = 448407
REMARK  4 active torsions:
REMARK  status: ('A' for Active; 'I' for Inactive)
REMARK    1  A    between atoms: C_1  and  N_8
REMARK    2  A    between atoms: C_2  and  C_23
REMARK    3  A    between atoms: N_22  and  C_25
REMARK    4  A    between atoms: C_25  and  C_28
REMARK                            x       y       z     vdW  Elec       q    Type
REMARK                         _______ _______ _______ _____ _____    ______ ____
ROOT
ATOM      1  C   UNL     1      34.902 -22.463 -17.446  0.00  0.00    +0.090 C 
ATOM      2  C   UNL     1      35.110 -21.165 -19.495  0.00  0.00    +0.055 C 
ATOM      3  C   UNL     1      35.650 -21.629 -18.296  0.00  0.00    +0.023 C 
ATOM      4  C   UNL     1      33.598 -22.819 -17.833  0.00  0.00    +0.018 C 
ATOM      5  C   UNL     1      33.815 -21.528 -19.864  0.00  0.00    +0.005 C 
ATOM      6  C   UNL     1      33.059 -22.355 -19.032  0.00  0.00    +0.002 C 
ENDROOT
BRANCH   1   8
ATOM      7  O   UNL     1      39.316 -24.026 -15.195  0.00  0.00    -0.207 OA
ATOM      8  N   UNL     1      35.440 -22.926 -16.251  0.00  0.00    -0.137 N 
ATOM      9  N   UNL     1      34.805 -23.764 -15.389  0.00  0.00    -0.215 N 
ATOM     10  N   UNL     1      36.824 -23.046 -16.151  0.00  0.00    -0.143 NA
ATOM     11  N   UNL     1      35.771 -25.357 -13.784  0.00  0.00    -0.309 NA
ATOM     12  N   UNL     1      38.183 -25.434 -13.743  0.00  0.00    -0.251 NA
ATOM     13  N   UNL     1      36.950 -26.797 -12.339  0.00  0.00    -0.283 N 
ATOM     14  C   UNL     1      35.742 -24.459 -14.698  0.00  0.00    +0.243 C 
ATOM     15  C   UNL     1      37.011 -23.947 -15.237  0.00  0.00    +0.241 C 
ATOM     16  C   UNL     1      38.282 -24.474 -14.721  0.00  0.00    +0.239 C 
ATOM     17  C   UNL     1      37.000 -25.833 -13.320  0.00  0.00    +0.208 C 
ATOM     18  H   UNL     1      33.830 -23.852 -15.285  0.00  0.00    +0.175 HD
ATOM     19  H   UNL     1      36.080 -27.114 -12.003  0.00  0.00    +0.156 HD
ATOM     20  H   UNL     1      37.784 -27.170 -11.973  0.00  0.00    +0.156 HD
ENDBRANCH   1   8
BRANCH   2  23
ATOM     21  O   UNL     1      37.070 -20.012 -20.066  0.00  0.00    -0.270 OA
ATOM     22  N   UNL     1      35.284 -19.851 -21.537  0.00  0.00    -0.297 N 
ATOM     23  C   UNL     1      35.898 -20.304 -20.363  0.00  0.00    +0.246 C 
ATOM     24  H   UNL     1      34.353 -20.121 -21.708  0.00  0.00    +0.150 HD
BRANCH  22  25
ATOM     25  C   UNL     1      35.943 -19.010 -22.509  0.00  0.00    +0.117 C 
BRANCH  25  28
ATOM     26 CL   UNL     1      34.502 -14.620 -20.123  0.00  0.00    -0.082 Cl
ATOM     27 CL   UNL     1      33.651 -15.348 -25.402  0.00  0.00    -0.082 Cl
ATOM     28  C   UNL     1      35.312 -17.650 -22.595  0.00  0.00    -0.001 C 
ATOM     29  C   UNL     1      34.833 -17.189 -23.816  0.00  0.00    +0.009 C 
ATOM     30  C   UNL     1      35.213 -16.865 -21.452  0.00  0.00    +0.009 C 
ATOM     31  C   UNL     1      34.628 -15.601 -21.531  0.00  0.00    +0.058 C 
ATOM     32  C   UNL     1      34.247 -15.927 -23.896  0.00  0.00    +0.058 C 
ATOM     33  C   UNL     1      34.145 -15.131 -22.753  0.00  0.00    +0.023 C 
ENDBRANCH  25  28
ENDBRANCH  22  25
ENDBRANCH   2  23
TORSDOF 4
ENDMDL
MODEL 6
REMARK VINA RESULT:     -11.6      3.542      6.395
REMARK  Name = 448407
REMARK  4 active torsions:
REMARK  status: ('A' for Active; 'I' for Inactive)
REMARK    1  A    between atoms: C_1  and  N_8
REMARK    2  A    between atoms: C_2  and  C_23
REMARK    3  A    between atoms: N_22  and  C_25
REMARK    4  A    between atoms: C_25  and  C_28
REMARK                            x       y       z     vdW  Elec       q    Type
REMARK                         _______ _______ _______ _____ _____    ______ ____
ROOT
ATOM      1  C   UNL     1      33.158 -14.058 -23.023  0.00  0.00    +0.090 C 
ATOM      2  C   UNL     1      34.586 -16.008 -22.730  0.00  0.00    +0.055 C 
ATOM      3  C   UNL     1      33.914 -14.908 -22.196  0.00  0.00    +0.023 C 
ATOM      4  C   UNL     1      33.093 -14.343 -24.398  0.00  0.00    +0.018 C 
ATOM      5  C   UNL     1      34.511 -16.276 -24.096  0.00  0.00    +0.005 C 
ATOM      6  C   UNL     1      33.764 -15.443 -24.930  0.00  0.00    +0.002 C 
ENDROOT
BRANCH   1   8
ATOM      7  O   UNL     1      32.768  -8.884 -23.288  0.00  0.00    -0.207 OA
ATOM      8  N   UNL     1      32.488 -12.962 -22.491  0.00  0.00    -0.137 N 
ATOM      9  N   UNL     1      32.120 -12.837 -21.189  0.00  0.00    -0.215 N 
ATOM     10  N   UNL     1      32.674 -11.718 -23.090  0.00  0.00    -0.143 NA
ATOM     11  N   UNL     1      31.771 -10.791 -19.869  0.00  0.00    -0.309 NA
ATOM     12  N   UNL     1      32.137  -8.727 -21.063  0.00  0.00    -0.251 NA
ATOM     13  N   UNL     1      31.505  -8.689 -18.838  0.00  0.00    -0.283 N 
ATOM     14  C   UNL     1      32.052 -11.516 -20.887  0.00  0.00    +0.243 C 
ATOM     15  C   UNL     1      32.418 -10.860 -22.152  0.00  0.00    +0.241 C 
ATOM     16  C   UNL     1      32.457  -9.393 -22.221  0.00  0.00    +0.239 C 
ATOM     17  C   UNL     1      31.820  -9.399 -19.975  0.00  0.00    +0.208 C 
ATOM     18  H   UNL     1      31.935 -13.579 -20.569  0.00  0.00    +0.175 HD
ATOM     19  H   UNL     1      31.265  -9.165 -18.010  0.00  0.00    +0.156 HD
ATOM     20  H   UNL     1      31.522  -7.705 -18.853  0.00  0.00    +0.156 HD
ENDBRANCH   1   8
BRANCH   2  23
ATOM     21  O   UNL     1      35.327 -16.730 -20.626  0.00  0.00    -0.270 OA
ATOM     22  N   UNL     1      36.117 -17.882 -22.477  0.00  0.00    -0.297 N 
ATOM     23  C   UNL     1      35.363 -16.877 -21.860  0.00  0.00    +0.246 C 
ATOM     24  H   UNL     1      36.100 -17.941 -23.459  0.00  0.00    +0.150 HD
BRANCH  22  25
ATOM     25  C   UNL     1      36.921 -18.837 -21.748  0.00  0.00    +0.117 C 
BRANCH  25  28
ATOM     26 CL   UNL     1      36.640 -22.260 -17.844  0.00  0.00    -0.082 Cl
ATOM     27 CL   UNL     1      32.235 -20.762 -20.577  0.00  0.00    -0.082 Cl
ATOM     28  C   UNL     1      36.082 -19.740 -20.891  0.00  0.00    -0.001 C 
ATOM     29  C   UNL     1      34.711 -19.818 -21.110  0.00  0.00    +0.009 C 
ATOM     30  C   UNL     1      36.684 -20.490 -19.887  0.00  0.00    +0.009 C 
ATOM     31  C   UNL     1      35.905 -21.329 -19.090  0.00  0.00    +0.058 C 
ATOM     32  C   UNL     1      33.932 -20.657 -20.314  0.00  0.00    +0.058 C 
ATOM     33  C   UNL     1      34.528 -21.413 -19.303  0.00  0.00    +0.023 C 
ENDBRANCH  25  28
ENDBRANCH  22  25
ENDBRANCH   2  23
TORSDOF 4
ENDMDL
MODEL 7
REMARK VINA RESULT:     -11.3      4.999     10.478
REMARK  Name = 448407
REMARK  4 active torsions:
REMARK  status: ('A' for Active; 'I' for Inactive)
REMARK    1  A    between atoms: C_1  and  N_8
REMARK    2  A    between atoms: C_2  and  C_23
REMARK    3  A    between atoms: N_22  and  C_25
REMARK    4  A    between atoms: C_25  and  C_28
REMARK                            x       y       z     vdW  Elec       q    Type
REMARK                         _______ _______ _______ _____ _____    ______ ____
ROOT
ATOM      1  C   UNL     1      34.148 -24.197 -15.021  0.00  0.00    +0.090 C 
ATOM      2  C   UNL     1      33.100 -23.252 -17.004  0.00  0.00    +0.055 C 
ATOM      3  C   UNL     1      34.186 -23.872 -16.389  0.00  0.00    +0.023 C 
ATOM      4  C   UNL     1      32.990 -23.882 -14.289  0.00  0.00    +0.018 C 
ATOM      5  C   UNL     1      31.958 -22.947 -16.264  0.00  0.00    +0.005 C 
ATOM      6  C   UNL     1      31.904 -23.263 -14.905  0.00  0.00    +0.002 C 
ENDROOT
BRANCH   1   8
ATOM      7  O   UNL     1      38.181 -23.358 -11.854  0.00  0.00    -0.207 OA
ATOM      8  N   UNL     1      35.231 -24.816 -14.407  0.00  0.00    -0.137 N 
ATOM      9  N   UNL     1      35.990 -25.789 -14.976  0.00  0.00    -0.215 N 
ATOM     10  N   UNL     1      35.952 -24.099 -13.455  0.00  0.00    -0.143 NA
ATOM     11  N   UNL     1      38.337 -26.378 -14.533  0.00  0.00    -0.309 NA
ATOM     12  N   UNL     1      39.432 -25.034 -12.855  0.00  0.00    -0.251 NA
ATOM     13  N   UNL     1      40.583 -26.734 -13.920  0.00  0.00    -0.283 N 
ATOM     14  C   UNL     1      37.228 -25.746 -14.422  0.00  0.00    +0.243 C 
ATOM     15  C   UNL     1      37.130 -24.641 -13.456  0.00  0.00    +0.241 C 
ATOM     16  C   UNL     1      38.300 -24.284 -12.644  0.00  0.00    +0.239 C 
ATOM     17  C   UNL     1      39.427 -26.008 -13.743  0.00  0.00    +0.208 C 
ATOM     18  H   UNL     1      35.693 -26.418 -15.673  0.00  0.00    +0.175 HD
ATOM     19  H   UNL     1      40.610 -27.467 -14.577  0.00  0.00    +0.156 HD
ATOM     20  H   UNL     1      41.385 -26.518 -13.390  0.00  0.00    +0.156 HD
ENDBRANCH   1   8
BRANCH   2  23
ATOM     21  O   UNL     1      33.614 -23.742 -19.239  0.00  0.00    -0.270 OA
ATOM     22  N   UNL     1      32.653 -21.676 -18.805  0.00  0.00    -0.297 N 
ATOM     23  C   UNL     1      33.155 -22.925 -18.420  0.00  0.00    +0.246 C 
ATOM     24  H   UNL     1      32.306 -21.078 -18.104  0.00  0.00    +0.150 HD
BRANCH  22  25
ATOM     25  C   UNL     1      32.619 -21.216 -20.174  0.00  0.00    +0.117 C 
BRANCH  25  28
ATOM     26 CL   UNL     1      35.030 -17.865 -23.336  0.00  0.00    -0.082 Cl
ATOM     27 CL   UNL     1      37.648 -20.254 -19.266  0.00  0.00    -0.082 Cl
ATOM     28  C   UNL     1      33.876 -20.488 -20.555  0.00  0.00    -0.001 C 
ATOM     29  C   UNL     1      35.037 -20.688 -19.817  0.00  0.00    +0.009 C 
ATOM     30  C   UNL     1      33.865 -19.620 -21.640  0.00  0.00    +0.009 C 
ATOM     31  C   UNL     1      35.032 -18.943 -21.994  0.00  0.00    +0.058 C 
ATOM     32  C   UNL     1      36.204 -20.012 -20.171  0.00  0.00    +0.058 C 
ATOM     33  C   UNL     1      36.202 -19.138 -21.259  0.00  0.00    +0.023 C 
ENDBRANCH  25  28
ENDBRANCH  22  25
ENDBRANCH   2  23
TORSDOF 4
ENDMDL
MODEL 8
REMARK VINA RESULT:     -11.1      4.975     10.648
REMARK  Name = 448407
REMARK  4 active torsions:
REMARK  status: ('A' for Active; 'I' for Inactive)
REMARK    1  A    between atoms: C_1  and  N_8
REMARK    2  A    between atoms: C_2  and  C_23
REMARK    3  A    between atoms: N_22  and  C_25
REMARK    4  A    between atoms: C_25  and  C_28
REMARK                            x       y       z     vdW  Elec       q    Type
REMARK                         _______ _______ _______ _____ _____    ______ ____
ROOT
ATOM      1  C   UNL     1      34.905 -22.847 -17.197  0.00  0.00    +0.090 C 
ATOM      2  C   UNL     1      35.194 -21.423 -19.150  0.00  0.00    +0.055 C 
ATOM      3  C   UNL     1      35.722 -22.058 -18.026  0.00  0.00    +0.023 C 
ATOM      4  C   UNL     1      33.545 -22.982 -17.528  0.00  0.00    +0.018 C 
ATOM      5  C   UNL     1      33.843 -21.567 -19.463  0.00  0.00    +0.005 C 
ATOM      6  C   UNL     1      33.019 -22.347 -18.652  0.00  0.00    +0.002 C 
ENDROOT
BRANCH   1   8
ATOM      7  O   UNL     1      33.747 -24.458 -12.395  0.00  0.00    -0.207 OA
ATOM      8  N   UNL     1      35.430 -23.481 -16.077  0.00  0.00    -0.137 N 
ATOM      9  N   UNL     1      36.703 -23.326 -15.626  0.00  0.00    -0.215 N 
ATOM     10  N   UNL     1      34.563 -23.829 -15.045  0.00  0.00    -0.143 NA
ATOM     11  N   UNL     1      37.575 -23.576 -13.340  0.00  0.00    -0.309 NA
ATOM     12  N   UNL     1      35.934 -24.182 -11.677  0.00  0.00    -0.251 NA
ATOM     13  N   UNL     1      38.146 -23.879 -11.074  0.00  0.00    -0.283 N 
ATOM     14  C   UNL     1      36.716 -23.564 -14.290  0.00  0.00    +0.243 C 
ATOM     15  C   UNL     1      35.312 -23.881 -13.988  0.00  0.00    +0.241 C 
ATOM     16  C   UNL     1      34.923 -24.202 -12.608  0.00  0.00    +0.239 C 
ATOM     17  C   UNL     1      37.166 -23.886 -12.041  0.00  0.00    +0.208 C 
ATOM     18  H   UNL     1      37.483 -23.081 -16.174  0.00  0.00    +0.175 HD
ATOM     19  H   UNL     1      39.075 -23.661 -11.316  0.00  0.00    +0.156 HD
ATOM     20  H   UNL     1      37.917 -24.090 -10.140  0.00  0.00    +0.156 HD
ENDBRANCH   1   8
BRANCH   2  23
ATOM     21  O   UNL     1      37.231 -20.953 -20.213  0.00  0.00    -0.270 OA
ATOM     22  N   UNL     1      35.488 -19.462 -20.562  0.00  0.00    -0.297 N 
ATOM     23  C   UNL     1      36.054 -20.611 -19.997  0.00  0.00    +0.246 C 
ATOM     24  H   UNL     1      34.552 -19.251 -20.347  0.00  0.00    +0.150 HD
BRANCH  22  25
ATOM     25  C   UNL     1      36.207 -18.569 -21.441  0.00  0.00    +0.117 C 
BRANCH  25  28
ATOM     26 CL   UNL     1      34.428 -14.397 -23.985  0.00  0.00    -0.082 Cl
ATOM     27 CL   UNL     1      32.734 -19.367 -25.228  0.00  0.00    -0.082 Cl
ATOM     28  C   UNL     1      35.319 -17.999 -22.511  0.00  0.00    -0.001 C 
ATOM     29  C   UNL     1      34.534 -18.851 -23.279  0.00  0.00    +0.009 C 
ATOM     30  C   UNL     1      35.292 -16.625 -22.722  0.00  0.00    +0.009 C 
ATOM     31  C   UNL     1      34.469 -16.096 -23.715  0.00  0.00    +0.058 C 
ATOM     32  C   UNL     1      33.710 -18.322 -24.272  0.00  0.00    +0.058 C 
ATOM     33  C   UNL     1      33.677 -16.944 -24.491  0.00  0.00    +0.023 C 
ENDBRANCH  25  28
ENDBRANCH  22  25
ENDBRANCH   2  23
TORSDOF 4
ENDMDL
MODEL 9
REMARK VINA RESULT:     -11.1      4.974     10.648
REMARK  Name = 448407
REMARK  4 active torsions:
REMARK  status: ('A' for Active; 'I' for Inactive)
REMARK    1  A    between atoms: C_1  and  N_8
REMARK    2  A    between atoms: C_2  and  C_23
REMARK    3  A    between atoms: N_22  and  C_25
REMARK    4  A    between atoms: C_25  and  C_28
REMARK                            x       y       z     vdW  Elec       q    Type
REMARK                         _______ _______ _______ _____ _____    ______ ____
ROOT
ATOM      1  C   UNL     1      34.860 -22.965 -17.054  0.00  0.00    +0.090 C 
ATOM      2  C   UNL     1      35.165 -21.599 -19.046  0.00  0.00    +0.055 C 
ATOM      3  C   UNL     1      35.689 -22.221 -17.913  0.00  0.00    +0.023 C 
ATOM      4  C   UNL     1      33.493 -23.068 -17.364  0.00  0.00    +0.018 C 
ATOM      5  C   UNL     1      33.806 -21.712 -19.339  0.00  0.00    +0.005 C 
ATOM      6  C   UNL     1      32.970 -22.446 -18.497  0.00  0.00    +0.002 C 
ENDROOT
BRANCH   1   8
ATOM      7  O   UNL     1      33.629 -24.717 -12.320  0.00  0.00    -0.207 OA
ATOM      8  N   UNL     1      35.382 -23.585 -15.925  0.00  0.00    -0.137 N 
ATOM      9  N   UNL     1      36.626 -23.364 -15.425  0.00  0.00    -0.215 N 
ATOM     10  N   UNL     1      34.500 -23.999 -14.930  0.00  0.00    -0.143 NA
ATOM     11  N   UNL     1      37.430 -23.600 -13.113  0.00  0.00    -0.309 NA
ATOM     12  N   UNL     1      35.769 -24.326 -11.520  0.00  0.00    -0.251 NA
ATOM     13  N   UNL     1      37.937 -23.905 -10.832  0.00  0.00    -0.283 N 
ATOM     14  C   UNL     1      36.606 -23.622 -14.094  0.00  0.00    +0.243 C 
ATOM     15  C   UNL     1      35.213 -24.025 -13.847  0.00  0.00    +0.241 C 
ATOM     16  C   UNL     1      34.795 -24.390 -12.487  0.00  0.00    +0.239 C 
ATOM     17  C   UNL     1      36.994 -23.954 -11.834  0.00  0.00    +0.208 C 
ATOM     18  H   UNL     1      37.410 -23.065 -15.941  0.00  0.00    +0.175 HD
ATOM     19  H   UNL     1      38.860 -23.630 -11.037  0.00  0.00    +0.156 HD
ATOM     20  H   UNL     1      37.688 -24.144  -9.910  0.00  0.00    +0.156 HD
ENDBRANCH   1   8
BRANCH   2  23
ATOM     21  O   UNL     1      37.134 -21.299 -20.284  0.00  0.00    -0.270 OA
ATOM     22  N   UNL     1      35.571 -19.586 -20.353  0.00  0.00    -0.297 N 
ATOM     23  C   UNL     1      36.036 -20.835 -19.925  0.00  0.00    +0.246 C 
ATOM     24  H   UNL     1      34.693 -19.281 -20.029  0.00  0.00    +0.150 HD
BRANCH  22  25
ATOM     25  C   UNL     1      36.310 -18.722 -21.244  0.00  0.00    +0.117 C 
BRANCH  25  28
ATOM     26 CL   UNL     1      32.941 -19.473 -25.133  0.00  0.00    -0.082 Cl
ATOM     27 CL   UNL     1      34.494 -14.510 -23.693  0.00  0.00    -0.082 Cl
ATOM     28  C   UNL     1      35.434 -18.137 -22.314  0.00  0.00    -0.001 C 
ATOM     29  C   UNL     1      35.380 -16.758 -22.482  0.00  0.00    +0.009 C 
ATOM     30  C   UNL     1      34.686 -18.981 -23.127  0.00  0.00    +0.009 C 
ATOM     31  C   UNL     1      33.872 -18.438 -24.122  0.00  0.00    +0.058 C 
ATOM     32  C   UNL     1      34.567 -16.215 -23.476  0.00  0.00    +0.058 C 
ATOM     33  C   UNL     1      33.812 -17.055 -24.296  0.00  0.00    +0.023 C 
ENDBRANCH  25  28
ENDBRANCH  22  25
ENDBRANCH   2  23
TORSDOF 4
ENDMDL
