MODEL 1
REMARK VINA RESULT:     -12.8      0.000      0.000
REMARK  Name = 11740318
REMARK  5 active torsions:
REMARK  status: ('A' for Active; 'I' for Inactive)
REMARK    1  A    between atoms: N_1  and  C_20
REMARK    2  A    between atoms: C_2  and  O_8
REMARK    3  A    between atoms: O_8  and  C_9
REMARK    4  A    between atoms: C_14  and  N_15
REMARK    5  A    between atoms: C_20  and  C_23
REMARK                            x       y       z     vdW  Elec       q    Type
REMARK                         _______ _______ _______ _____ _____    ______ ____
ROOT
ATOM      1  N   UNL     1      33.903 -23.613 -14.008  0.00  0.00    +0.392 N 
ATOM      2  C   UNL     1      33.826 -23.117 -16.433  0.00  0.00    +0.145 C 
ATOM      3  C   UNL     1      34.545 -23.863 -15.305  0.00  0.00    -0.032 C 
ATOM      4  C   UNL     1      32.344 -23.480 -16.476  0.00  0.00    +0.039 C 
ATOM      5  C   UNL     1      31.708 -23.290 -15.106  0.00  0.00    -0.019 C 
ATOM      6  C   UNL     1      32.495 -24.031 -14.023  0.00  0.00    -0.077 C 
ATOM      7  H   UNL     1      33.930 -22.608 -13.834  0.00  0.00    -0.079 HD
ENDROOT
BRANCH   2   8
ATOM      8  O   UNL     1      34.412 -23.456 -17.685  0.00  0.00    -0.481 OA
BRANCH   8   9
ATOM      9  C   UNL     1      34.538 -22.446 -18.600  0.00  0.00    +0.138 C 
ATOM     10  C   UNL     1      33.399 -21.854 -19.134  0.00  0.00    +0.038 C 
ATOM     11  C   UNL     1      35.805 -22.021 -18.987  0.00  0.00    +0.038 C 
ATOM     12  C   UNL     1      33.528 -20.824 -20.067  0.00  0.00    +0.018 C 
ATOM     13  C   UNL     1      35.934 -20.992 -19.919  0.00  0.00    +0.018 C 
ATOM     14  C   UNL     1      34.795 -20.393 -20.459  0.00  0.00    +0.057 C 
BRANCH  14  15
ATOM     15  N   UNL     1      34.923 -19.372 -21.383  0.00  0.00    -0.246 N 
ATOM     16  N   UNL     1      35.386 -17.360 -22.224  0.00  0.00    -0.224 NA
ATOM     17  C   UNL     1      34.625 -19.436 -22.720  0.00  0.00    +0.092 C 
ATOM     18  C   UNL     1      35.377 -18.100 -21.138  0.00  0.00    +0.172 C 
ATOM     19  C   UNL     1      34.918 -18.188 -23.214  0.00  0.00    +0.117 C 
ENDBRANCH  14  15
ENDBRANCH   8   9
ENDBRANCH   2   8
BRANCH   1  20
ATOM     20  C   UNL     1      34.629 -24.294 -12.937  0.00  0.00    -0.050 C 
BRANCH  20  23
ATOM     21  O   UNL     1      39.523 -24.813 -13.344  0.00  0.00    -0.435 OA
ATOM     22  O   UNL     1      39.316 -26.745 -14.768  0.00  0.00    -0.435 OA
ATOM     23  C   UNL     1      35.870 -24.978 -13.448  0.00  0.00    -0.040 C 
ATOM     24  C   UNL     1      37.118 -24.483 -13.087  0.00  0.00    +0.034 C 
ATOM     25  C   UNL     1      35.738 -26.100 -14.275  0.00  0.00    -0.003 C 
ATOM     26  C   UNL     1      38.224 -25.144 -13.580  0.00  0.00    +0.176 C 
ATOM     27  C   UNL     1      36.875 -26.751 -14.760  0.00  0.00    +0.040 C 
ATOM     28  C   UNL     1      38.106 -26.247 -14.394  0.00  0.00    +0.176 C 
ATOM     29  C   UNL     1      40.209 -25.833 -14.098  0.00  0.00    +0.429 C 
ENDBRANCH  20  23
ENDBRANCH   1  20
TORSDOF 5
ENDMDL
MODEL 2
REMARK VINA RESULT:     -12.4      4.719      8.778
REMARK  Name = 11740318
REMARK  5 active torsions:
REMARK  status: ('A' for Active; 'I' for Inactive)
REMARK    1  A    between atoms: N_1  and  C_20
REMARK    2  A    between atoms: C_2  and  O_8
REMARK    3  A    between atoms: O_8  and  C_9
REMARK    4  A    between atoms: C_14  and  N_15
REMARK    5  A    between atoms: C_20  and  C_23
REMARK                            x       y       z     vdW  Elec       q    Type
REMARK                         _______ _______ _______ _____ _____    ______ ____
ROOT
ATOM      1  N   UNL     1      34.902 -19.162 -22.026  0.00  0.00    +0.392 N 
ATOM      2  C   UNL     1      34.672 -16.931 -23.074  0.00  0.00    +0.145 C 
ATOM      3  C   UNL     1      35.490 -17.821 -22.133  0.00  0.00    -0.032 C 
ATOM      4  C   UNL     1      34.523 -17.575 -24.450  0.00  0.00    +0.039 C 
ATOM      5  C   UNL     1      33.986 -18.994 -24.319  0.00  0.00    -0.019 C 
ATOM      6  C   UNL     1      34.826 -19.816 -23.340  0.00  0.00    -0.077 C 
ATOM      7  H   UNL     1      33.951 -19.060 -21.671  0.00  0.00    -0.079 HD
ENDROOT
BRANCH   2   8
ATOM      8  O   UNL     1      35.321 -15.674 -23.231  0.00  0.00    -0.481 OA
BRANCH   8   9
ATOM      9  C   UNL     1      34.567 -14.557 -22.985  0.00  0.00    +0.138 C 
ATOM     10  C   UNL     1      34.083 -14.322 -21.703  0.00  0.00    +0.038 C 
ATOM     11  C   UNL     1      34.294 -13.668 -24.019  0.00  0.00    +0.038 C 
ATOM     12  C   UNL     1      33.315 -13.184 -21.451  0.00  0.00    +0.018 C 
ATOM     13  C   UNL     1      33.527 -12.531 -23.768  0.00  0.00    +0.018 C 
ATOM     14  C   UNL     1      33.037 -12.289 -22.484  0.00  0.00    +0.057 C 
BRANCH  14  15
ATOM     15  N   UNL     1      32.277 -11.160 -22.235  0.00  0.00    -0.246 N 
ATOM     16  N   UNL     1      30.945  -9.733 -21.160  0.00  0.00    -0.224 NA
ATOM     17  C   UNL     1      32.095 -10.095 -23.079  0.00  0.00    +0.092 C 
ATOM     18  C   UNL     1      31.563 -10.891 -21.094  0.00  0.00    +0.172 C 
ATOM     19  C   UNL     1      31.273  -9.231 -22.395  0.00  0.00    +0.117 C 
ENDBRANCH  14  15
ENDBRANCH   8   9
ENDBRANCH   2   8
BRANCH   1  20
ATOM     20  C   UNL     1      35.667 -19.983 -21.088  0.00  0.00    -0.050 C 
BRANCH  20  23
ATOM     21  O   UNL     1      34.826 -23.301 -17.529  0.00  0.00    -0.435 OA
ATOM     22  O   UNL     1      32.443 -22.957 -17.612  0.00  0.00    -0.435 OA
ATOM     23  C   UNL     1      34.770 -20.766 -20.167  0.00  0.00    -0.040 C 
ATOM     24  C   UNL     1      35.333 -21.677 -19.280  0.00  0.00    +0.034 C 
ATOM     25  C   UNL     1      33.386 -20.559 -20.223  0.00  0.00    -0.003 C 
ATOM     26  C   UNL     1      34.471 -22.370 -18.457  0.00  0.00    +0.176 C 
ATOM     27  C   UNL     1      32.535 -21.274 -19.378  0.00  0.00    +0.040 C 
ATOM     28  C   UNL     1      33.109 -22.175 -18.505  0.00  0.00    +0.176 C 
ATOM     29  C   UNL     1      33.537 -23.667 -16.997  0.00  0.00    +0.429 C 
ENDBRANCH  20  23
ENDBRANCH   1  20
TORSDOF 5
ENDMDL
MODEL 3
REMARK VINA RESULT:     -11.5      3.620      7.189
REMARK  Name = 11740318
REMARK  5 active torsions:
REMARK  status: ('A' for Active; 'I' for Inactive)
REMARK    1  A    between atoms: N_1  and  C_20
REMARK    2  A    between atoms: C_2  and  O_8
REMARK    3  A    between atoms: O_8  and  C_9
REMARK    4  A    between atoms: C_14  and  N_15
REMARK    5  A    between atoms: C_20  and  C_23
REMARK                            x       y       z     vdW  Elec       q    Type
REMARK                         _______ _______ _______ _____ _____    ______ ____
ROOT
ATOM      1  N   UNL     1      36.188 -23.342 -14.072  0.00  0.00    +0.392 N 
ATOM      2  C   UNL     1      34.198 -24.061 -12.786  0.00  0.00    +0.145 C 
ATOM      3  C   UNL     1      34.992 -24.193 -14.089  0.00  0.00    -0.032 C 
ATOM      4  C   UNL     1      35.073 -24.371 -11.575  0.00  0.00    +0.039 C 
ATOM      5  C   UNL     1      36.347 -23.538 -11.610  0.00  0.00    -0.019 C 
ATOM      6  C   UNL     1      37.071 -23.688 -12.950  0.00  0.00    -0.077 C 
ATOM      7  H   UNL     1      35.884 -22.377 -13.946  0.00  0.00    -0.079 HD
ENDROOT
BRANCH   2   8
ATOM      8  O   UNL     1      33.102 -24.969 -12.796  0.00  0.00    -0.481 OA
BRANCH   8   9
ATOM      9  C   UNL     1      31.994 -24.588 -13.505  0.00  0.00    +0.138 C 
ATOM     10  C   UNL     1      31.953 -23.330 -14.096  0.00  0.00    +0.038 C 
ATOM     11  C   UNL     1      30.920 -25.463 -13.628  0.00  0.00    +0.038 C 
ATOM     12  C   UNL     1      30.823 -22.942 -14.819  0.00  0.00    +0.018 C 
ATOM     13  C   UNL     1      29.792 -25.076 -14.351  0.00  0.00    +0.018 C 
ATOM     14  C   UNL     1      29.744 -23.815 -14.946  0.00  0.00    +0.057 C 
BRANCH  14  15
ATOM     15  N   UNL     1      28.625 -23.432 -15.663  0.00  0.00    -0.246 N 
ATOM     16  N   UNL     1      27.118 -23.357 -17.304  0.00  0.00    -0.224 NA
ATOM     17  C   UNL     1      27.697 -22.493 -15.290  0.00  0.00    +0.092 C 
ATOM     18  C   UNL     1      28.228 -23.920 -16.883  0.00  0.00    +0.172 C 
ATOM     19  C   UNL     1      26.782 -22.466 -16.316  0.00  0.00    +0.117 C 
ENDBRANCH  14  15
ENDBRANCH   8   9
ENDBRANCH   2   8
BRANCH   1  20
ATOM     20  C   UNL     1      36.908 -23.444 -15.341  0.00  0.00    -0.050 C 
BRANCH  20  23
ATOM     21  O   UNL     1      36.287 -20.824 -19.480  0.00  0.00    -0.435 OA
ATOM     22  O   UNL     1      33.971 -21.461 -19.673  0.00  0.00    -0.435 OA
ATOM     23  C   UNL     1      36.088 -22.929 -16.494  0.00  0.00    -0.040 C 
ATOM     24  C   UNL     1      36.683 -22.093 -17.432  0.00  0.00    +0.034 C 
ATOM     25  C   UNL     1      34.743 -23.305 -16.597  0.00  0.00    -0.003 C 
ATOM     26  C   UNL     1      35.891 -21.647 -18.470  0.00  0.00    +0.176 C 
ATOM     27  C   UNL     1      33.964 -22.840 -17.658  0.00  0.00    +0.040 C 
ATOM     28  C   UNL     1      34.568 -22.010 -18.580  0.00  0.00    +0.176 C 
ATOM     29  C   UNL     1      35.065 -20.712 -20.238  0.00  0.00    +0.429 C 
ENDBRANCH  20  23
ENDBRANCH   1  20
TORSDOF 5
ENDMDL
MODEL 4
REMARK VINA RESULT:     -11.4      3.247     10.110
REMARK  Name = 11740318
REMARK  5 active torsions:
REMARK  status: ('A' for Active; 'I' for Inactive)
REMARK    1  A    between atoms: N_1  and  C_20
REMARK    2  A    between atoms: C_2  and  O_8
REMARK    3  A    between atoms: O_8  and  C_9
REMARK    4  A    between atoms: C_14  and  N_15
REMARK    5  A    between atoms: C_20  and  C_23
REMARK                            x       y       z     vdW  Elec       q    Type
REMARK                         _______ _______ _______ _____ _____    ______ ____
ROOT
ATOM      1  N   UNL     1      35.130 -20.201 -20.981  0.00  0.00    +0.392 N 
ATOM      2  C   UNL     1      34.933 -22.040 -19.336  0.00  0.00    +0.145 C 
ATOM      3  C   UNL     1      35.758 -20.845 -19.820  0.00  0.00    -0.032 C 
ATOM      4  C   UNL     1      33.497 -21.628 -19.023  0.00  0.00    +0.039 C 
ATOM      5  C   UNL     1      32.883 -20.893 -20.207  0.00  0.00    -0.019 C 
ATOM      6  C   UNL     1      33.774 -19.734 -20.662  0.00  0.00    -0.077 C 
ATOM      7  H   UNL     1      35.056 -20.897 -21.723  0.00  0.00    -0.079 HD
ENDROOT
BRANCH   2   8
ATOM      8  O   UNL     1      35.515 -22.580 -18.155  0.00  0.00    -0.481 OA
BRANCH   8   9
ATOM      9  C   UNL     1      34.654 -22.963 -17.162  0.00  0.00    +0.138 C 
ATOM     10  C   UNL     1      35.080 -22.954 -15.838  0.00  0.00    +0.038 C 
ATOM     11  C   UNL     1      33.360 -23.356 -17.486  0.00  0.00    +0.038 C 
ATOM     12  C   UNL     1      34.202 -23.343 -14.826  0.00  0.00    +0.018 C 
ATOM     13  C   UNL     1      32.482 -23.745 -16.474  0.00  0.00    +0.018 C 
ATOM     14  C   UNL     1      32.903 -23.739 -15.144  0.00  0.00    +0.057 C 
BRANCH  14  15
ATOM     15  N   UNL     1      32.032 -24.124 -14.141  0.00  0.00    -0.246 N 
ATOM     16  N   UNL     1      30.844 -24.037 -12.257  0.00  0.00    -0.224 NA
ATOM     17  C   UNL     1      31.329 -25.300 -14.076  0.00  0.00    +0.092 C 
ATOM     18  C   UNL     1      31.703 -23.401 -13.022  0.00  0.00    +0.172 C 
ATOM     19  C   UNL     1      30.606 -25.221 -12.909  0.00  0.00    +0.117 C 
ENDBRANCH  14  15
ENDBRANCH   8   9
ENDBRANCH   2   8
BRANCH   1  20
ATOM     20  C   UNL     1      35.955 -19.092 -21.459  0.00  0.00    -0.050 C 
BRANCH  20  23
ATOM     21  O   UNL     1      34.441 -14.909 -23.604  0.00  0.00    -0.435 OA
ATOM     22  O   UNL     1      33.439 -16.084 -25.453  0.00  0.00    -0.435 OA
ATOM     23  C   UNL     1      35.269 -18.314 -22.552  0.00  0.00    -0.040 C 
ATOM     24  C   UNL     1      35.228 -16.926 -22.475  0.00  0.00    +0.034 C 
ATOM     25  C   UNL     1      34.690 -19.006 -23.622  0.00  0.00    -0.003 C 
ATOM     26  C   UNL     1      34.589 -16.258 -23.500  0.00  0.00    +0.176 C 
ATOM     27  C   UNL     1      34.050 -18.305 -24.646  0.00  0.00    +0.040 C 
ATOM     28  C   UNL     1      34.016 -16.929 -24.555  0.00  0.00    +0.176 C 
ATOM     29  C   UNL     1      33.713 -14.806 -24.844  0.00  0.00    +0.429 C 
ENDBRANCH  20  23
ENDBRANCH   1  20
TORSDOF 5
ENDMDL
MODEL 5
REMARK VINA RESULT:     -11.2      6.579     10.626
REMARK  Name = 11740318
REMARK  5 active torsions:
REMARK  status: ('A' for Active; 'I' for Inactive)
REMARK    1  A    between atoms: N_1  and  C_20
REMARK    2  A    between atoms: C_2  and  O_8
REMARK    3  A    between atoms: O_8  and  C_9
REMARK    4  A    between atoms: C_14  and  N_15
REMARK    5  A    between atoms: C_20  and  C_23
REMARK                            x       y       z     vdW  Elec       q    Type
REMARK                         _______ _______ _______ _____ _____    ______ ____
ROOT
ATOM      1  N   UNL     1      35.205 -16.423 -22.369  0.00  0.00    +0.392 N 
ATOM      2  C   UNL     1      34.182 -14.191 -22.685  0.00  0.00    +0.145 C 
ATOM      3  C   UNL     1      34.299 -15.627 -23.206  0.00  0.00    -0.032 C 
ATOM      4  C   UNL     1      33.740 -14.169 -21.225  0.00  0.00    +0.039 C 
ATOM      5  C   UNL     1      34.641 -15.061 -20.381  0.00  0.00    -0.019 C 
ATOM      6  C   UNL     1      34.741 -16.467 -20.975  0.00  0.00    -0.077 C 
ATOM      7  H   UNL     1      36.120 -15.973 -22.381  0.00  0.00    -0.079 HD
ENDROOT
BRANCH   2   8
ATOM      8  O   UNL     1      33.226 -13.476 -23.459  0.00  0.00    -0.481 OA
BRANCH   8   9
ATOM      9  C   UNL     1      32.964 -12.187 -23.077  0.00  0.00    +0.138 C 
ATOM     10  C   UNL     1      31.869 -11.919 -22.262  0.00  0.00    +0.038 C 
ATOM     11  C   UNL     1      33.795 -11.158 -23.505  0.00  0.00    +0.038 C 
ATOM     12  C   UNL     1      31.601 -10.606 -21.873  0.00  0.00    +0.018 C 
ATOM     13  C   UNL     1      33.528  -9.846 -23.116  0.00  0.00    +0.018 C 
ATOM     14  C   UNL     1      32.431  -9.570 -22.299  0.00  0.00    +0.057 C 
BRANCH  14  15
ATOM     15  N   UNL     1      32.168  -8.269 -21.912  0.00  0.00    -0.246 N 
ATOM     16  N   UNL     1      32.384  -6.317 -20.856  0.00  0.00    -0.224 NA
ATOM     17  C   UNL     1      31.143  -7.474 -22.359  0.00  0.00    +0.092 C 
ATOM     18  C   UNL     1      32.884  -7.523 -21.009  0.00  0.00    +0.172 C 
ATOM     19  C   UNL     1      31.298  -6.281 -21.695  0.00  0.00    +0.117 C 
ENDBRANCH  14  15
ENDBRANCH   8   9
ENDBRANCH   2   8
BRANCH   1  20
ATOM     20  C   UNL     1      35.342 -17.777 -22.906  0.00  0.00    -0.050 C 
BRANCH  20  23
ATOM     21  O   UNL     1      34.153 -21.470 -19.852  0.00  0.00    -0.435 OA
ATOM     22  O   UNL     1      36.366 -21.552 -18.903  0.00  0.00    -0.435 OA
ATOM     23  C   UNL     1      35.652 -18.780 -21.827  0.00  0.00    -0.040 C 
ATOM     24  C   UNL     1      34.654 -19.646 -21.396  0.00  0.00    +0.034 C 
ATOM     25  C   UNL     1      36.941 -18.819 -21.282  0.00  0.00    -0.003 C 
ATOM     26  C   UNL     1      34.986 -20.548 -20.406  0.00  0.00    +0.176 C 
ATOM     27  C   UNL     1      37.252 -19.742 -20.281  0.00  0.00    +0.040 C 
ATOM     28  C   UNL     1      36.250 -20.594 -19.863  0.00  0.00    +0.176 C 
ATOM     29  C   UNL     1      35.034 -22.103 -18.902  0.00  0.00    +0.429 C 
ENDBRANCH  20  23
ENDBRANCH   1  20
TORSDOF 5
ENDMDL
MODEL 6
REMARK VINA RESULT:     -10.8      2.965      5.503
REMARK  Name = 11740318
REMARK  5 active torsions:
REMARK  status: ('A' for Active; 'I' for Inactive)
REMARK    1  A    between atoms: N_1  and  C_20
REMARK    2  A    between atoms: C_2  and  O_8
REMARK    3  A    between atoms: O_8  and  C_9
REMARK    4  A    between atoms: C_14  and  N_15
REMARK    5  A    between atoms: C_20  and  C_23
REMARK                            x       y       z     vdW  Elec       q    Type
REMARK                         _______ _______ _______ _____ _____    ______ ____
ROOT
ATOM      1  N   UNL     1      33.778 -23.909 -14.745  0.00  0.00    +0.392 N 
ATOM      2  C   UNL     1      34.252 -23.863 -17.175  0.00  0.00    +0.145 C 
ATOM      3  C   UNL     1      33.177 -23.854 -16.084  0.00  0.00    -0.032 C 
ATOM      4  C   UNL     1      35.249 -22.724 -16.975  0.00  0.00    +0.039 C 
ATOM      5  C   UNL     1      35.806 -22.745 -15.558  0.00  0.00    -0.019 C 
ATOM      6  C   UNL     1      34.681 -22.772 -14.521  0.00  0.00    -0.077 C 
ATOM      7  H   UNL     1      34.330 -24.764 -14.684  0.00  0.00    -0.079 HD
ENDROOT
BRANCH   2   8
ATOM      8  O   UNL     1      33.643 -23.712 -18.452  0.00  0.00    -0.481 OA
BRANCH   8   9
ATOM      9  C   UNL     1      33.961 -22.582 -19.157  0.00  0.00    +0.138 C 
ATOM     10  C   UNL     1      35.278 -22.356 -19.539  0.00  0.00    +0.038 C 
ATOM     11  C   UNL     1      32.962 -21.670 -19.484  0.00  0.00    +0.038 C 
ATOM     12  C   UNL     1      35.602 -21.203 -20.257  0.00  0.00    +0.018 C 
ATOM     13  C   UNL     1      33.286 -20.519 -20.202  0.00  0.00    +0.018 C 
ATOM     14  C   UNL     1      34.606 -20.286 -20.589  0.00  0.00    +0.057 C 
BRANCH  14  15
ATOM     15  N   UNL     1      34.926 -19.145 -21.301  0.00  0.00    -0.246 N 
ATOM     16  N   UNL     1      35.278 -17.797 -23.042  0.00  0.00    -0.224 NA
ATOM     17  C   UNL     1      35.295 -17.931 -20.779  0.00  0.00    +0.092 C 
ATOM     18  C   UNL     1      34.932 -19.008 -22.667  0.00  0.00    +0.172 C 
ATOM     19  C   UNL     1      35.506 -17.121 -21.869  0.00  0.00    +0.117 C 
ENDBRANCH  14  15
ENDBRANCH   8   9
ENDBRANCH   2   8
BRANCH   1  20
ATOM     20  C   UNL     1      32.737 -23.947 -13.718  0.00  0.00    -0.050 C 
BRANCH  20  23
ATOM     21  O   UNL     1      28.943 -22.398 -16.472  0.00  0.00    -0.435 OA
ATOM     22  O   UNL     1      27.647 -24.376 -16.005  0.00  0.00    -0.435 OA
ATOM     23  C   UNL     1      31.364 -24.095 -14.317  0.00  0.00    -0.040 C 
ATOM     24  C   UNL     1      30.865 -23.086 -15.133  0.00  0.00    +0.034 C 
ATOM     25  C   UNL     1      30.620 -25.248 -14.040  0.00  0.00    -0.003 C 
ATOM     26  C   UNL     1      29.602 -23.268 -15.658  0.00  0.00    +0.176 C 
ATOM     27  C   UNL     1      29.344 -25.407 -14.585  0.00  0.00    +0.040 C 
ATOM     28  C   UNL     1      28.862 -24.397 -15.391  0.00  0.00    +0.176 C 
ATOM     29  C   UNL     1      27.706 -23.108 -16.689  0.00  0.00    +0.429 C 
ENDBRANCH  20  23
ENDBRANCH   1  20
TORSDOF 5
ENDMDL
MODEL 7
REMARK VINA RESULT:     -10.6      2.414      5.565
REMARK  Name = 11740318
REMARK  5 active torsions:
REMARK  status: ('A' for Active; 'I' for Inactive)
REMARK    1  A    between atoms: N_1  and  C_20
REMARK    2  A    between atoms: C_2  and  O_8
REMARK    3  A    between atoms: O_8  and  C_9
REMARK    4  A    between atoms: C_14  and  N_15
REMARK    5  A    between atoms: C_20  and  C_23
REMARK                            x       y       z     vdW  Elec       q    Type
REMARK                         _______ _______ _______ _____ _____    ______ ____
ROOT
ATOM      1  N   UNL     1      33.822 -24.206 -14.405  0.00  0.00    +0.392 N 
ATOM      2  C   UNL     1      35.840 -23.696 -15.746  0.00  0.00    +0.145 C 
ATOM      3  C   UNL     1      34.689 -23.132 -14.907  0.00  0.00    -0.032 C 
ATOM      4  C   UNL     1      36.644 -24.725 -14.957  0.00  0.00    +0.039 C 
ATOM      5  C   UNL     1      35.724 -25.790 -14.376  0.00  0.00    -0.019 C 
ATOM      6  C   UNL     1      34.579 -25.159 -13.581  0.00  0.00    -0.077 C 
ATOM      7  H   UNL     1      33.451 -24.712 -15.209  0.00  0.00    -0.079 HD
ENDROOT
BRANCH   2   8
ATOM      8  O   UNL     1      36.712 -22.641 -16.135  0.00  0.00    -0.481 OA
BRANCH   8   9
ATOM      9  C   UNL     1      36.417 -21.997 -17.307  0.00  0.00    +0.138 C 
ATOM     10  C   UNL     1      35.294 -22.375 -18.036  0.00  0.00    +0.038 C 
ATOM     11  C   UNL     1      37.241 -20.971 -17.757  0.00  0.00    +0.038 C 
ATOM     12  C   UNL     1      34.993 -21.719 -19.231  0.00  0.00    +0.018 C 
ATOM     13  C   UNL     1      36.940 -20.316 -18.951  0.00  0.00    +0.018 C 
ATOM     14  C   UNL     1      35.815 -20.690 -19.687  0.00  0.00    +0.057 C 
BRANCH  14  15
ATOM     15  N   UNL     1      35.517 -20.039 -20.871  0.00  0.00    -0.246 N 
ATOM     16  N   UNL     1      34.371 -19.400 -22.673  0.00  0.00    -0.224 NA
ATOM     17  C   UNL     1      36.323 -19.160 -21.547  0.00  0.00    +0.092 C 
ATOM     18  C   UNL     1      34.353 -20.147 -21.592  0.00  0.00    +0.172 C 
ATOM     19  C   UNL     1      35.596 -18.781 -22.650  0.00  0.00    +0.117 C 
ENDBRANCH  14  15
ENDBRANCH   8   9
ENDBRANCH   2   8
BRANCH   1  20
ATOM     20  C   UNL     1      32.703 -23.649 -13.646  0.00  0.00    -0.050 C 
BRANCH  20  23
ATOM     21  O   UNL     1      28.950 -22.456 -16.625  0.00  0.00    -0.435 OA
ATOM     22  O   UNL     1      27.800 -24.529 -16.196  0.00  0.00    -0.435 OA
ATOM     23  C   UNL     1      31.382 -23.918 -14.315  0.00  0.00    -0.040 C 
ATOM     24  C   UNL     1      30.846 -22.964 -15.173  0.00  0.00    +0.034 C 
ATOM     25  C   UNL     1      30.721 -25.126 -14.059  0.00  0.00    -0.003 C 
ATOM     26  C   UNL     1      29.634 -23.257 -15.762  0.00  0.00    +0.176 C 
ATOM     27  C   UNL     1      29.495 -25.398 -14.669  0.00  0.00    +0.040 C 
ATOM     28  C   UNL     1      28.976 -24.441 -15.517  0.00  0.00    +0.176 C 
ATOM     29  C   UNL     1      27.790 -23.268 -16.896  0.00  0.00    +0.429 C 
ENDBRANCH  20  23
ENDBRANCH   1  20
TORSDOF 5
ENDMDL
MODEL 8
REMARK VINA RESULT:     -10.4     10.106     14.541
REMARK  Name = 11740318
REMARK  5 active torsions:
REMARK  status: ('A' for Active; 'I' for Inactive)
REMARK    1  A    between atoms: N_1  and  C_20
REMARK    2  A    between atoms: C_2  and  O_8
REMARK    3  A    between atoms: O_8  and  C_9
REMARK    4  A    between atoms: C_14  and  N_15
REMARK    5  A    between atoms: C_20  and  C_23
REMARK                            x       y       z     vdW  Elec       q    Type
REMARK                         _______ _______ _______ _____ _____    ______ ____
ROOT
ATOM      1  N   UNL     1      32.996 -12.057 -22.696  0.00  0.00    +0.392 N 
ATOM      2  C   UNL     1      32.089 -10.014 -21.632  0.00  0.00    +0.145 C 
ATOM      3  C   UNL     1      32.450 -10.717 -22.944  0.00  0.00    -0.032 C 
ATOM      4  C   UNL     1      31.122 -10.855 -20.804  0.00  0.00    +0.039 C 
ATOM      5  C   UNL     1      31.665 -12.266 -20.620  0.00  0.00    -0.019 C 
ATOM      6  C   UNL     1      32.038 -12.896 -21.963  0.00  0.00    -0.077 C 
ATOM      7  H   UNL     1      33.829 -11.953 -22.116  0.00  0.00    -0.079 HD
ENDROOT
BRANCH   2   8
ATOM      8  O   UNL     1      31.474  -8.761 -21.911  0.00  0.00    -0.481 OA
BRANCH   8   9
ATOM      9  C   UNL     1      32.154  -7.913 -22.744  0.00  0.00    +0.138 C 
ATOM     10  C   UNL     1      31.557  -7.481 -23.923  0.00  0.00    +0.038 C 
ATOM     11  C   UNL     1      33.435  -7.491 -22.403  0.00  0.00    +0.038 C 
ATOM     12  C   UNL     1      32.250  -6.617 -24.773  0.00  0.00    +0.018 C 
ATOM     13  C   UNL     1      34.127  -6.628 -23.251  0.00  0.00    +0.018 C 
ATOM     14  C   UNL     1      33.534  -6.190 -24.436  0.00  0.00    +0.057 C 
BRANCH  14  15
ATOM     15  N   UNL     1      34.221  -5.333 -25.277  0.00  0.00    -0.246 N 
ATOM     16  N   UNL     1      35.854  -4.533 -26.566  0.00  0.00    -0.224 NA
ATOM     17  C   UNL     1      33.777  -4.126 -25.754  0.00  0.00    +0.092 C 
ATOM     18  C   UNL     1      35.476  -5.529 -25.797  0.00  0.00    +0.172 C 
ATOM     19  C   UNL     1      34.799  -3.655 -26.544  0.00  0.00    +0.117 C 
ENDBRANCH  14  15
ENDBRANCH   8   9
ENDBRANCH   2   8
BRANCH   1  20
ATOM     20  C   UNL     1      33.378 -12.695 -23.955  0.00  0.00    -0.050 C 
BRANCH  20  23
ATOM     21  O   UNL     1      33.442 -17.472 -25.204  0.00  0.00    -0.435 OA
ATOM     22  O   UNL     1      34.829 -18.064 -23.325  0.00  0.00    -0.435 OA
ATOM     23  C   UNL     1      33.787 -14.130 -23.755  0.00  0.00    -0.040 C 
ATOM     24  C   UNL     1      33.358 -15.093 -24.661  0.00  0.00    +0.034 C 
ATOM     25  C   UNL     1      34.593 -14.464 -22.660  0.00  0.00    -0.003 C 
ATOM     26  C   UNL     1      33.759 -16.394 -24.436  0.00  0.00    +0.176 C 
ATOM     27  C   UNL     1      34.986 -15.788 -22.455  0.00  0.00    +0.040 C 
ATOM     28  C   UNL     1      34.550 -16.732 -23.362  0.00  0.00    +0.176 C 
ATOM     29  C   UNL     1      34.124 -18.526 -24.495  0.00  0.00    +0.429 C 
ENDBRANCH  20  23
ENDBRANCH   1  20
TORSDOF 5
ENDMDL
MODEL 9
REMARK VINA RESULT:     -10.4     10.526     14.941
REMARK  Name = 11740318
REMARK  5 active torsions:
REMARK  status: ('A' for Active; 'I' for Inactive)
REMARK    1  A    between atoms: N_1  and  C_20
REMARK    2  A    between atoms: C_2  and  O_8
REMARK    3  A    between atoms: O_8  and  C_9
REMARK    4  A    between atoms: C_14  and  N_15
REMARK    5  A    between atoms: C_20  and  C_23
REMARK                            x       y       z     vdW  Elec       q    Type
REMARK                         _______ _______ _______ _____ _____    ______ ____
ROOT
ATOM      1  N   UNL     1      31.951 -10.789 -20.928  0.00  0.00    +0.392 N 
ATOM      2  C   UNL     1      32.332  -8.345 -21.039  0.00  0.00    +0.145 C 
ATOM      3  C   UNL     1      31.694  -9.569 -21.703  0.00  0.00    -0.032 C 
ATOM      4  C   UNL     1      31.854  -8.189 -19.598  0.00  0.00    +0.039 C 
ATOM      5  C   UNL     1      32.054  -9.486 -18.826  0.00  0.00    -0.019 C 
ATOM      6  C   UNL     1      31.424 -10.671 -19.561  0.00  0.00    -0.077 C 
ATOM      7  H   UNL     1      32.961 -10.914 -20.865  0.00  0.00    -0.079 HD
ENDROOT
BRANCH   2   8
ATOM      8  O   UNL     1      31.984  -7.169 -21.761  0.00  0.00    -0.481 OA
BRANCH   8   9
ATOM      9  C   UNL     1      32.739  -6.879 -22.866  0.00  0.00    +0.138 C 
ATOM     10  C   UNL     1      34.127  -6.928 -22.785  0.00  0.00    +0.038 C 
ATOM     11  C   UNL     1      32.112  -6.538 -24.060  0.00  0.00    +0.038 C 
ATOM     12  C   UNL     1      34.897  -6.632 -23.911  0.00  0.00    +0.018 C 
ATOM     13  C   UNL     1      32.881  -6.242 -25.185  0.00  0.00    +0.018 C 
ATOM     14  C   UNL     1      34.273  -6.290 -25.110  0.00  0.00    +0.057 C 
BRANCH  14  15
ATOM     15  N   UNL     1      35.036  -5.998 -26.227  0.00  0.00    -0.246 N 
ATOM     16  N   UNL     1      35.807  -6.098 -28.316  0.00  0.00    -0.224 NA
ATOM     17  C   UNL     1      36.022  -5.049 -26.318  0.00  0.00    +0.092 C 
ATOM     18  C   UNL     1      34.947  -6.599 -27.458  0.00  0.00    +0.172 C 
ATOM     19  C   UNL     1      36.480  -5.130 -27.612  0.00  0.00    +0.117 C 
ENDBRANCH  14  15
ENDBRANCH   8   9
ENDBRANCH   2   8
BRANCH   1  20
ATOM     20  C   UNL     1      31.375 -11.953 -21.600  0.00  0.00    -0.050 C 
BRANCH  20  23
ATOM     21  O   UNL     1      34.027 -15.137 -24.286  0.00  0.00    -0.435 OA
ATOM     22  O   UNL     1      35.097 -16.068 -22.338  0.00  0.00    -0.435 OA
ATOM     23  C   UNL     1      32.381 -13.062 -21.762  0.00  0.00    -0.040 C 
ATOM     24  C   UNL     1      32.679 -13.530 -23.037  0.00  0.00    +0.034 C 
ATOM     25  C   UNL     1      32.997 -13.596 -20.624  0.00  0.00    -0.003 C 
ATOM     26  C   UNL     1      33.607 -14.546 -23.134  0.00  0.00    +0.176 C 
ATOM     27  C   UNL     1      33.934 -14.623 -20.750  0.00  0.00    +0.040 C 
ATOM     28  C   UNL     1      34.218 -15.078 -22.021  0.00  0.00    +0.176 C 
ATOM     29  C   UNL     1      34.972 -16.099 -23.774  0.00  0.00    +0.429 C 
ENDBRANCH  20  23
ENDBRANCH   1  20
TORSDOF 5
ENDMDL
