MODEL 1
REMARK VINA RESULT:     -11.5      0.000      0.000
REMARK  Name = 153241
REMARK  8 active torsions:
REMARK  status: ('A' for Active; 'I' for Inactive)
REMARK    1  A    between atoms: N_2  and  C_9
REMARK    2  A    between atoms: N_3  and  C_24
REMARK    3  A    between atoms: C_7  and  C_13
REMARK    4  A    between atoms: C_13  and  N_15
REMARK    5  A    between atoms: C_16  and  O_18
REMARK    6  A    between atoms: O_18  and  C_20
REMARK    7  A    between atoms: C_25  and  C_32
REMARK    8  A    between atoms: C_26  and  O_35
REMARK                            x       y       z     vdW  Elec       q    Type
REMARK                         _______ _______ _______ _____ _____    ______ ____
ROOT
ATOM      1  O   UNL     1      35.373 -22.670 -17.626  0.00  0.00    -0.252 OA
ATOM      2  N   UNL     1      37.289 -22.402 -16.305  0.00  0.00    -0.268 N 
ATOM      3  N   UNL     1      36.995 -21.077 -18.173  0.00  0.00    -0.268 N 
ATOM      4  C   UNL     1      36.438 -22.106 -17.398  0.00  0.00    +0.308 C 
ATOM      5  H   UNL     1      38.113 -21.866 -16.248  0.00  0.00    +0.156 HD
ATOM      6  H   UNL     1      37.859 -20.722 -17.863  0.00  0.00    +0.156 HD
ENDROOT
BRANCH   2   9
ATOM      7  C   UNL     1      35.789 -24.288 -13.518  0.00  0.00    -0.001 C 
ATOM      8  C   UNL     1      35.955 -23.338 -14.520  0.00  0.00    +0.012 C 
ATOM      9  C   UNL     1      37.114 -23.351 -15.296  0.00  0.00    +0.051 C 
ATOM     10  C   UNL     1      36.765 -25.250 -13.283  0.00  0.00    -0.003 C 
ATOM     11  C   UNL     1      38.098 -24.313 -15.067  0.00  0.00    +0.015 C 
ATOM     12  C   UNL     1      37.923 -25.263 -14.061  0.00  0.00    +0.001 C 
BRANCH   7  13
ATOM     13  C   UNL     1      34.544 -24.275 -12.681  0.00  0.00    +0.119 C 
BRANCH  13  15
ATOM     14  O   UNL     1      31.835 -25.321 -12.719  0.00  0.00    -0.226 OA
ATOM     15  N   UNL     1      33.408 -23.763 -13.411  0.00  0.00    -0.267 N 
ATOM     16  C   UNL     1      32.151 -24.330 -13.367  0.00  0.00    +0.402 C 
ATOM     17  H   UNL     1      33.537 -22.964 -13.973  0.00  0.00    +0.153 HD
BRANCH  16  18
ATOM     18  O   UNL     1      31.289 -23.621 -14.163  0.00  0.00    -0.436 OA
BRANCH  18  20
ATOM     19  O   UNL     1      29.686 -22.535 -16.499  0.00  0.00    -0.350 OA
ATOM     20  C   UNL     1      30.957 -24.215 -15.413  0.00  0.00    +0.202 C 
ATOM     21  C   UNL     1      29.508 -24.635 -15.416  0.00  0.00    +0.078 C 
ATOM     22  C   UNL     1      30.986 -23.149 -16.489  0.00  0.00    +0.186 C 
ATOM     23  C   UNL     1      28.798 -23.326 -15.697  0.00  0.00    +0.146 C 
ENDBRANCH  18  20
ENDBRANCH  16  18
ENDBRANCH  13  15
ENDBRANCH   7  13
ENDBRANCH   2   9
BRANCH   3  24
ATOM     24  C   UNL     1      36.468 -20.488 -19.347  0.00  0.00    +0.055 C 
ATOM     25  C   UNL     1      35.435 -19.335 -21.645  0.00  0.00    +0.070 C 
ATOM     26  C   UNL     1      34.621 -20.127 -20.835  0.00  0.00    +0.143 C 
ATOM     27  C   UNL     1      35.140 -20.708 -19.678  0.00  0.00    +0.052 C 
ATOM     28  C   UNL     1      37.289 -19.704 -20.140  0.00  0.00    +0.015 C 
ATOM     29  C   UNL     1      36.769 -19.124 -21.297  0.00  0.00    +0.007 C 
BRANCH  25  32
ATOM     30  O   UNL     1      35.143 -17.395 -22.982  0.00  0.00    -0.431 OA
ATOM     31  N   UNL     1      33.994 -18.119 -24.792  0.00  0.00    -0.203 NA
ATOM     32  C   UNL     1      34.916 -18.725 -22.847  0.00  0.00    +0.169 C 
ATOM     33  C   UNL     1      34.222 -19.165 -23.936  0.00  0.00    +0.140 C 
ATOM     34  C   UNL     1      34.559 -17.103 -24.177  0.00  0.00    +0.285 C 
ENDBRANCH  25  32
BRANCH  26  35
ATOM     35  O   UNL     1      33.313 -20.351 -21.151  0.00  0.00    -0.471 OA
ATOM     36  C   UNL     1      32.467 -20.824 -20.106  0.00  0.00    +0.252 C 
ENDBRANCH  26  35
ENDBRANCH   3  24
TORSDOF 8
ENDMDL
MODEL 2
REMARK VINA RESULT:     -11.5      4.816      7.798
REMARK  Name = 153241
REMARK  8 active torsions:
REMARK  status: ('A' for Active; 'I' for Inactive)
REMARK    1  A    between atoms: N_2  and  C_9
REMARK    2  A    between atoms: N_3  and  C_24
REMARK    3  A    between atoms: C_7  and  C_13
REMARK    4  A    between atoms: C_13  and  N_15
REMARK    5  A    between atoms: C_16  and  O_18
REMARK    6  A    between atoms: O_18  and  C_20
REMARK    7  A    between atoms: C_25  and  C_32
REMARK    8  A    between atoms: C_26  and  O_35
REMARK                            x       y       z     vdW  Elec       q    Type
REMARK                         _______ _______ _______ _____ _____    ______ ____
ROOT
ATOM      1  O   UNL     1      34.451 -15.786 -20.520  0.00  0.00    -0.252 OA
ATOM      2  N   UNL     1      34.969 -17.362 -22.174  0.00  0.00    -0.268 N 
ATOM      3  N   UNL     1      34.219 -15.266 -22.788  0.00  0.00    -0.268 N 
ATOM      4  C   UNL     1      34.535 -16.098 -21.703  0.00  0.00    +0.308 C 
ATOM      5  H   UNL     1      34.986 -17.470 -23.153  0.00  0.00    +0.156 HD
ATOM      6  H   UNL     1      34.338 -15.658 -23.683  0.00  0.00    +0.156 HD
ENDROOT
BRANCH   2   9
ATOM      7  C   UNL     1      34.850 -20.511 -20.264  0.00  0.00    -0.001 C 
ATOM      8  C   UNL     1      34.434 -19.406 -20.999  0.00  0.00    +0.012 C 
ATOM      9  C   UNL     1      35.376 -18.474 -21.435  0.00  0.00    +0.051 C 
ATOM     10  C   UNL     1      36.194 -20.697 -19.961  0.00  0.00    -0.003 C 
ATOM     11  C   UNL     1      36.727 -18.654 -21.135  0.00  0.00    +0.015 C 
ATOM     12  C   UNL     1      37.135 -19.765 -20.398  0.00  0.00    +0.001 C 
BRANCH   7  13
ATOM     13  C   UNL     1      33.837 -21.512 -19.793  0.00  0.00    +0.119 C 
BRANCH  13  15
ATOM     14  O   UNL     1      32.400 -22.883 -17.673  0.00  0.00    -0.226 OA
ATOM     15  N   UNL     1      34.377 -22.393 -18.783  0.00  0.00    -0.267 N 
ATOM     16  C   UNL     1      33.612 -23.003 -17.811  0.00  0.00    +0.402 C 
ATOM     17  H   UNL     1      35.346 -22.568 -18.790  0.00  0.00    +0.153 HD
BRANCH  16  18
ATOM     18  O   UNL     1      34.408 -23.774 -17.004  0.00  0.00    -0.436 OA
BRANCH  18  20
ATOM     19  O   UNL     1      36.740 -24.401 -15.167  0.00  0.00    -0.350 OA
ATOM     20  C   UNL     1      34.788 -23.194 -15.760  0.00  0.00    +0.202 C 
ATOM     21  C   UNL     1      34.449 -24.133 -14.629  0.00  0.00    +0.078 C 
ATOM     22  C   UNL     1      36.300 -23.134 -15.687  0.00  0.00    +0.186 C 
ATOM     23  C   UNL     1      35.600 -25.117 -14.675  0.00  0.00    +0.146 C 
ENDBRANCH  18  20
ENDBRANCH  16  18
ENDBRANCH  13  15
ENDBRANCH   7  13
ENDBRANCH   2   9
BRANCH   3  24
ATOM     24  C   UNL     1      33.751 -13.931 -22.754  0.00  0.00    +0.055 C 
ATOM     25  C   UNL     1      32.832 -11.318 -22.687  0.00  0.00    +0.070 C 
ATOM     26  C   UNL     1      32.358 -12.248 -21.761  0.00  0.00    +0.143 C 
ATOM     27  C   UNL     1      32.820 -13.564 -21.795  0.00  0.00    +0.052 C 
ATOM     28  C   UNL     1      34.231 -13.020 -23.680  0.00  0.00    +0.015 C 
ATOM     29  C   UNL     1      33.768 -11.705 -23.646  0.00  0.00    +0.007 C 
BRANCH  25  32
ATOM     30  O   UNL     1      33.276  -9.019 -22.295  0.00  0.00    -0.431 OA
ATOM     31  N   UNL     1      31.323  -7.975 -22.756  0.00  0.00    -0.203 NA
ATOM     32  C   UNL     1      32.366  -9.951 -22.670  0.00  0.00    +0.169 C 
ATOM     33  C   UNL     1      31.186  -9.325 -22.947  0.00  0.00    +0.140 C 
ATOM     34  C   UNL     1      32.574  -7.855 -22.373  0.00  0.00    +0.285 C 
ENDBRANCH  25  32
BRANCH  26  35
ATOM     35  O   UNL     1      31.443 -11.898 -20.813  0.00  0.00    -0.471 OA
ATOM     36  C   UNL     1      31.949 -11.501 -19.541  0.00  0.00    +0.252 C 
ENDBRANCH  26  35
ENDBRANCH   3  24
TORSDOF 8
ENDMDL
MODEL 3
REMARK VINA RESULT:     -11.2      3.357     10.678
REMARK  Name = 153241
REMARK  8 active torsions:
REMARK  status: ('A' for Active; 'I' for Inactive)
REMARK    1  A    between atoms: N_2  and  C_9
REMARK    2  A    between atoms: N_3  and  C_24
REMARK    3  A    between atoms: C_7  and  C_13
REMARK    4  A    between atoms: C_13  and  N_15
REMARK    5  A    between atoms: C_16  and  O_18
REMARK    6  A    between atoms: O_18  and  C_20
REMARK    7  A    between atoms: C_25  and  C_32
REMARK    8  A    between atoms: C_26  and  O_35
REMARK                            x       y       z     vdW  Elec       q    Type
REMARK                         _______ _______ _______ _____ _____    ______ ____
ROOT
ATOM      1  O   UNL     1      33.408 -20.165 -20.034  0.00  0.00    -0.252 OA
ATOM      2  N   UNL     1      35.242 -20.228 -21.491  0.00  0.00    -0.268 N 
ATOM      3  N   UNL     1      35.236 -21.558 -19.604  0.00  0.00    -0.268 N 
ATOM      4  C   UNL     1      34.511 -20.607 -20.338  0.00  0.00    +0.308 C 
ATOM      5  H   UNL     1      36.116 -20.667 -21.607  0.00  0.00    +0.156 HD
ATOM      6  H   UNL     1      36.111 -21.817 -19.975  0.00  0.00    +0.156 HD
ENDROOT
BRANCH   2   9
ATOM      7  C   UNL     1      34.843 -17.062 -23.333  0.00  0.00    -0.001 C 
ATOM      8  C   UNL     1      35.200 -17.964 -22.337  0.00  0.00    +0.012 C 
ATOM      9  C   UNL     1      34.888 -19.315 -22.486  0.00  0.00    +0.051 C 
ATOM     10  C   UNL     1      34.179 -17.493 -24.476  0.00  0.00    -0.003 C 
ATOM     11  C   UNL     1      34.222 -19.756 -23.630  0.00  0.00    +0.015 C 
ATOM     12  C   UNL     1      33.868 -18.845 -24.625  0.00  0.00    +0.001 C 
BRANCH   7  13
ATOM     13  C   UNL     1      35.177 -15.608 -23.173  0.00  0.00    +0.119 C 
BRANCH  13  15
ATOM     14  O   UNL     1      33.310 -13.965 -24.674  0.00  0.00    -0.226 OA
ATOM     15  N   UNL     1      34.057 -14.849 -22.664  0.00  0.00    -0.267 N 
ATOM     16  C   UNL     1      33.221 -14.093 -23.459  0.00  0.00    +0.402 C 
ATOM     17  H   UNL     1      33.883 -14.872 -21.695  0.00  0.00    +0.153 HD
BRANCH  16  18
ATOM     18  O   UNL     1      32.259 -13.494 -22.688  0.00  0.00    -0.436 OA
BRANCH  18  20
ATOM     19  O   UNL     1      30.691 -11.643 -20.866  0.00  0.00    -0.350 OA
ATOM     20  C   UNL     1      32.695 -12.415 -21.867  0.00  0.00    +0.202 C 
ATOM     21  C   UNL     1      32.318 -11.099 -22.500  0.00  0.00    +0.078 C 
ATOM     22  C   UNL     1      31.878 -12.406 -20.591  0.00  0.00    +0.186 C 
ATOM     23  C   UNL     1      30.855 -10.972 -22.122  0.00  0.00    +0.146 C 
ENDBRANCH  18  20
ENDBRANCH  16  18
ENDBRANCH  13  15
ENDBRANCH   7  13
ENDBRANCH   2   9
BRANCH   3  24
ATOM     24  C   UNL     1      34.866 -22.191 -18.394  0.00  0.00    +0.055 C 
ATOM     25  C   UNL     1      34.141 -23.431 -16.024  0.00  0.00    +0.070 C 
ATOM     26  C   UNL     1      35.386 -22.812 -16.135  0.00  0.00    +0.143 C 
ATOM     27  C   UNL     1      35.752 -22.188 -17.329  0.00  0.00    +0.052 C 
ATOM     28  C   UNL     1      33.626 -22.802 -18.300  0.00  0.00    +0.015 C 
ATOM     29  C   UNL     1      33.262 -23.426 -17.107  0.00  0.00    +0.007 C 
BRANCH  25  32
ATOM     30  O   UNL     1      32.426 -24.379 -14.684  0.00  0.00    -0.431 OA
ATOM     31  N   UNL     1      33.485 -25.073 -12.810  0.00  0.00    -0.203 NA
ATOM     32  C   UNL     1      33.744 -24.083 -14.798  0.00  0.00    +0.169 C 
ATOM     33  C   UNL     1      34.386 -24.499 -13.669  0.00  0.00    +0.140 C 
ATOM     34  C   UNL     1      32.348 -24.973 -13.461  0.00  0.00    +0.285 C 
ENDBRANCH  25  32
BRANCH  26  35
ATOM     35  O   UNL     1      36.266 -22.802 -15.093  0.00  0.00    -0.471 OA
ATOM     36  C   UNL     1      37.534 -23.416 -15.312  0.00  0.00    +0.252 C 
ENDBRANCH  26  35
ENDBRANCH   3  24
TORSDOF 8
ENDMDL
MODEL 4
REMARK VINA RESULT:     -11.2      3.365     10.596
REMARK  Name = 153241
REMARK  8 active torsions:
REMARK  status: ('A' for Active; 'I' for Inactive)
REMARK    1  A    between atoms: N_2  and  C_9
REMARK    2  A    between atoms: N_3  and  C_24
REMARK    3  A    between atoms: C_7  and  C_13
REMARK    4  A    between atoms: C_13  and  N_15
REMARK    5  A    between atoms: C_16  and  O_18
REMARK    6  A    between atoms: O_18  and  C_20
REMARK    7  A    between atoms: C_25  and  C_32
REMARK    8  A    between atoms: C_26  and  O_35
REMARK                            x       y       z     vdW  Elec       q    Type
REMARK                         _______ _______ _______ _____ _____    ______ ____
ROOT
ATOM      1  O   UNL     1      34.134 -20.514 -20.071  0.00  0.00    -0.252 OA
ATOM      2  N   UNL     1      35.941 -19.662 -21.296  0.00  0.00    -0.268 N 
ATOM      3  N   UNL     1      36.336 -20.869 -19.367  0.00  0.00    -0.268 N 
ATOM      4  C   UNL     1      35.343 -20.367 -20.223  0.00  0.00    +0.308 C 
ATOM      5  H   UNL     1      36.925 -19.626 -21.287  0.00  0.00    +0.156 HD
ATOM      6  H   UNL     1      37.266 -20.669 -19.620  0.00  0.00    +0.156 HD
ENDROOT
BRANCH   2   9
ATOM      7  C   UNL     1      34.825 -16.991 -23.575  0.00  0.00    -0.001 C 
ATOM      8  C   UNL     1      35.446 -17.630 -22.507  0.00  0.00    +0.012 C 
ATOM      9  C   UNL     1      35.321 -19.012 -22.364  0.00  0.00    +0.051 C 
ATOM     10  C   UNL     1      34.082 -17.715 -24.501  0.00  0.00    -0.003 C 
ATOM     11  C   UNL     1      34.578 -19.746 -23.289  0.00  0.00    +0.015 C 
ATOM     12  C   UNL     1      33.959 -19.097 -24.357  0.00  0.00    +0.001 C 
BRANCH   7  13
ATOM     13  C   UNL     1      34.957 -15.504 -23.729  0.00  0.00    +0.119 C 
BRANCH  13  15
ATOM     14  O   UNL     1      33.120 -13.543 -24.834  0.00  0.00    -0.226 OA
ATOM     15  N   UNL     1      33.902 -14.794 -23.043  0.00  0.00    -0.267 N 
ATOM     16  C   UNL     1      33.075 -13.875 -23.654  0.00  0.00    +0.402 C 
ATOM     17  H   UNL     1      33.767 -14.976 -22.085  0.00  0.00    +0.153 HD
BRANCH  16  18
ATOM     18  O   UNL     1      32.180 -13.374 -22.745  0.00  0.00    -0.436 OA
BRANCH  18  20
ATOM     19  O   UNL     1      30.701 -11.529 -20.844  0.00  0.00    -0.350 OA
ATOM     20  C   UNL     1      32.665 -12.346 -21.888  0.00  0.00    +0.202 C 
ATOM     21  C   UNL     1      32.340 -10.993 -22.469  0.00  0.00    +0.078 C 
ATOM     22  C   UNL     1      31.856 -12.351 -20.607  0.00  0.00    +0.186 C 
ATOM     23  C   UNL     1      30.886 -10.819 -22.076  0.00  0.00    +0.146 C 
ENDBRANCH  18  20
ENDBRANCH  16  18
ENDBRANCH  13  15
ENDBRANCH   7  13
ENDBRANCH   2   9
BRANCH   3  24
ATOM     24  C   UNL     1      36.165 -21.625 -18.183  0.00  0.00    +0.055 C 
ATOM     25  C   UNL     1      35.829 -23.107 -15.866  0.00  0.00    +0.070 C 
ATOM     26  C   UNL     1      34.892 -23.199 -16.895  0.00  0.00    +0.143 C 
ATOM     27  C   UNL     1      35.060 -22.453 -18.062  0.00  0.00    +0.052 C 
ATOM     28  C   UNL     1      37.104 -21.522 -17.171  0.00  0.00    +0.015 C 
ATOM     29  C   UNL     1      36.935 -22.268 -16.004  0.00  0.00    +0.007 C 
BRANCH  25  32
ATOM     30  O   UNL     1      34.627 -23.521 -13.861  0.00  0.00    -0.431 OA
ATOM     31  N   UNL     1      35.728 -25.238 -12.882  0.00  0.00    -0.203 NA
ATOM     32  C   UNL     1      35.673 -23.870 -14.650  0.00  0.00    +0.169 C 
ATOM     33  C   UNL     1      36.340 -24.905 -14.062  0.00  0.00    +0.140 C 
ATOM     34  C   UNL     1      34.726 -24.389 -12.816  0.00  0.00    +0.285 C 
ENDBRANCH  25  32
BRANCH  26  35
ATOM     35  O   UNL     1      33.802 -24.011 -16.787  0.00  0.00    -0.471 OA
ATOM     36  C   UNL     1      32.522 -23.389 -16.869  0.00  0.00    +0.252 C 
ENDBRANCH  26  35
ENDBRANCH   3  24
TORSDOF 8
ENDMDL
MODEL 5
REMARK VINA RESULT:     -10.9      3.078      5.541
REMARK  Name = 153241
REMARK  8 active torsions:
REMARK  status: ('A' for Active; 'I' for Inactive)
REMARK    1  A    between atoms: N_2  and  C_9
REMARK    2  A    between atoms: N_3  and  C_24
REMARK    3  A    between atoms: C_7  and  C_13
REMARK    4  A    between atoms: C_13  and  N_15
REMARK    5  A    between atoms: C_16  and  O_18
REMARK    6  A    between atoms: O_18  and  C_20
REMARK    7  A    between atoms: C_25  and  C_32
REMARK    8  A    between atoms: C_26  and  O_35
REMARK                            x       y       z     vdW  Elec       q    Type
REMARK                         _______ _______ _______ _____ _____    ______ ____
ROOT
ATOM      1  O   UNL     1      34.112 -19.227 -19.969  0.00  0.00    -0.252 OA
ATOM      2  N   UNL     1      35.533 -21.060 -20.301  0.00  0.00    -0.268 N 
ATOM      3  N   UNL     1      35.316 -19.467 -21.959  0.00  0.00    -0.268 N 
ATOM      4  C   UNL     1      34.902 -19.847 -20.673  0.00  0.00    +0.308 C 
ATOM      5  H   UNL     1      36.145 -21.446 -20.969  0.00  0.00    +0.156 HD
ATOM      6  H   UNL     1      35.957 -20.069 -22.402  0.00  0.00    +0.156 HD
ENDROOT
BRANCH   2   9
ATOM      7  C   UNL     1      36.298 -22.492 -16.994  0.00  0.00    -0.001 C 
ATOM      8  C   UNL     1      36.437 -21.772 -18.176  0.00  0.00    +0.012 C 
ATOM      9  C   UNL     1      35.404 -21.780 -19.113  0.00  0.00    +0.051 C 
ATOM     10  C   UNL     1      35.142 -23.219 -16.737  0.00  0.00    -0.003 C 
ATOM     11  C   UNL     1      34.239 -22.507 -18.862  0.00  0.00    +0.015 C 
ATOM     12  C   UNL     1      34.109 -23.226 -17.674  0.00  0.00    +0.001 C 
BRANCH   7  13
ATOM     13  C   UNL     1      37.410 -22.485 -15.986  0.00  0.00    +0.119 C 
BRANCH  13  15
ATOM     14  O   UNL     1      38.826 -24.633 -14.637  0.00  0.00    -0.226 OA
ATOM     15  N   UNL     1      37.037 -23.162 -14.765  0.00  0.00    -0.267 N 
ATOM     16  C   UNL     1      37.777 -24.177 -14.196  0.00  0.00    +0.402 C 
ATOM     17  H   UNL     1      36.207 -22.883 -14.315  0.00  0.00    +0.153 HD
BRANCH  16  18
ATOM     18  O   UNL     1      37.167 -24.615 -13.050  0.00  0.00    -0.436 OA
BRANCH  18  20
ATOM     19  O   UNL     1      36.708 -24.172 -10.083  0.00  0.00    -0.350 OA
ATOM     20  C   UNL     1      36.352 -23.664 -12.371  0.00  0.00    +0.202 C 
ATOM     21  C   UNL     1      35.115 -24.337 -11.830  0.00  0.00    +0.078 C 
ATOM     22  C   UNL     1      37.060 -23.224 -11.106  0.00  0.00    +0.186 C 
ATOM     23  C   UNL     1      35.636 -24.993 -10.567  0.00  0.00    +0.146 C 
ENDBRANCH  18  20
ENDBRANCH  16  18
ENDBRANCH  13  15
ENDBRANCH   7  13
ENDBRANCH   2   9
BRANCH   3  24
ATOM     24  C   UNL     1      34.924 -18.326 -22.698  0.00  0.00    +0.055 C 
ATOM     25  C   UNL     1      34.157 -16.091 -24.145  0.00  0.00    +0.070 C 
ATOM     26  C   UNL     1      34.763 -15.941 -22.898  0.00  0.00    +0.143 C 
ATOM     27  C   UNL     1      35.149 -17.066 -22.168  0.00  0.00    +0.052 C 
ATOM     28  C   UNL     1      34.324 -18.493 -23.936  0.00  0.00    +0.015 C 
ATOM     29  C   UNL     1      33.937 -17.367 -24.663  0.00  0.00    +0.007 C 
BRANCH  25  32
ATOM     30  O   UNL     1      33.678 -15.118 -26.258  0.00  0.00    -0.431 OA
ATOM     31  N   UNL     1      33.096 -12.985 -25.783  0.00  0.00    -0.203 NA
ATOM     32  C   UNL     1      33.750 -14.939 -24.915  0.00  0.00    +0.169 C 
ATOM     33  C   UNL     1      33.400 -13.653 -24.626  0.00  0.00    +0.140 C 
ATOM     34  C   UNL     1      33.278 -13.898 -26.710  0.00  0.00    +0.285 C 
ENDBRANCH  25  32
BRANCH  26  35
ATOM     35  O   UNL     1      34.989 -14.705 -22.367  0.00  0.00    -0.471 OA
ATOM     36  C   UNL     1      34.319 -14.392 -21.149  0.00  0.00    +0.252 C 
ENDBRANCH  26  35
ENDBRANCH   3  24
TORSDOF 8
ENDMDL
MODEL 6
REMARK VINA RESULT:     -10.2      2.403      3.996
REMARK  Name = 153241
REMARK  8 active torsions:
REMARK  status: ('A' for Active; 'I' for Inactive)
REMARK    1  A    between atoms: N_2  and  C_9
REMARK    2  A    between atoms: N_3  and  C_24
REMARK    3  A    between atoms: C_7  and  C_13
REMARK    4  A    between atoms: C_13  and  N_15
REMARK    5  A    between atoms: C_16  and  O_18
REMARK    6  A    between atoms: O_18  and  C_20
REMARK    7  A    between atoms: C_25  and  C_32
REMARK    8  A    between atoms: C_26  and  O_35
REMARK                            x       y       z     vdW  Elec       q    Type
REMARK                         _______ _______ _______ _____ _____    ______ ____
ROOT
ATOM      1  O   UNL     1      34.016 -19.682 -19.876  0.00  0.00    -0.252 OA
ATOM      2  N   UNL     1      36.037 -20.836 -19.600  0.00  0.00    -0.268 N 
ATOM      3  N   UNL     1      35.864 -19.209 -21.229  0.00  0.00    -0.268 N 
ATOM      4  C   UNL     1      35.181 -19.883 -20.205  0.00  0.00    +0.308 C 
ATOM      5  H   UNL     1      36.948 -20.887 -19.968  0.00  0.00    +0.156 HD
ATOM      6  H   UNL     1      36.799 -19.481 -21.377  0.00  0.00    +0.156 HD
ENDROOT
BRANCH   2   9
ATOM      7  C   UNL     1      34.347 -23.378 -17.536  0.00  0.00    -0.001 C 
ATOM      8  C   UNL     1      34.615 -22.508 -18.587  0.00  0.00    +0.012 C 
ATOM      9  C   UNL     1      35.759 -21.713 -18.549  0.00  0.00    +0.051 C 
ATOM     10  C   UNL     1      35.209 -23.464 -16.449  0.00  0.00    -0.003 C 
ATOM     11  C   UNL     1      36.630 -21.793 -17.461  0.00  0.00    +0.015 C 
ATOM     12  C   UNL     1      36.354 -22.669 -16.412  0.00  0.00    +0.001 C 
BRANCH   7  13
ATOM     13  C   UNL     1      33.114 -24.233 -17.575  0.00  0.00    +0.119 C 
BRANCH  13  15
ATOM     14  O   UNL     1      31.847 -24.287 -14.962  0.00  0.00    -0.226 OA
ATOM     15  N   UNL     1      31.940 -23.509 -17.146  0.00  0.00    -0.267 N 
ATOM     16  C   UNL     1      31.408 -23.598 -15.876  0.00  0.00    +0.402 C 
ATOM     17  H   UNL     1      31.494 -22.919 -17.796  0.00  0.00    +0.153 HD
BRANCH  16  18
ATOM     18  O   UNL     1      30.301 -22.797 -15.776  0.00  0.00    -0.436 OA
BRANCH  18  20
ATOM     19  O   UNL     1      27.876 -24.169 -16.979  0.00  0.00    -0.350 OA
ATOM     20  C   UNL     1      29.161 -23.379 -15.151  0.00  0.00    +0.202 C 
ATOM     21  C   UNL     1      27.963 -22.478 -15.321  0.00  0.00    +0.078 C 
ATOM     22  C   UNL     1      28.750 -24.613 -15.927  0.00  0.00    +0.186 C 
ATOM     23  C   UNL     1      27.520 -22.801 -16.734  0.00  0.00    +0.146 C 
ENDBRANCH  18  20
ENDBRANCH  16  18
ENDBRANCH  13  15
ENDBRANCH   7  13
ENDBRANCH   2   9
BRANCH   3  24
ATOM     24  C   UNL     1      35.374 -18.188 -22.077  0.00  0.00    +0.055 C 
ATOM     25  C   UNL     1      34.415 -16.187 -23.736  0.00  0.00    +0.070 C 
ATOM     26  C   UNL     1      34.881 -15.871 -22.460  0.00  0.00    +0.143 C 
ATOM     27  C   UNL     1      35.364 -16.878 -21.624  0.00  0.00    +0.052 C 
ATOM     28  C   UNL     1      34.916 -18.518 -23.342  0.00  0.00    +0.015 C 
ATOM     29  C   UNL     1      34.433 -17.511 -24.177  0.00  0.00    +0.007 C 
BRANCH  25  32
ATOM     30  O   UNL     1      33.836 -15.488 -25.931  0.00  0.00    -0.431 OA
ATOM     31  N   UNL     1      33.099 -13.365 -25.676  0.00  0.00    -0.203 NA
ATOM     32  C   UNL     1      33.911 -15.159 -24.617  0.00  0.00    +0.169 C 
ATOM     33  C   UNL     1      33.469 -13.878 -24.460  0.00  0.00    +0.140 C 
ATOM     34  C   UNL     1      33.338 -14.357 -26.503  0.00  0.00    +0.285 C 
ENDBRANCH  25  32
BRANCH  26  35
ATOM     35  O   UNL     1      34.875 -14.586 -22.004  0.00  0.00    -0.471 OA
ATOM     36  C   UNL     1      34.285 -14.356 -20.727  0.00  0.00    +0.252 C 
ENDBRANCH  26  35
ENDBRANCH   3  24
TORSDOF 8
ENDMDL
MODEL 7
REMARK VINA RESULT:     -10.1      7.538     11.913
REMARK  Name = 153241
REMARK  8 active torsions:
REMARK  status: ('A' for Active; 'I' for Inactive)
REMARK    1  A    between atoms: N_2  and  C_9
REMARK    2  A    between atoms: N_3  and  C_24
REMARK    3  A    between atoms: C_7  and  C_13
REMARK    4  A    between atoms: C_13  and  N_15
REMARK    5  A    between atoms: C_16  and  O_18
REMARK    6  A    between atoms: O_18  and  C_20
REMARK    7  A    between atoms: C_25  and  C_32
REMARK    8  A    between atoms: C_26  and  O_35
REMARK                            x       y       z     vdW  Elec       q    Type
REMARK                         _______ _______ _______ _____ _____    ______ ____
ROOT
ATOM      1  O   UNL     1      33.952 -11.618 -23.544  0.00  0.00    -0.252 OA
ATOM      2  N   UNL     1      32.728 -13.409 -22.659  0.00  0.00    -0.268 N 
ATOM      3  N   UNL     1      32.029 -11.243 -22.268  0.00  0.00    -0.268 N 
ATOM      4  C   UNL     1      33.003 -12.039 -22.892  0.00  0.00    +0.308 C 
ATOM      5  H   UNL     1      31.929 -13.599 -22.116  0.00  0.00    +0.156 HD
ATOM      6  H   UNL     1      31.325 -11.727 -21.778  0.00  0.00    +0.156 HD
ENDROOT
BRANCH   2   9
ATOM      7  C   UNL     1      34.873 -16.405 -22.633  0.00  0.00    -0.001 C 
ATOM      8  C   UNL     1      34.167 -15.293 -22.187  0.00  0.00    +0.012 C 
ATOM      9  C   UNL     1      33.440 -14.527 -23.097  0.00  0.00    +0.051 C 
ATOM     10  C   UNL     1      34.861 -16.761 -23.977  0.00  0.00    -0.003 C 
ATOM     11  C   UNL     1      33.423 -14.877 -24.448  0.00  0.00    +0.015 C 
ATOM     12  C   UNL     1      34.133 -15.994 -24.887  0.00  0.00    +0.001 C 
BRANCH   7  13
ATOM     13  C   UNL     1      35.656 -17.229 -21.654  0.00  0.00    +0.119 C 
BRANCH  13  15
ATOM     14  O   UNL     1      35.507 -19.853 -22.892  0.00  0.00    -0.226 OA
ATOM     15  N   UNL     1      34.912 -18.381 -21.200  0.00  0.00    -0.267 N 
ATOM     16  C   UNL     1      34.902 -19.593 -21.858  0.00  0.00    +0.402 C 
ATOM     17  H   UNL     1      34.382 -18.296 -20.375  0.00  0.00    +0.153 HD
BRANCH  16  18
ATOM     18  O   UNL     1      34.107 -20.484 -21.184  0.00  0.00    -0.436 OA
BRANCH  18  20
ATOM     19  O   UNL     1      35.245 -22.723 -19.482  0.00  0.00    -0.350 OA
ATOM     20  C   UNL     1      34.309 -20.566 -19.777  0.00  0.00    +0.202 C 
ATOM     21  C   UNL     1      33.266 -21.462 -19.157  0.00  0.00    +0.078 C 
ATOM     22  C   UNL     1      35.590 -21.327 -19.507  0.00  0.00    +0.186 C 
ATOM     23  C   UNL     1      33.816 -22.843 -19.452  0.00  0.00    +0.146 C 
ENDBRANCH  18  20
ENDBRANCH  16  18
ENDBRANCH  13  15
ENDBRANCH   7  13
ENDBRANCH   2   9
BRANCH   3  24
ATOM     24  C   UNL     1      31.936  -9.831 -22.254  0.00  0.00    +0.055 C 
ATOM     25  C   UNL     1      31.753  -7.067 -22.229  0.00  0.00    +0.070 C 
ATOM     26  C   UNL     1      31.821  -7.751 -23.443  0.00  0.00    +0.143 C 
ATOM     27  C   UNL     1      31.914  -9.143 -23.456  0.00  0.00    +0.052 C 
ATOM     28  C   UNL     1      31.868  -9.168 -21.040  0.00  0.00    +0.015 C 
ATOM     29  C   UNL     1      31.777  -7.776 -21.028  0.00  0.00    +0.007 C 
BRANCH  25  32
ATOM     30  O   UNL     1      30.616  -5.118 -21.489  0.00  0.00    -0.431 OA
ATOM     31  N   UNL     1      31.814  -3.401 -22.345  0.00  0.00    -0.203 NA
ATOM     32  C   UNL     1      31.657  -5.626 -22.194  0.00  0.00    +0.169 C 
ATOM     33  C   UNL     1      32.381  -4.593 -22.713  0.00  0.00    +0.140 C 
ATOM     34  C   UNL     1      30.779  -3.773 -21.626  0.00  0.00    +0.285 C 
ENDBRANCH  25  32
BRANCH  26  35
ATOM     35  O   UNL     1      31.800  -7.083 -24.632  0.00  0.00    -0.471 OA
ATOM     36  C   UNL     1      33.004  -7.084 -25.395  0.00  0.00    +0.252 C 
ENDBRANCH  26  35
ENDBRANCH   3  24
TORSDOF 8
ENDMDL
MODEL 8
REMARK VINA RESULT:     -10.0      3.887      6.713
REMARK  Name = 153241
REMARK  8 active torsions:
REMARK  status: ('A' for Active; 'I' for Inactive)
REMARK    1  A    between atoms: N_2  and  C_9
REMARK    2  A    between atoms: N_3  and  C_24
REMARK    3  A    between atoms: C_7  and  C_13
REMARK    4  A    between atoms: C_13  and  N_15
REMARK    5  A    between atoms: C_16  and  O_18
REMARK    6  A    between atoms: O_18  and  C_20
REMARK    7  A    between atoms: C_25  and  C_32
REMARK    8  A    between atoms: C_26  and  O_35
REMARK                            x       y       z     vdW  Elec       q    Type
REMARK                         _______ _______ _______ _____ _____    ______ ____
ROOT
ATOM      1  O   UNL     1      34.847 -16.961 -20.187  0.00  0.00    -0.252 OA
ATOM      2  N   UNL     1      35.185 -18.810 -21.586  0.00  0.00    -0.268 N 
ATOM      3  N   UNL     1      34.688 -16.753 -22.511  0.00  0.00    -0.268 N 
ATOM      4  C   UNL     1      34.900 -17.450 -21.311  0.00  0.00    +0.308 C 
ATOM      5  H   UNL     1      35.194 -19.060 -22.538  0.00  0.00    +0.156 HD
ATOM      6  H   UNL     1      34.764 -17.282 -23.337  0.00  0.00    +0.156 HD
ENDROOT
BRANCH   2   9
ATOM      7  C   UNL     1      34.698 -21.660 -19.302  0.00  0.00    -0.001 C 
ATOM      8  C   UNL     1      34.418 -20.634 -20.198  0.00  0.00    +0.012 C 
ATOM      9  C   UNL     1      35.457 -19.842 -20.686  0.00  0.00    +0.051 C 
ATOM     10  C   UNL     1      36.003 -21.905 -18.890  0.00  0.00    -0.003 C 
ATOM     11  C   UNL     1      36.769 -20.082 -20.278  0.00  0.00    +0.015 C 
ATOM     12  C   UNL     1      37.042 -21.114 -19.380  0.00  0.00    +0.001 C 
BRANCH   7  13
ATOM     13  C   UNL     1      33.581 -22.511 -18.775  0.00  0.00    +0.119 C 
BRANCH  13  15
ATOM     14  O   UNL     1      31.777 -23.114 -16.580  0.00  0.00    -0.226 OA
ATOM     15  N   UNL     1      33.907 -23.101 -17.497  0.00  0.00    -0.267 N 
ATOM     16  C   UNL     1      32.977 -23.351 -16.510  0.00  0.00    +0.402 C 
ATOM     17  H   UNL     1      34.847 -23.337 -17.321  0.00  0.00    +0.153 HD
BRANCH  16  18
ATOM     18  O   UNL     1      33.591 -23.912 -15.420  0.00  0.00    -0.436 OA
BRANCH  18  20
ATOM     19  O   UNL     1      35.561 -25.184 -13.494  0.00  0.00    -0.350 OA
ATOM     20  C   UNL     1      35.006 -24.051 -15.500  0.00  0.00    +0.202 C 
ATOM     21  C   UNL     1      35.675 -23.074 -14.565  0.00  0.00    +0.078 C 
ATOM     22  C   UNL     1      35.404 -25.388 -14.909  0.00  0.00    +0.186 C 
ATOM     23  C   UNL     1      35.547 -23.775 -13.227  0.00  0.00    +0.146 C 
ENDBRANCH  18  20
ENDBRANCH  16  18
ENDBRANCH  13  15
ENDBRANCH   7  13
ENDBRANCH   2   9
BRANCH   3  24
ATOM     24  C   UNL     1      34.378 -15.383 -22.679  0.00  0.00    +0.055 C 
ATOM     25  C   UNL     1      33.770 -12.700 -23.009  0.00  0.00    +0.070 C 
ATOM     26  C   UNL     1      33.893 -13.530 -24.124  0.00  0.00    +0.143 C 
ATOM     27  C   UNL     1      34.200 -14.881 -23.958  0.00  0.00    +0.052 C 
ATOM     28  C   UNL     1      34.259 -14.572 -21.562  0.00  0.00    +0.015 C 
ATOM     29  C   UNL     1      33.954 -13.222 -21.729  0.00  0.00    +0.007 C 
BRANCH  25  32
ATOM     30  O   UNL     1      32.151 -10.963 -22.992  0.00  0.00    -0.431 OA
ATOM     31  N   UNL     1      33.325  -9.086 -23.456  0.00  0.00    -0.203 NA
ATOM     32  C   UNL     1      33.454 -11.299 -23.160  0.00  0.00    +0.169 C 
ATOM     33  C   UNL     1      34.165 -10.169 -23.441  0.00  0.00    +0.140 C 
ATOM     34  C   UNL     1      32.153  -9.615 -23.185  0.00  0.00    +0.285 C 
ENDBRANCH  25  32
BRANCH  26  35
ATOM     35  O   UNL     1      33.720 -13.047 -25.387  0.00  0.00    -0.471 OA
ATOM     36  C   UNL     1      33.144 -13.931 -26.345  0.00  0.00    +0.252 C 
ENDBRANCH  26  35
ENDBRANCH   3  24
TORSDOF 8
ENDMDL
MODEL 9
REMARK VINA RESULT:      -9.9      2.943      5.688
REMARK  Name = 153241
REMARK  8 active torsions:
REMARK  status: ('A' for Active; 'I' for Inactive)
REMARK    1  A    between atoms: N_2  and  C_9
REMARK    2  A    between atoms: N_3  and  C_24
REMARK    3  A    between atoms: C_7  and  C_13
REMARK    4  A    between atoms: C_13  and  N_15
REMARK    5  A    between atoms: C_16  and  O_18
REMARK    6  A    between atoms: O_18  and  C_20
REMARK    7  A    between atoms: C_25  and  C_32
REMARK    8  A    between atoms: C_26  and  O_35
REMARK                            x       y       z     vdW  Elec       q    Type
REMARK                         _______ _______ _______ _____ _____    ______ ____
ROOT
ATOM      1  O   UNL     1      33.404 -20.054 -20.102  0.00  0.00    -0.252 OA
ATOM      2  N   UNL     1      35.334 -21.310 -19.674  0.00  0.00    -0.268 N 
ATOM      3  N   UNL     1      35.413 -19.578 -21.200  0.00  0.00    -0.268 N 
ATOM      4  C   UNL     1      34.590 -20.284 -20.308  0.00  0.00    +0.308 C 
ATOM      5  H   UNL     1      36.280 -21.378 -19.939  0.00  0.00    +0.156 HD
ATOM      6  H   UNL     1      36.348 -19.881 -21.257  0.00  0.00    +0.156 HD
ENDROOT
BRANCH   2   9
ATOM      7  C   UNL     1      34.845 -23.022 -16.449  0.00  0.00    -0.001 C 
ATOM      8  C   UNL     1      35.279 -22.093 -17.388  0.00  0.00    +0.012 C 
ATOM      9  C   UNL     1      34.904 -22.238 -18.724  0.00  0.00    +0.051 C 
ATOM     10  C   UNL     1      34.041 -24.091 -16.826  0.00  0.00    -0.003 C 
ATOM     11  C   UNL     1      34.097 -23.308 -19.111  0.00  0.00    +0.015 C 
ATOM     12  C   UNL     1      33.666 -24.235 -18.162  0.00  0.00    +0.001 C 
BRANCH   7  13
ATOM     13  C   UNL     1      35.248 -22.868 -15.011  0.00  0.00    +0.119 C 
BRANCH  13  15
ATOM     14  O   UNL     1      36.426 -23.290 -12.390  0.00  0.00    -0.226 OA
ATOM     15  N   UNL     1      36.361 -23.723 -14.668  0.00  0.00    -0.267 N 
ATOM     16  C   UNL     1      36.853 -23.861 -13.387  0.00  0.00    +0.402 C 
ATOM     17  H   UNL     1      36.792 -24.236 -15.389  0.00  0.00    +0.153 HD
BRANCH  16  18
ATOM     18  O   UNL     1      37.906 -24.738 -13.382  0.00  0.00    -0.436 OA
BRANCH  18  20
ATOM     19  O   UNL     1      39.403 -27.284 -14.079  0.00  0.00    -0.350 OA
ATOM     20  C   UNL     1      38.280 -25.276 -14.647  0.00  0.00    +0.202 C 
ATOM     21  C   UNL     1      39.759 -25.081 -14.874  0.00  0.00    +0.078 C 
ATOM     22  C   UNL     1      38.158 -26.785 -14.597  0.00  0.00    +0.186 C 
ATOM     23  C   UNL     1      40.357 -26.214 -14.065  0.00  0.00    +0.146 C 
ENDBRANCH  18  20
ENDBRANCH  16  18
ENDBRANCH  13  15
ENDBRANCH   7  13
ENDBRANCH   2   9
BRANCH   3  24
ATOM     24  C   UNL     1      35.064 -18.485 -22.027  0.00  0.00    +0.055 C 
ATOM     25  C   UNL     1      34.379 -16.344 -23.647  0.00  0.00    +0.070 C 
ATOM     26  C   UNL     1      34.848 -16.118 -22.353  0.00  0.00    +0.143 C 
ATOM     27  C   UNL     1      35.192 -17.196 -21.537  0.00  0.00    +0.052 C 
ATOM     28  C   UNL     1      34.600 -18.727 -23.310  0.00  0.00    +0.015 C 
ATOM     29  C   UNL     1      34.255 -17.649 -24.125  0.00  0.00    +0.007 C 
BRANCH  25  32
ATOM     30  O   UNL     1      33.633 -15.573 -25.766  0.00  0.00    -0.431 OA
ATOM     31  N   UNL     1      33.532 -13.324 -25.550  0.00  0.00    -0.203 NA
ATOM     32  C   UNL     1      34.017 -15.242 -24.508  0.00  0.00    +0.169 C 
ATOM     33  C   UNL     1      33.959 -13.886 -24.374  0.00  0.00    +0.140 C 
ATOM     34  C   UNL     1      33.357 -14.366 -26.331  0.00  0.00    +0.285 C 
ENDBRANCH  25  32
BRANCH  26  35
ATOM     35  O   UNL     1      34.979 -14.853 -21.860  0.00  0.00    -0.471 OA
ATOM     36  C   UNL     1      34.147 -14.500 -20.758  0.00  0.00    +0.252 C 
ENDBRANCH  26  35
ENDBRANCH   3  24
TORSDOF 8
ENDMDL
