MODEL 1
REMARK VINA RESULT:     -11.5      0.000      0.000
REMARK  Name = 6450551
REMARK  5 active torsions:
REMARK  status: ('A' for Active; 'I' for Inactive)
REMARK    1  A    between atoms: C_5  and  C_11
REMARK    2  A    between atoms: C_7  and  S_19
REMARK    3  A    between atoms: C_12  and  C_14
REMARK    4  A    between atoms: S_19  and  C_20
REMARK    5  A    between atoms: C_21  and  C_28
REMARK                            x       y       z     vdW  Elec       q    Type
REMARK                         _______ _______ _______ _____ _____    ______ ____
ROOT
ATOM      1  N   UNL     1      37.043 -20.237 -19.820  0.00  0.00    -0.276 N 
ATOM      2  N   UNL     1      36.906 -19.059 -20.452  0.00  0.00    -0.173 NA
ATOM      3  C   UNL     1      34.891 -20.122 -20.227  0.00  0.00    +0.036 A 
ATOM      4  C   UNL     1      35.871 -20.925 -19.654  0.00  0.00    +0.076 A 
ATOM      5  C   UNL     1      35.595 -18.992 -20.698  0.00  0.00    +0.102 A 
ATOM      6  C   UNL     1      35.593 -22.158 -19.061  0.00  0.00    +0.025 C 
ATOM      7  C   UNL     1      34.259 -22.576 -19.060  0.00  0.00    +0.031 C 
ATOM      8  C   UNL     1      33.554 -20.555 -20.218  0.00  0.00    +0.004 C 
ATOM      9  C   UNL     1      33.255 -21.789 -19.628  0.00  0.00    +0.007 C 
ATOM     10  H   UNL     1      37.911 -20.577 -19.505  0.00  0.00    +0.189 HD
ENDROOT
BRANCH   5  11
ATOM     11  C   UNL     1      34.991 -17.893 -21.363  0.00  0.00    +0.022 C 
ATOM     12  C   UNL     1      35.329 -17.357 -22.566  0.00  0.00    +0.021 C 
BRANCH  12  14
ATOM     13  N   UNL     1      34.234 -16.409 -24.455  0.00  0.00    -0.244 NA
ATOM     14  C   UNL     1      34.668 -16.203 -23.199  0.00  0.00    +0.081 C 
ATOM     15  C   UNL     1      34.542 -15.029 -22.494  0.00  0.00    +0.019 C 
ATOM     16  C   UNL     1      33.911 -13.967 -23.133  0.00  0.00    +0.003 C 
ATOM     17  C   UNL     1      33.627 -15.355 -25.044  0.00  0.00    +0.099 C 
ATOM     18  C   UNL     1      33.443 -14.125 -24.433  0.00  0.00    +0.021 C 
ENDBRANCH  12  14
ENDBRANCH   5  11
BRANCH   7  19
ATOM     19  S   UNL     1      33.834 -24.144 -18.318  0.00  0.00    -0.087 S 
BRANCH  19  20
ATOM     20  C   UNL     1      33.091 -23.609 -16.783  0.00  0.00    +0.034 C 
ATOM     21  C   UNL     1      33.831 -23.493 -15.604  0.00  0.00    +0.059 C 
ATOM     22  C   UNL     1      31.729 -23.302 -16.779  0.00  0.00    +0.007 C 
ATOM     23  C   UNL     1      33.211 -23.072 -14.428  0.00  0.00    +0.005 C 
ATOM     24  C   UNL     1      31.109 -22.881 -15.603  0.00  0.00    +0.001 C 
ATOM     25  C   UNL     1      31.851 -22.766 -14.427  0.00  0.00    +0.000 C 
BRANCH  21  28
ATOM     26  O   UNL     1      35.640 -24.968 -15.382  0.00  0.00    -0.270 OA
ATOM     27  N   UNL     1      36.139 -22.729 -15.710  0.00  0.00    -0.299 N 
ATOM     28  C   UNL     1      35.256 -23.800 -15.547  0.00  0.00    +0.246 C 
ATOM     29  C   UNL     1      37.577 -22.874 -15.703  0.00  0.00    +0.111 C 
ATOM     30  H   UNL     1      35.761 -21.828 -15.837  0.00  0.00    +0.150 HD
ENDBRANCH  21  28
ENDBRANCH  19  20
ENDBRANCH   7  19
TORSDOF 5
ENDMDL
MODEL 2
REMARK VINA RESULT:     -11.1      3.364      9.356
REMARK  Name = 6450551
REMARK  5 active torsions:
REMARK  status: ('A' for Active; 'I' for Inactive)
REMARK    1  A    between atoms: C_5  and  C_11
REMARK    2  A    between atoms: C_7  and  S_19
REMARK    3  A    between atoms: C_12  and  C_14
REMARK    4  A    between atoms: S_19  and  C_20
REMARK    5  A    between atoms: C_21  and  C_28
REMARK                            x       y       z     vdW  Elec       q    Type
REMARK                         _______ _______ _______ _____ _____    ______ ____
ROOT
ATOM      1  N   UNL     1      36.069 -21.895 -19.000  0.00  0.00    -0.276 N 
ATOM      2  N   UNL     1      35.289 -22.642 -18.201  0.00  0.00    -0.173 NA
ATOM      3  C   UNL     1      34.036 -21.338 -19.604  0.00  0.00    +0.036 A 
ATOM      4  C   UNL     1      35.378 -21.090 -19.866  0.00  0.00    +0.076 A 
ATOM      5  C   UNL     1      34.052 -22.301 -18.572  0.00  0.00    +0.102 A 
ATOM      6  C   UNL     1      35.809 -20.184 -20.838  0.00  0.00    +0.025 C 
ATOM      7  C   UNL     1      34.820 -19.512 -21.562  0.00  0.00    +0.031 C 
ATOM      8  C   UNL     1      33.053 -20.656 -20.341  0.00  0.00    +0.004 C 
ATOM      9  C   UNL     1      33.465 -19.742 -21.320  0.00  0.00    +0.007 C 
ATOM     10  H   UNL     1      37.052 -21.923 -18.966  0.00  0.00    +0.189 HD
ENDROOT
BRANCH   5  11
ATOM     11  C   UNL     1      32.889 -22.858 -17.978  0.00  0.00    +0.022 C 
ATOM     12  C   UNL     1      32.429 -22.676 -16.712  0.00  0.00    +0.021 C 
BRANCH  12  14
ATOM     13  N   UNL     1      30.056 -22.861 -16.673  0.00  0.00    -0.244 NA
ATOM     14  C   UNL     1      31.215 -23.296 -16.150  0.00  0.00    +0.081 C 
ATOM     15  C   UNL     1      31.339 -24.244 -15.162  0.00  0.00    +0.019 C 
ATOM     16  C   UNL     1      30.167 -24.800 -14.662  0.00  0.00    +0.003 C 
ATOM     17  C   UNL     1      28.938 -23.423 -16.163  0.00  0.00    +0.099 C 
ATOM     18  C   UNL     1      28.939 -24.387 -15.166  0.00  0.00    +0.021 C 
ENDBRANCH  12  14
ENDBRANCH   5  11
BRANCH   7  19
ATOM     19  S   UNL     1      35.303 -18.339 -22.819  0.00  0.00    -0.087 S 
BRANCH  19  20
ATOM     20  C   UNL     1      34.889 -16.792 -22.025  0.00  0.00    +0.034 C 
ATOM     21  C   UNL     1      34.487 -15.671 -22.754  0.00  0.00    +0.059 C 
ATOM     22  C   UNL     1      34.978 -16.720 -20.634  0.00  0.00    +0.007 C 
ATOM     23  C   UNL     1      34.174 -14.483 -22.093  0.00  0.00    +0.005 C 
ATOM     24  C   UNL     1      34.664 -15.532 -19.973  0.00  0.00    +0.001 C 
ATOM     25  C   UNL     1      34.262 -14.414 -20.703  0.00  0.00    +0.000 C 
BRANCH  21  28
ATOM     26  O   UNL     1      34.901 -16.599 -24.866  0.00  0.00    -0.270 OA
ATOM     27  N   UNL     1      33.643 -14.654 -24.797  0.00  0.00    -0.299 N 
ATOM     28  C   UNL     1      34.377 -15.687 -24.208  0.00  0.00    +0.246 C 
ATOM     29  C   UNL     1      33.423 -14.545 -26.222  0.00  0.00    +0.111 C 
ATOM     30  H   UNL     1      33.255 -13.964 -24.211  0.00  0.00    +0.150 HD
ENDBRANCH  21  28
ENDBRANCH  19  20
ENDBRANCH   7  19
TORSDOF 5
ENDMDL
MODEL 3
REMARK VINA RESULT:     -10.9      5.165     10.725
REMARK  Name = 6450551
REMARK  5 active torsions:
REMARK  status: ('A' for Active; 'I' for Inactive)
REMARK    1  A    between atoms: C_5  and  C_11
REMARK    2  A    between atoms: C_7  and  S_19
REMARK    3  A    between atoms: C_12  and  C_14
REMARK    4  A    between atoms: S_19  and  C_20
REMARK    5  A    between atoms: C_21  and  C_28
REMARK                            x       y       z     vdW  Elec       q    Type
REMARK                         _______ _______ _______ _____ _____    ______ ____
ROOT
ATOM      1  N   UNL     1      33.820 -17.425 -25.119  0.00  0.00    -0.276 N 
ATOM      2  N   UNL     1      34.168 -18.547 -24.467  0.00  0.00    -0.173 NA
ATOM      3  C   UNL     1      34.509 -16.692 -23.171  0.00  0.00    +0.036 A 
ATOM      4  C   UNL     1      34.002 -16.276 -24.396  0.00  0.00    +0.076 A 
ATOM      5  C   UNL     1      34.586 -18.097 -23.281  0.00  0.00    +0.102 A 
ATOM      6  C   UNL     1      33.766 -14.935 -24.708  0.00  0.00    +0.025 C 
ATOM      7  C   UNL     1      34.066 -13.993 -23.720  0.00  0.00    +0.031 C 
ATOM      8  C   UNL     1      34.805 -15.733 -22.187  0.00  0.00    +0.004 C 
ATOM      9  C   UNL     1      34.577 -14.382 -22.480  0.00  0.00    +0.007 C 
ATOM     10  H   UNL     1      33.467 -17.427 -26.038  0.00  0.00    +0.189 HD
ENDROOT
BRANCH   5  11
ATOM     11  C   UNL     1      35.055 -18.956 -22.254  0.00  0.00    +0.022 C 
ATOM     12  C   UNL     1      34.318 -19.670 -21.361  0.00  0.00    +0.021 C 
BRANCH  12  14
ATOM     13  N   UNL     1      36.175 -20.366 -20.045  0.00  0.00    -0.244 NA
ATOM     14  C   UNL     1      34.868 -20.539 -20.305  0.00  0.00    +0.081 C 
ATOM     15  C   UNL     1      34.041 -21.440 -19.676  0.00  0.00    +0.019 C 
ATOM     16  C   UNL     1      34.605 -22.238 -18.687  0.00  0.00    +0.003 C 
ATOM     17  C   UNL     1      36.689 -21.159 -19.078  0.00  0.00    +0.099 C 
ATOM     18  C   UNL     1      35.953 -22.102 -18.377  0.00  0.00    +0.021 C 
ENDBRANCH  12  14
ENDBRANCH   5  11
BRANCH   7  19
ATOM     19  S   UNL     1      33.790 -12.260 -24.052  0.00  0.00    -0.087 S 
BRANCH  19  20
ATOM     20  C   UNL     1      32.737 -11.809 -22.681  0.00  0.00    +0.034 C 
ATOM     21  C   UNL     1      32.359 -10.485 -22.443  0.00  0.00    +0.059 C 
ATOM     22  C   UNL     1      32.288 -12.821 -21.831  0.00  0.00    +0.007 C 
ATOM     23  C   UNL     1      31.535 -10.178 -21.360  0.00  0.00    +0.005 C 
ATOM     24  C   UNL     1      31.464 -12.514 -20.749  0.00  0.00    +0.001 C 
ATOM     25  C   UNL     1      31.088 -11.192 -20.513  0.00  0.00    +0.000 C 
BRANCH  21  28
ATOM     26  O   UNL     1      32.037  -8.923 -24.160  0.00  0.00    -0.270 OA
ATOM     27  N   UNL     1      34.081  -8.884 -23.068  0.00  0.00    -0.299 N 
ATOM     28  C   UNL     1      32.797  -9.386 -23.295  0.00  0.00    +0.246 C 
ATOM     29  C   UNL     1      34.649  -7.783 -23.813  0.00  0.00    +0.111 C 
ATOM     30  H   UNL     1      34.628  -9.303 -22.364  0.00  0.00    +0.150 HD
ENDBRANCH  21  28
ENDBRANCH  19  20
ENDBRANCH   7  19
TORSDOF 5
ENDMDL
MODEL 4
REMARK VINA RESULT:     -10.8      1.633      2.598
REMARK  Name = 6450551
REMARK  5 active torsions:
REMARK  status: ('A' for Active; 'I' for Inactive)
REMARK    1  A    between atoms: C_5  and  C_11
REMARK    2  A    between atoms: C_7  and  S_19
REMARK    3  A    between atoms: C_12  and  C_14
REMARK    4  A    between atoms: S_19  and  C_20
REMARK    5  A    between atoms: C_21  and  C_28
REMARK                            x       y       z     vdW  Elec       q    Type
REMARK                         _______ _______ _______ _____ _____    ______ ____
ROOT
ATOM      1  N   UNL     1      37.105 -20.140 -20.026  0.00  0.00    -0.276 N 
ATOM      2  N   UNL     1      37.078 -18.960 -20.669  0.00  0.00    -0.173 NA
ATOM      3  C   UNL     1      34.974 -19.831 -20.438  0.00  0.00    +0.036 A 
ATOM      4  C   UNL     1      35.874 -20.715 -19.856  0.00  0.00    +0.076 A 
ATOM      5  C   UNL     1      35.779 -18.775 -20.918  0.00  0.00    +0.102 A 
ATOM      6  C   UNL     1      35.483 -21.912 -19.251  0.00  0.00    +0.025 C 
ATOM      7  C   UNL     1      34.116 -22.204 -19.249  0.00  0.00    +0.031 C 
ATOM      8  C   UNL     1      33.603 -20.138 -20.428  0.00  0.00    +0.004 C 
ATOM      9  C   UNL     1      33.190 -21.334 -19.827  0.00  0.00    +0.007 C 
ATOM     10  H   UNL     1      37.938 -20.555 -19.705  0.00  0.00    +0.189 HD
ENDROOT
BRANCH   5  11
ATOM     11  C   UNL     1      35.280 -17.631 -21.595  0.00  0.00    +0.022 C 
ATOM     12  C   UNL     1      34.994 -17.503 -22.918  0.00  0.00    +0.021 C 
BRANCH  12  14
ATOM     13  N   UNL     1      34.157 -16.411 -24.860  0.00  0.00    -0.244 NA
ATOM     14  C   UNL     1      34.488 -16.278 -23.564  0.00  0.00    +0.081 C 
ATOM     15  C   UNL     1      34.392 -15.120 -22.830  0.00  0.00    +0.019 C 
ATOM     16  C   UNL     1      33.910 -13.991 -23.482  0.00  0.00    +0.003 C 
ATOM     17  C   UNL     1      33.693 -15.293 -25.461  0.00  0.00    +0.099 C 
ATOM     18  C   UNL     1      33.552 -14.070 -24.823  0.00  0.00    +0.021 C 
ENDBRANCH  12  14
ENDBRANCH   5  11
BRANCH   7  19
ATOM     19  S   UNL     1      33.548 -23.719 -18.493  0.00  0.00    -0.087 S 
BRANCH  19  20
ATOM     20  C   UNL     1      33.988 -23.438 -16.784  0.00  0.00    +0.034 C 
ATOM     21  C   UNL     1      33.024 -23.359 -15.775  0.00  0.00    +0.059 C 
ATOM     22  C   UNL     1      35.339 -23.294 -16.465  0.00  0.00    +0.007 C 
ATOM     23  C   UNL     1      33.413 -23.139 -14.454  0.00  0.00    +0.005 C 
ATOM     24  C   UNL     1      35.728 -23.073 -15.143  0.00  0.00    +0.001 C 
ATOM     25  C   UNL     1      34.763 -22.996 -14.138  0.00  0.00    +0.000 C 
BRANCH  21  28
ATOM     26  O   UNL     1      31.040 -22.756 -16.868  0.00  0.00    -0.270 OA
ATOM     27  N   UNL     1      30.925 -24.519 -15.368  0.00  0.00    -0.299 N 
ATOM     28  C   UNL     1      31.599 -23.501 -16.049  0.00  0.00    +0.246 C 
ATOM     29  C   UNL     1      29.518 -24.801 -15.548  0.00  0.00    +0.111 C 
ATOM     30  H   UNL     1      31.434 -25.072 -14.732  0.00  0.00    +0.150 HD
ENDBRANCH  21  28
ENDBRANCH  19  20
ENDBRANCH   7  19
TORSDOF 5
ENDMDL
MODEL 5
REMARK VINA RESULT:     -10.4      5.625     11.172
REMARK  Name = 6450551
REMARK  5 active torsions:
REMARK  status: ('A' for Active; 'I' for Inactive)
REMARK    1  A    between atoms: C_5  and  C_11
REMARK    2  A    between atoms: C_7  and  S_19
REMARK    3  A    between atoms: C_12  and  C_14
REMARK    4  A    between atoms: S_19  and  C_20
REMARK    5  A    between atoms: C_21  and  C_28
REMARK                            x       y       z     vdW  Elec       q    Type
REMARK                         _______ _______ _______ _____ _____    ______ ____
ROOT
ATOM      1  N   UNL     1      33.765 -15.929 -25.239  0.00  0.00    -0.276 N 
ATOM      2  N   UNL     1      34.253 -17.061 -24.705  0.00  0.00    -0.173 NA
ATOM      3  C   UNL     1      34.323 -15.335 -23.204  0.00  0.00    +0.036 A 
ATOM      4  C   UNL     1      33.779 -14.855 -24.390  0.00  0.00    +0.076 A 
ATOM      5  C   UNL     1      34.591 -16.696 -23.466  0.00  0.00    +0.102 A 
ATOM      6  C   UNL     1      33.368 -13.531 -24.558  0.00  0.00    +0.025 C 
ATOM      7  C   UNL     1      33.524 -12.675 -23.465  0.00  0.00    +0.031 C 
ATOM      8  C   UNL     1      34.473 -14.462 -22.113  0.00  0.00    +0.004 C 
ATOM      9  C   UNL     1      34.068 -13.130 -22.261  0.00  0.00    +0.007 C 
ATOM     10  H   UNL     1      33.427 -15.875 -26.163  0.00  0.00    +0.189 HD
ENDROOT
BRANCH   5  11
ATOM     11  C   UNL     1      35.160 -17.595 -22.526  0.00  0.00    +0.022 C 
ATOM     12  C   UNL     1      34.596 -18.710 -21.991  0.00  0.00    +0.021 C 
BRANCH  12  14
ATOM     13  N   UNL     1      36.516 -19.306 -20.717  0.00  0.00    -0.244 NA
ATOM     14  C   UNL     1      35.237 -19.599 -21.005  0.00  0.00    +0.081 C 
ATOM     15  C   UNL     1      34.514 -20.636 -20.464  0.00  0.00    +0.019 C 
ATOM     16  C   UNL     1      35.161 -21.449 -19.539  0.00  0.00    +0.003 C 
ATOM     17  C   UNL     1      37.113 -20.117 -19.816  0.00  0.00    +0.099 C 
ATOM     18  C   UNL     1      36.485 -21.192 -19.204  0.00  0.00    +0.021 C 
ENDBRANCH  12  14
ENDBRANCH   5  11
BRANCH   7  19
ATOM     19  S   UNL     1      33.020 -10.968 -23.612  0.00  0.00    -0.087 S 
BRANCH  19  20
ATOM     20  C   UNL     1      32.309 -10.678 -21.998  0.00  0.00    +0.034 C 
ATOM     21  C   UNL     1      32.230  -9.398 -21.444  0.00  0.00    +0.059 C 
ATOM     22  C   UNL     1      31.824 -11.774 -21.283  0.00  0.00    +0.007 C 
ATOM     23  C   UNL     1      31.668  -9.217 -20.181  0.00  0.00    +0.005 C 
ATOM     24  C   UNL     1      31.261 -11.593 -20.019  0.00  0.00    +0.001 C 
ATOM     25  C   UNL     1      31.183 -10.314 -19.468  0.00  0.00    +0.000 C 
BRANCH  21  28
ATOM     26  O   UNL     1      33.905  -7.865 -22.027  0.00  0.00    -0.270 OA
ATOM     27  N   UNL     1      31.805  -7.537 -22.952  0.00  0.00    -0.299 N 
ATOM     28  C   UNL     1      32.721  -8.216 -22.144  0.00  0.00    +0.246 C 
ATOM     29  C   UNL     1      32.144  -6.364 -23.727  0.00  0.00    +0.111 C 
ATOM     30  H   UNL     1      30.881  -7.874 -22.996  0.00  0.00    +0.150 HD
ENDBRANCH  21  28
ENDBRANCH  19  20
ENDBRANCH   7  19
TORSDOF 5
ENDMDL
MODEL 6
REMARK VINA RESULT:     -10.4      5.763     11.389
REMARK  Name = 6450551
REMARK  5 active torsions:
REMARK  status: ('A' for Active; 'I' for Inactive)
REMARK    1  A    between atoms: C_5  and  C_11
REMARK    2  A    between atoms: C_7  and  S_19
REMARK    3  A    between atoms: C_12  and  C_14
REMARK    4  A    between atoms: S_19  and  C_20
REMARK    5  A    between atoms: C_21  and  C_28
REMARK                            x       y       z     vdW  Elec       q    Type
REMARK                         _______ _______ _______ _____ _____    ______ ____
ROOT
ATOM      1  N   UNL     1      34.202 -14.316 -24.306  0.00  0.00    -0.276 N 
ATOM      2  N   UNL     1      34.818 -15.444 -23.912  0.00  0.00    -0.173 NA
ATOM      3  C   UNL     1      33.661 -14.480 -22.188  0.00  0.00    +0.036 A 
ATOM      4  C   UNL     1      33.491 -13.689 -23.318  0.00  0.00    +0.076 A 
ATOM      5  C   UNL     1      34.485 -15.541 -22.622  0.00  0.00    +0.102 A 
ATOM      6  C   UNL     1      32.728 -12.519 -23.321  0.00  0.00    +0.025 C 
ATOM      7  C   UNL     1      32.121 -12.155 -22.116  0.00  0.00    +0.031 C 
ATOM      8  C   UNL     1      33.043 -14.101 -20.983  0.00  0.00    +0.004 C 
ATOM      9  C   UNL     1      32.274 -12.931 -20.966  0.00  0.00    +0.007 C 
ATOM     10  H   UNL     1      34.259 -13.969 -25.226  0.00  0.00    +0.189 HD
ENDROOT
BRANCH   5  11
ATOM     11  C   UNL     1      34.925 -16.605 -21.792  0.00  0.00    +0.022 C 
ATOM     12  C   UNL     1      35.056 -17.918 -22.117  0.00  0.00    +0.021 C 
BRANCH  12  14
ATOM     13  N   UNL     1      36.778 -18.870 -20.777  0.00  0.00    -0.244 NA
ATOM     14  C   UNL     1      35.508 -18.981 -21.201  0.00  0.00    +0.081 C 
ATOM     15  C   UNL     1      34.635 -19.984 -20.851  0.00  0.00    +0.019 C 
ATOM     16  C   UNL     1      35.106 -20.965 -19.985  0.00  0.00    +0.003 C 
ATOM     17  C   UNL     1      37.202 -19.840 -19.938  0.00  0.00    +0.099 C 
ATOM     18  C   UNL     1      36.413 -20.900 -19.516  0.00  0.00    +0.021 C 
ENDBRANCH  12  14
ENDBRANCH   5  11
BRANCH   7  19
ATOM     19  S   UNL     1      31.131 -10.670 -22.050  0.00  0.00    -0.087 S 
BRANCH  19  20
ATOM     20  C   UNL     1      32.387  -9.410 -22.222  0.00  0.00    +0.034 C 
ATOM     21  C   UNL     1      32.774  -8.601 -21.151  0.00  0.00    +0.059 C 
ATOM     22  C   UNL     1      32.989  -9.243 -23.470  0.00  0.00    +0.007 C 
ATOM     23  C   UNL     1      33.759  -7.630 -21.330  0.00  0.00    +0.005 C 
ATOM     24  C   UNL     1      33.974  -8.271 -23.649  0.00  0.00    +0.001 C 
ATOM     25  C   UNL     1      34.359  -7.465 -22.578  0.00  0.00    +0.000 C 
BRANCH  21  28
ATOM     26  O   UNL     1      31.589  -7.771 -19.307  0.00  0.00    -0.270 OA
ATOM     27  N   UNL     1      32.298  -9.975 -19.201  0.00  0.00    -0.299 N 
ATOM     28  C   UNL     1      32.182  -8.730 -19.825  0.00  0.00    +0.246 C 
ATOM     29  C   UNL     1      31.743 -10.267 -17.898  0.00  0.00    +0.111 C 
ATOM     30  H   UNL     1      32.783 -10.690 -19.673  0.00  0.00    +0.150 HD
ENDBRANCH  21  28
ENDBRANCH  19  20
ENDBRANCH   7  19
TORSDOF 5
ENDMDL
MODEL 7
REMARK VINA RESULT:     -10.3      5.888     12.009
REMARK  Name = 6450551
REMARK  5 active torsions:
REMARK  status: ('A' for Active; 'I' for Inactive)
REMARK    1  A    between atoms: C_5  and  C_11
REMARK    2  A    between atoms: C_7  and  S_19
REMARK    3  A    between atoms: C_12  and  C_14
REMARK    4  A    between atoms: S_19  and  C_20
REMARK    5  A    between atoms: C_21  and  C_28
REMARK                            x       y       z     vdW  Elec       q    Type
REMARK                         _______ _______ _______ _____ _____    ______ ____
ROOT
ATOM      1  N   UNL     1      34.080 -14.850 -24.687  0.00  0.00    -0.276 N 
ATOM      2  N   UNL     1      34.638 -15.992 -24.249  0.00  0.00    -0.173 NA
ATOM      3  C   UNL     1      33.970 -14.668 -22.504  0.00  0.00    +0.036 A 
ATOM      4  C   UNL     1      33.659 -14.012 -23.690  0.00  0.00    +0.076 A 
ATOM      5  C   UNL     1      34.569 -15.877 -22.920  0.00  0.00    +0.102 A 
ATOM      6  C   UNL     1      33.042 -12.759 -23.727  0.00  0.00    +0.025 C 
ATOM      7  C   UNL     1      32.738 -12.165 -22.498  0.00  0.00    +0.031 C 
ATOM      8  C   UNL     1      33.658 -14.059 -21.277  0.00  0.00    +0.004 C 
ATOM      9  C   UNL     1      33.040 -12.802 -21.293  0.00  0.00    +0.007 C 
ATOM     10  H   UNL     1      33.983 -14.634 -25.643  0.00  0.00    +0.189 HD
ENDROOT
BRANCH   5  11
ATOM     11  C   UNL     1      35.052 -16.877 -22.036  0.00  0.00    +0.022 C 
ATOM     12  C   UNL     1      34.924 -18.226 -22.149  0.00  0.00    +0.021 C 
BRANCH  12  14
ATOM     13  N   UNL     1      36.712 -19.024 -20.796  0.00  0.00    -0.244 NA
ATOM     14  C   UNL     1      35.440 -19.214 -21.186  0.00  0.00    +0.081 C 
ATOM     15  C   UNL     1      34.619 -20.233 -20.762  0.00  0.00    +0.019 C 
ATOM     16  C   UNL     1      35.150 -21.142 -19.853  0.00  0.00    +0.003 C 
ATOM     17  C   UNL     1      37.194 -19.926 -19.913  0.00  0.00    +0.099 C 
ATOM     18  C   UNL     1      36.461 -20.993 -19.416  0.00  0.00    +0.021 C 
ENDBRANCH  12  14
ENDBRANCH   5  11
BRANCH   7  19
ATOM     19  S   UNL     1      31.949 -10.563 -22.474  0.00  0.00    -0.087 S 
BRANCH  19  20
ATOM     20  C   UNL     1      33.334  -9.491 -22.828  0.00  0.00    +0.034 C 
ATOM     21  C   UNL     1      33.399  -8.182 -22.346  0.00  0.00    +0.059 C 
ATOM     22  C   UNL     1      34.374  -9.993 -23.614  0.00  0.00    +0.007 C 
ATOM     23  C   UNL     1      34.499  -7.380 -22.647  0.00  0.00    +0.005 C 
ATOM     24  C   UNL     1      35.474  -9.190 -23.915  0.00  0.00    +0.001 C 
ATOM     25  C   UNL     1      35.536  -7.883 -23.432  0.00  0.00    +0.000 C 
BRANCH  21  28
ATOM     26  O   UNL     1      32.182  -7.986 -20.352  0.00  0.00    -0.270 OA
ATOM     27  N   UNL     1      31.562  -6.604 -22.107  0.00  0.00    -0.299 N 
ATOM     28  C   UNL     1      32.343  -7.604 -21.522  0.00  0.00    +0.246 C 
ATOM     29  C   UNL     1      30.495  -5.919 -21.413  0.00  0.00    +0.111 C 
ATOM     30  H   UNL     1      31.749  -6.353 -23.041  0.00  0.00    +0.150 HD
ENDBRANCH  21  28
ENDBRANCH  19  20
ENDBRANCH   7  19
TORSDOF 5
ENDMDL
MODEL 8
REMARK VINA RESULT:      -9.9      1.714      2.362
REMARK  Name = 6450551
REMARK  5 active torsions:
REMARK  status: ('A' for Active; 'I' for Inactive)
REMARK    1  A    between atoms: C_5  and  C_11
REMARK    2  A    between atoms: C_7  and  S_19
REMARK    3  A    between atoms: C_12  and  C_14
REMARK    4  A    between atoms: S_19  and  C_20
REMARK    5  A    between atoms: C_21  and  C_28
REMARK                            x       y       z     vdW  Elec       q    Type
REMARK                         _______ _______ _______ _____ _____    ______ ____
ROOT
ATOM      1  N   UNL     1      36.917 -21.022 -18.505  0.00  0.00    -0.276 N 
ATOM      2  N   UNL     1      36.864 -20.152 -19.527  0.00  0.00    -0.173 NA
ATOM      3  C   UNL     1      34.893 -21.294 -19.304  0.00  0.00    +0.036 A 
ATOM      4  C   UNL     1      35.766 -21.739 -18.318  0.00  0.00    +0.076 A 
ATOM      5  C   UNL     1      35.631 -20.320 -20.011  0.00  0.00    +0.102 A 
ATOM      6  C   UNL     1      35.423 -22.720 -17.385  0.00  0.00    +0.025 C 
ATOM      7  C   UNL     1      34.137 -23.259 -17.475  0.00  0.00    +0.031 C 
ATOM      8  C   UNL     1      33.603 -21.845 -19.382  0.00  0.00    +0.004 C 
ATOM      9  C   UNL     1      33.240 -22.830 -18.455  0.00  0.00    +0.007 C 
ATOM     10  H   UNL     1      37.715 -21.135 -17.939  0.00  0.00    +0.189 HD
ENDROOT
BRANCH   5  11
ATOM     11  C   UNL     1      35.133 -19.587 -21.120  0.00  0.00    +0.022 C 
ATOM     12  C   UNL     1      35.559 -18.383 -21.586  0.00  0.00    +0.021 C 
BRANCH  12  14
ATOM     13  N   UNL     1      35.149 -16.332 -22.721  0.00  0.00    -0.244 NA
ATOM     14  C   UNL     1      34.989 -17.666 -22.740  0.00  0.00    +0.081 C 
ATOM     15  C   UNL     1      34.350 -18.379 -23.727  0.00  0.00    +0.019 C 
ATOM     16  C   UNL     1      33.827 -17.659 -24.796  0.00  0.00    +0.003 C 
ATOM     17  C   UNL     1      34.629 -15.665 -23.775  0.00  0.00    +0.099 C 
ATOM     18  C   UNL     1      33.964 -16.276 -24.828  0.00  0.00    +0.021 C 
ENDBRANCH  12  14
ENDBRANCH   5  11
BRANCH   7  19
ATOM     19  S   UNL     1      33.633 -24.519 -16.313  0.00  0.00    -0.087 S 
BRANCH  19  20
ATOM     20  C   UNL     1      32.137 -23.800 -15.651  0.00  0.00    +0.034 C 
ATOM     21  C   UNL     1      31.874 -23.773 -14.279  0.00  0.00    +0.059 C 
ATOM     22  C   UNL     1      31.215 -23.254 -16.545  0.00  0.00    +0.007 C 
ATOM     23  C   UNL     1      30.693 -23.201 -13.806  0.00  0.00    +0.005 C 
ATOM     24  C   UNL     1      30.034 -22.682 -16.071  0.00  0.00    +0.001 C 
ATOM     25  C   UNL     1      29.773 -22.656 -14.701  0.00  0.00    +0.000 C 
BRANCH  21  28
ATOM     26  O   UNL     1      32.498 -25.347 -12.658  0.00  0.00    -0.270 OA
ATOM     27  N   UNL     1      34.025 -23.672 -13.147  0.00  0.00    -0.299 N 
ATOM     28  C   UNL     1      32.800 -24.327 -13.299  0.00  0.00    +0.246 C 
ATOM     29  C   UNL     1      35.056 -24.113 -12.234  0.00  0.00    +0.111 C 
ATOM     30  H   UNL     1      34.194 -22.868 -13.690  0.00  0.00    +0.150 HD
ENDBRANCH  21  28
ENDBRANCH  19  20
ENDBRANCH   7  19
TORSDOF 5
ENDMDL
MODEL 9
REMARK VINA RESULT:      -9.4      8.735     14.465
REMARK  Name = 6450551
REMARK  5 active torsions:
REMARK  status: ('A' for Active; 'I' for Inactive)
REMARK    1  A    between atoms: C_5  and  C_11
REMARK    2  A    between atoms: C_7  and  S_19
REMARK    3  A    between atoms: C_12  and  C_14
REMARK    4  A    between atoms: S_19  and  C_20
REMARK    5  A    between atoms: C_21  and  C_28
REMARK                            x       y       z     vdW  Elec       q    Type
REMARK                         _______ _______ _______ _____ _____    ______ ____
ROOT
ATOM      1  N   UNL     1      31.892 -11.074 -19.276  0.00  0.00    -0.276 N 
ATOM      2  N   UNL     1      32.128 -12.352 -19.616  0.00  0.00    -0.173 NA
ATOM      3  C   UNL     1      32.229 -10.973 -21.440  0.00  0.00    +0.036 A 
ATOM      4  C   UNL     1      31.938 -10.196 -20.325  0.00  0.00    +0.076 A 
ATOM      5  C   UNL     1      32.334 -12.287 -20.934  0.00  0.00    +0.102 A 
ATOM      6  C   UNL     1      31.753  -8.813 -20.388  0.00  0.00    +0.025 C 
ATOM      7  C   UNL     1      31.873  -8.214 -21.646  0.00  0.00    +0.031 C 
ATOM      8  C   UNL     1      32.347 -10.357 -22.697  0.00  0.00    +0.004 C 
ATOM      9  C   UNL     1      32.165  -8.971 -22.782  0.00  0.00    +0.007 C 
ATOM     10  H   UNL     1      31.701 -10.793 -18.351  0.00  0.00    +0.189 HD
ENDROOT
BRANCH   5  11
ATOM     11  C   UNL     1      32.624 -13.429 -21.725  0.00  0.00    +0.022 C 
ATOM     12  C   UNL     1      33.842 -13.870 -22.138  0.00  0.00    +0.021 C 
BRANCH  12  14
ATOM     13  N   UNL     1      33.536 -15.016 -24.202  0.00  0.00    -0.244 NA
ATOM     14  C   UNL     1      34.077 -15.062 -22.973  0.00  0.00    +0.081 C 
ATOM     15  C   UNL     1      34.806 -16.110 -22.461  0.00  0.00    +0.019 C 
ATOM     16  C   UNL     1      35.002 -17.212 -23.285  0.00  0.00    +0.003 C 
ATOM     17  C   UNL     1      33.746 -16.105 -24.974  0.00  0.00    +0.099 C 
ATOM     18  C   UNL     1      34.464 -17.219 -24.567  0.00  0.00    +0.021 C 
ENDBRANCH  12  14
ENDBRANCH   5  11
BRANCH   7  19
ATOM     19  S   UNL     1      31.647  -6.449 -21.799  0.00  0.00    -0.087 S 
BRANCH  19  20
ATOM     20  C   UNL     1      32.872  -6.051 -23.038  0.00  0.00    +0.034 C 
ATOM     21  C   UNL     1      32.723  -4.963 -23.902  0.00  0.00    +0.059 C 
ATOM     22  C   UNL     1      34.004  -6.862 -23.133  0.00  0.00    +0.007 C 
ATOM     23  C   UNL     1      33.704  -4.688 -24.855  0.00  0.00    +0.005 C 
ATOM     24  C   UNL     1      34.984  -6.587 -24.086  0.00  0.00    +0.001 C 
ATOM     25  C   UNL     1      34.834  -5.500 -24.947  0.00  0.00    +0.000 C 
BRANCH  21  28
ATOM     26  O   UNL     1      30.525  -4.373 -24.464  0.00  0.00    -0.270 OA
ATOM     27  N   UNL     1      31.679  -2.931 -23.064  0.00  0.00    -0.299 N 
ATOM     28  C   UNL     1      31.563  -4.081 -23.849  0.00  0.00    +0.246 C 
ATOM     29  C   UNL     1      30.611  -1.972 -22.892  0.00  0.00    +0.111 C 
ATOM     30  H   UNL     1      32.534  -2.765 -22.604  0.00  0.00    +0.150 HD
ENDBRANCH  21  28
ENDBRANCH  19  20
ENDBRANCH   7  19
TORSDOF 5
ENDMDL
