MODEL 1
REMARK VINA RESULT:     -11.9      0.000      0.000
REMARK  Name = 6102777
REMARK  2 active torsions:
REMARK  status: ('A' for Active; 'I' for Inactive)
REMARK    1  A    between atoms: C_4  and  S_16
REMARK    2  A    between atoms: S_16  and  N_19
REMARK                            x       y       z     vdW  Elec       q    Type
REMARK                         _______ _______ _______ _____ _____    ______ ____
ROOT
ATOM      1  O   UNL     1      36.770 -20.921 -18.790  0.00  0.00    -0.453 OA
ATOM      2  O   UNL     1      32.923 -22.318 -18.774  0.00  0.00    -0.286 OA
ATOM      3  C   UNL     1      35.029 -22.258 -17.720  0.00  0.00    +0.075 A 
ATOM      4  C   UNL     1      35.577 -23.417 -15.675  0.00  0.00    +0.126 C 
ATOM      5  C   UNL     1      36.325 -21.747 -17.788  0.00  0.00    +0.148 A 
ATOM      6  C   UNL     1      34.650 -23.093 -16.666  0.00  0.00    +0.026 C 
ATOM      7  C   UNL     1      34.568 -21.014 -19.843  0.00  0.00    +0.074 A 
ATOM      8  C   UNL     1      34.072 -21.900 -18.778  0.00  0.00    +0.201 A 
ATOM      9  C   UNL     1      35.891 -20.575 -19.787  0.00  0.00    +0.148 A 
ATOM     10  C   UNL     1      36.875 -22.909 -15.739  0.00  0.00    +0.023 C 
ATOM     11  C   UNL     1      37.249 -22.075 -16.793  0.00  0.00    +0.039 C 
ATOM     12  C   UNL     1      33.732 -20.619 -20.890  0.00  0.00    +0.006 C 
ATOM     13  C   UNL     1      36.383 -19.734 -20.787  0.00  0.00    +0.038 C 
ATOM     14  C   UNL     1      34.230 -19.778 -21.887  0.00  0.00    +0.000 C 
ATOM     15  C   UNL     1      35.552 -19.337 -21.836  0.00  0.00    +0.003 C 
ENDROOT
BRANCH   4  16
ATOM     16  S   UNL     1      35.114 -24.460 -14.354  0.00  0.00    +0.081 S 
ATOM     17  O   UNL     1      33.699 -24.243 -14.079  0.00  0.00    -0.149 OA
ATOM     18  O   UNL     1      35.590 -25.805 -14.650  0.00  0.00    -0.149 OA
BRANCH  16  19
ATOM     19  N   UNL     1      36.038 -23.809 -13.074  0.00  0.00    -0.156 N 
ATOM     20  N   UNL     1      36.695 -23.665 -10.764  0.00  0.00    -0.094 NA
ATOM     21  N   UNL     1      35.094 -25.174 -11.302  0.00  0.00    -0.071 NA
ATOM     22  N   UNL     1      36.237 -24.371  -9.720  0.00  0.00    -0.139 N 
ATOM     23  N   UNL     1      35.286 -25.276  -9.992  0.00  0.00    -0.020 NA
ATOM     24  C   UNL     1      35.950 -24.207 -11.719  0.00  0.00    +0.145 C 
ATOM     25  H   UNL     1      36.684 -23.100 -13.297  0.00  0.00    +0.186 HD
ATOM     26  H   UNL     1      36.578 -24.232  -8.807  0.00  0.00    +0.197 HD
ENDBRANCH  16  19
ENDBRANCH   4  16
TORSDOF 2
ENDMDL
MODEL 2
REMARK VINA RESULT:     -11.9      2.813      4.191
REMARK  Name = 6102777
REMARK  2 active torsions:
REMARK  status: ('A' for Active; 'I' for Inactive)
REMARK    1  A    between atoms: C_4  and  S_16
REMARK    2  A    between atoms: S_16  and  N_19
REMARK                            x       y       z     vdW  Elec       q    Type
REMARK                         _______ _______ _______ _____ _____    ______ ____
ROOT
ATOM      1  O   UNL     1      33.704 -23.412 -16.182  0.00  0.00    -0.453 OA
ATOM      2  O   UNL     1      37.621 -22.234 -16.306  0.00  0.00    -0.286 OA
ATOM      3  C   UNL     1      35.886 -23.266 -15.094  0.00  0.00    +0.075 A 
ATOM      4  C   UNL     1      36.113 -24.179 -12.871  0.00  0.00    +0.126 C 
ATOM      5  C   UNL     1      34.542 -23.640 -15.119  0.00  0.00    +0.148 A 
ATOM      6  C   UNL     1      36.676 -23.533 -13.973  0.00  0.00    +0.026 C 
ATOM      7  C   UNL     1      35.538 -22.353 -17.398  0.00  0.00    +0.074 A 
ATOM      8  C   UNL     1      36.452 -22.587 -16.269  0.00  0.00    +0.201 A 
ATOM      9  C   UNL     1      34.215 -22.779 -17.289  0.00  0.00    +0.148 A 
ATOM     10  C   UNL     1      34.770 -24.554 -12.891  0.00  0.00    +0.023 C 
ATOM     11  C   UNL     1      33.984 -24.285 -14.013  0.00  0.00    +0.039 C 
ATOM     12  C   UNL     1      35.985 -21.715 -18.558  0.00  0.00    +0.006 C 
ATOM     13  C   UNL     1      33.331 -22.567 -18.348  0.00  0.00    +0.038 C 
ATOM     14  C   UNL     1      35.097 -21.506 -19.613  0.00  0.00    +0.000 C 
ATOM     15  C   UNL     1      33.773 -21.930 -19.509  0.00  0.00    +0.003 C 
ENDROOT
BRANCH   4  16
ATOM     16  S   UNL     1      37.092 -24.518 -11.465  0.00  0.00    +0.081 S 
ATOM     17  O   UNL     1      36.962 -23.398 -10.541  0.00  0.00    -0.149 OA
ATOM     18  O   UNL     1      36.778 -25.865 -11.009  0.00  0.00    -0.149 OA
BRANCH  16  19
ATOM     19  N   UNL     1      38.661 -24.506 -12.139  0.00  0.00    -0.156 N 
ATOM     20  N   UNL     1      40.390 -25.395 -13.557  0.00  0.00    -0.094 NA
ATOM     21  N   UNL     1      38.408 -26.490 -13.515  0.00  0.00    -0.071 NA
ATOM     22  N   UNL     1      40.346 -26.476 -14.349  0.00  0.00    -0.139 N 
ATOM     23  N   UNL     1      39.191 -27.156 -14.355  0.00  0.00    -0.020 NA
ATOM     24  C   UNL     1      39.158 -25.454 -13.065  0.00  0.00    +0.145 C 
ATOM     25  H   UNL     1      39.268 -23.782 -11.860  0.00  0.00    +0.186 HD
ATOM     26  H   UNL     1      41.117 -26.754 -14.894  0.00  0.00    +0.197 HD
ENDBRANCH  16  19
ENDBRANCH   4  16
TORSDOF 2
ENDMDL
MODEL 3
REMARK VINA RESULT:     -11.6      4.571      5.466
REMARK  Name = 6102777
REMARK  2 active torsions:
REMARK  status: ('A' for Active; 'I' for Inactive)
REMARK    1  A    between atoms: C_4  and  S_16
REMARK    2  A    between atoms: S_16  and  N_19
REMARK                            x       y       z     vdW  Elec       q    Type
REMARK                         _______ _______ _______ _____ _____    ______ ____
ROOT
ATOM      1  O   UNL     1      35.549 -22.954 -16.599  0.00  0.00    -0.453 OA
ATOM      2  O   UNL     1      31.997 -22.247 -18.504  0.00  0.00    -0.286 OA
ATOM      3  C   UNL     1      33.116 -23.162 -16.645  0.00  0.00    +0.075 A 
ATOM      4  C   UNL     1      32.033 -24.281 -14.801  0.00  0.00    +0.126 C 
ATOM      5  C   UNL     1      34.361 -23.370 -16.051  0.00  0.00    +0.148 A 
ATOM      6  C   UNL     1      31.949 -23.615 -16.025  0.00  0.00    +0.026 C 
ATOM      7  C   UNL     1      34.341 -22.019 -18.505  0.00  0.00    +0.074 A 
ATOM      8  C   UNL     1      33.058 -22.457 -17.934  0.00  0.00    +0.201 A 
ATOM      9  C   UNL     1      35.515 -22.294 -17.803  0.00  0.00    +0.148 A 
ATOM     10  C   UNL     1      33.276 -24.492 -14.203  0.00  0.00    +0.023 C 
ATOM     11  C   UNL     1      34.438 -24.037 -14.826  0.00  0.00    +0.039 C 
ATOM     12  C   UNL     1      34.387 -21.342 -19.725  0.00  0.00    +0.006 C 
ATOM     13  C   UNL     1      36.744 -21.888 -18.325  0.00  0.00    +0.038 C 
ATOM     14  C   UNL     1      35.618 -20.939 -20.243  0.00  0.00    +0.000 C 
ATOM     15  C   UNL     1      36.795 -21.210 -19.545  0.00  0.00    +0.003 C 
ENDROOT
BRANCH   4  16
ATOM     16  S   UNL     1      30.581 -24.852 -14.017  0.00  0.00    +0.081 S 
ATOM     17  O   UNL     1      30.098 -26.016 -14.748  0.00  0.00    -0.149 OA
ATOM     18  O   UNL     1      30.850 -24.961 -12.590  0.00  0.00    -0.149 OA
BRANCH  16  19
ATOM     19  N   UNL     1      29.518 -23.543 -14.287  0.00  0.00    -0.156 N 
ATOM     20  N   UNL     1      27.820 -22.385 -15.538  0.00  0.00    -0.094 NA
ATOM     21  N   UNL     1      28.531 -24.379 -16.341  0.00  0.00    -0.071 NA
ATOM     22  N   UNL     1      27.216 -22.763 -16.674  0.00  0.00    -0.139 N 
ATOM     23  N   UNL     1      27.608 -23.938 -17.186  0.00  0.00    -0.020 NA
ATOM     24  C   UNL     1      28.625 -23.428 -15.379  0.00  0.00    +0.145 C 
ATOM     25  H   UNL     1      29.527 -22.808 -13.630  0.00  0.00    +0.186 HD
ATOM     26  H   UNL     1      26.527 -22.209 -17.107  0.00  0.00    +0.197 HD
ENDBRANCH  16  19
ENDBRANCH   4  16
TORSDOF 2
ENDMDL
MODEL 4
REMARK VINA RESULT:     -11.6      1.126      2.326
REMARK  Name = 6102777
REMARK  2 active torsions:
REMARK  status: ('A' for Active; 'I' for Inactive)
REMARK    1  A    between atoms: C_4  and  S_16
REMARK    2  A    between atoms: S_16  and  N_19
REMARK                            x       y       z     vdW  Elec       q    Type
REMARK                         _______ _______ _______ _____ _____    ______ ____
ROOT
ATOM      1  O   UNL     1      32.810 -21.868 -18.725  0.00  0.00    -0.453 OA
ATOM      2  O   UNL     1      36.786 -22.137 -17.793  0.00  0.00    -0.286 OA
ATOM      3  C   UNL     1      34.564 -22.676 -17.229  0.00  0.00    +0.075 A 
ATOM      4  C   UNL     1      33.908 -23.957 -15.292  0.00  0.00    +0.126 C 
ATOM      5  C   UNL     1      33.227 -22.545 -17.605  0.00  0.00    +0.148 A 
ATOM      6  C   UNL     1      34.910 -23.380 -16.073  0.00  0.00    +0.026 C 
ATOM      7  C   UNL     1      35.132 -21.339 -19.268  0.00  0.00    +0.074 A 
ATOM      8  C   UNL     1      35.599 -22.058 -18.072  0.00  0.00    +0.201 A 
ATOM      9  C   UNL     1      33.763 -21.285 -19.525  0.00  0.00    +0.148 A 
ATOM     10  C   UNL     1      32.570 -23.828 -15.663  0.00  0.00    +0.023 C 
ATOM     11  C   UNL     1      32.229 -23.123 -16.818  0.00  0.00    +0.039 C 
ATOM     12  C   UNL     1      36.041 -20.721 -20.129  0.00  0.00    +0.006 C 
ATOM     13  C   UNL     1      33.297 -20.608 -20.654  0.00  0.00    +0.038 C 
ATOM     14  C   UNL     1      35.570 -20.045 -21.256  0.00  0.00    +0.000 C 
ATOM     15  C   UNL     1      34.202 -19.989 -21.518  0.00  0.00    +0.003 C 
ENDROOT
BRANCH   4  16
ATOM     16  S   UNL     1      34.329 -24.840 -13.845  0.00  0.00    +0.081 S 
ATOM     17  O   UNL     1      33.138 -24.942 -13.012  0.00  0.00    -0.149 OA
ATOM     18  O   UNL     1      35.033 -26.052 -14.243  0.00  0.00    -0.149 OA
BRANCH  16  19
ATOM     19  N   UNL     1      35.436 -23.767 -13.109  0.00  0.00    -0.156 N 
ATOM     20  N   UNL     1      36.735 -22.976 -11.244  0.00  0.00    -0.094 NA
ATOM     21  N   UNL     1      35.431 -24.798 -10.911  0.00  0.00    -0.071 NA
ATOM     22  N   UNL     1      36.800 -23.474 -10.001  0.00  0.00    -0.139 N 
ATOM     23  N   UNL     1      36.043 -24.554  -9.759  0.00  0.00    -0.020 NA
ATOM     24  C   UNL     1      35.870 -23.839 -11.764  0.00  0.00    +0.145 C 
ATOM     25  H   UNL     1      35.801 -23.040 -13.665  0.00  0.00    +0.186 HD
ATOM     26  H   UNL     1      37.370 -23.071  -9.307  0.00  0.00    +0.197 HD
ENDBRANCH  16  19
ENDBRANCH   4  16
TORSDOF 2
ENDMDL
MODEL 5
REMARK VINA RESULT:     -11.3      5.112      7.413
REMARK  Name = 6102777
REMARK  2 active torsions:
REMARK  status: ('A' for Active; 'I' for Inactive)
REMARK    1  A    between atoms: C_4  and  S_16
REMARK    2  A    between atoms: S_16  and  N_19
REMARK                            x       y       z     vdW  Elec       q    Type
REMARK                         _______ _______ _______ _____ _____    ______ ____
ROOT
ATOM      1  O   UNL     1      36.491 -24.202 -15.452  0.00  0.00    -0.453 OA
ATOM      2  O   UNL     1      35.724 -25.664 -11.707  0.00  0.00    -0.286 OA
ATOM      3  C   UNL     1      34.880 -24.708 -13.687  0.00  0.00    +0.075 A 
ATOM      4  C   UNL     1      32.555 -24.199 -14.086  0.00  0.00    +0.126 C 
ATOM      5  C   UNL     1      35.212 -24.224 -14.952  0.00  0.00    +0.148 A 
ATOM      6  C   UNL     1      33.553 -24.698 -13.249  0.00  0.00    +0.026 C 
ATOM      7  C   UNL     1      37.316 -25.196 -13.379  0.00  0.00    +0.074 A 
ATOM      8  C   UNL     1      35.953 -25.228 -12.826  0.00  0.00    +0.201 A 
ATOM      9  C   UNL     1      37.506 -24.684 -14.662  0.00  0.00    +0.148 A 
ATOM     10  C   UNL     1      32.882 -23.713 -15.352  0.00  0.00    +0.023 C 
ATOM     11  C   UNL     1      34.208 -23.725 -15.785  0.00  0.00    +0.039 C 
ATOM     12  C   UNL     1      38.400 -25.669 -12.635  0.00  0.00    +0.006 C 
ATOM     13  C   UNL     1      38.791 -24.643 -15.207  0.00  0.00    +0.038 C 
ATOM     14  C   UNL     1      39.681 -25.626 -13.185  0.00  0.00    +0.000 C 
ATOM     15  C   UNL     1      39.877 -25.115 -14.468  0.00  0.00    +0.003 C 
ENDROOT
BRANCH   4  16
ATOM     16  S   UNL     1      30.894 -24.181 -13.548  0.00  0.00    +0.081 S 
ATOM     17  O   UNL     1      30.322 -25.498 -13.798  0.00  0.00    -0.149 OA
ATOM     18  O   UNL     1      30.860 -23.628 -12.201  0.00  0.00    -0.149 OA
BRANCH  16  19
ATOM     19  N   UNL     1      30.203 -23.058 -14.632  0.00  0.00    -0.156 N 
ATOM     20  N   UNL     1      28.739 -22.448 -16.442  0.00  0.00    -0.094 NA
ATOM     21  N   UNL     1      28.770 -24.623 -15.811  0.00  0.00    -0.071 NA
ATOM     22  N   UNL     1      27.915 -23.235 -17.150  0.00  0.00    -0.139 N 
ATOM     23  N   UNL     1      27.902 -24.531 -16.811  0.00  0.00    -0.020 NA
ATOM     24  C   UNL     1      29.243 -23.365 -15.625  0.00  0.00    +0.145 C 
ATOM     25  H   UNL     1      30.496 -22.120 -14.560  0.00  0.00    +0.186 HD
ATOM     26  H   UNL     1      27.353 -22.880 -17.876  0.00  0.00    +0.197 HD
ENDBRANCH  16  19
ENDBRANCH   4  16
TORSDOF 2
ENDMDL
MODEL 6
REMARK VINA RESULT:     -11.2      2.282      2.788
REMARK  Name = 6102777
REMARK  2 active torsions:
REMARK  status: ('A' for Active; 'I' for Inactive)
REMARK    1  A    between atoms: C_4  and  S_16
REMARK    2  A    between atoms: S_16  and  N_19
REMARK                            x       y       z     vdW  Elec       q    Type
REMARK                         _______ _______ _______ _____ _____    ______ ____
ROOT
ATOM      1  O   UNL     1      36.851 -20.646 -19.017  0.00  0.00    -0.453 OA
ATOM      2  O   UNL     1      33.017 -22.009 -19.456  0.00  0.00    -0.286 OA
ATOM      3  C   UNL     1      35.000 -22.004 -18.184  0.00  0.00    +0.075 A 
ATOM      4  C   UNL     1      35.323 -23.237 -16.135  0.00  0.00    +0.126 C 
ATOM      5  C   UNL     1      36.298 -21.502 -18.097  0.00  0.00    +0.148 A 
ATOM      6  C   UNL     1      34.507 -22.871 -17.206  0.00  0.00    +0.026 C 
ATOM      7  C   UNL     1      34.772 -20.683 -20.299  0.00  0.00    +0.074 A 
ATOM      8  C   UNL     1      34.162 -21.601 -19.324  0.00  0.00    +0.201 A 
ATOM      9  C   UNL     1      36.084 -20.259 -20.089  0.00  0.00    +0.148 A 
ATOM     10  C   UNL     1      36.622 -22.738 -16.044  0.00  0.00    +0.023 C 
ATOM     11  C   UNL     1      37.110 -21.872 -17.023  0.00  0.00    +0.039 C 
ATOM     12  C   UNL     1      34.054 -20.245 -21.414  0.00  0.00    +0.006 C 
ATOM     13  C   UNL     1      36.684 -19.388 -21.001  0.00  0.00    +0.038 C 
ATOM     14  C   UNL     1      34.659 -19.375 -22.322  0.00  0.00    +0.000 C 
ATOM     15  C   UNL     1      35.970 -18.947 -22.117  0.00  0.00    +0.003 C 
ENDROOT
BRANCH   4  16
ATOM     16  S   UNL     1      34.717 -24.321 -14.907  0.00  0.00    +0.081 S 
ATOM     17  O   UNL     1      35.180 -25.667 -15.221  0.00  0.00    -0.149 OA
ATOM     18  O   UNL     1      35.020 -23.743 -13.604  0.00  0.00    -0.149 OA
BRANCH  16  19
ATOM     19  N   UNL     1      33.034 -24.230 -15.182  0.00  0.00    -0.156 N 
ATOM     20  N   UNL     1      30.738 -24.560 -14.542  0.00  0.00    -0.094 NA
ATOM     21  N   UNL     1      32.335 -25.190 -13.064  0.00  0.00    -0.071 NA
ATOM     22  N   UNL     1      30.255 -25.077 -13.402  0.00  0.00    -0.139 N 
ATOM     23  N   UNL     1      31.166 -25.465 -12.499  0.00  0.00    -0.020 NA
ATOM     24  C   UNL     1      32.035 -24.655 -14.274  0.00  0.00    +0.145 C 
ATOM     25  H   UNL     1      32.735 -23.852 -16.041  0.00  0.00    +0.186 HD
ATOM     26  H   UNL     1      29.289 -25.167 -13.240  0.00  0.00    +0.197 HD
ENDBRANCH  16  19
ENDBRANCH   4  16
TORSDOF 2
ENDMDL
MODEL 7
REMARK VINA RESULT:     -11.0      1.869      2.297
REMARK  Name = 6102777
REMARK  2 active torsions:
REMARK  status: ('A' for Active; 'I' for Inactive)
REMARK    1  A    between atoms: C_4  and  S_16
REMARK    2  A    between atoms: S_16  and  N_19
REMARK                            x       y       z     vdW  Elec       q    Type
REMARK                         _______ _______ _______ _____ _____    ______ ____
ROOT
ATOM      1  O   UNL     1      36.711 -21.059 -18.680  0.00  0.00    -0.453 OA
ATOM      2  O   UNL     1      32.831 -22.360 -18.663  0.00  0.00    -0.286 OA
ATOM      3  C   UNL     1      34.940 -22.361 -17.615  0.00  0.00    +0.075 A 
ATOM      4  C   UNL     1      35.466 -23.549 -15.582  0.00  0.00    +0.126 C 
ATOM      5  C   UNL     1      36.248 -21.881 -17.683  0.00  0.00    +0.148 A 
ATOM      6  C   UNL     1      34.544 -23.195 -16.567  0.00  0.00    +0.026 C 
ATOM      7  C   UNL     1      34.504 -21.088 -19.726  0.00  0.00    +0.074 A 
ATOM      8  C   UNL     1      33.990 -21.970 -18.667  0.00  0.00    +0.201 A 
ATOM      9  C   UNL     1      35.838 -20.683 -19.671  0.00  0.00    +0.148 A 
ATOM     10  C   UNL     1      36.775 -23.073 -15.645  0.00  0.00    +0.023 C 
ATOM     11  C   UNL     1      37.167 -22.240 -16.694  0.00  0.00    +0.039 C 
ATOM     12  C   UNL     1      33.676 -20.664 -20.768  0.00  0.00    +0.006 C 
ATOM     13  C   UNL     1      36.348 -19.846 -20.666  0.00  0.00    +0.038 C 
ATOM     14  C   UNL     1      34.191 -19.828 -21.759  0.00  0.00    +0.000 C 
ATOM     15  C   UNL     1      35.524 -19.420 -21.709  0.00  0.00    +0.003 C 
ENDROOT
BRANCH   4  16
ATOM     16  S   UNL     1      34.981 -24.592 -14.267  0.00  0.00    +0.081 S 
ATOM     17  O   UNL     1      35.396 -23.968 -13.017  0.00  0.00    -0.149 OA
ATOM     18  O   UNL     1      33.581 -24.946 -14.463  0.00  0.00    -0.149 OA
BRANCH  16  19
ATOM     19  N   UNL     1      35.951 -25.967 -14.555  0.00  0.00    -0.156 N 
ATOM     20  N   UNL     1      38.011 -27.202 -14.416  0.00  0.00    -0.094 NA
ATOM     21  N   UNL     1      37.974 -25.128 -13.507  0.00  0.00    -0.071 NA
ATOM     22  N   UNL     1      39.173 -26.828 -13.861  0.00  0.00    -0.139 N 
ATOM     23  N   UNL     1      39.197 -25.605 -13.311  0.00  0.00    -0.020 NA
ATOM     24  C   UNL     1      37.304 -26.107 -14.166  0.00  0.00    +0.145 C 
ATOM     25  H   UNL     1      35.536 -26.723 -15.030  0.00  0.00    +0.186 HD
ATOM     26  H   UNL     1      39.962 -27.416 -13.858  0.00  0.00    +0.197 HD
ENDBRANCH  16  19
ENDBRANCH   4  16
TORSDOF 2
ENDMDL
MODEL 8
REMARK VINA RESULT:     -10.8      4.406      8.095
REMARK  Name = 6102777
REMARK  2 active torsions:
REMARK  status: ('A' for Active; 'I' for Inactive)
REMARK    1  A    between atoms: C_4  and  S_16
REMARK    2  A    between atoms: S_16  and  N_19
REMARK                            x       y       z     vdW  Elec       q    Type
REMARK                         _______ _______ _______ _____ _____    ______ ____
ROOT
ATOM      1  O   UNL     1      34.024 -24.126 -13.092  0.00  0.00    -0.453 OA
ATOM      2  O   UNL     1      37.506 -23.013 -14.932  0.00  0.00    -0.286 OA
ATOM      3  C   UNL     1      35.194 -23.420 -15.117  0.00  0.00    +0.075 A 
ATOM      4  C   UNL     1      33.915 -23.190 -17.150  0.00  0.00    +0.126 C 
ATOM      5  C   UNL     1      34.045 -23.807 -14.428  0.00  0.00    +0.148 A 
ATOM      6  C   UNL     1      35.135 -23.110 -16.478  0.00  0.00    +0.026 C 
ATOM      7  C   UNL     1      36.423 -23.689 -12.953  0.00  0.00    +0.074 A 
ATOM      8  C   UNL     1      36.466 -23.344 -14.382  0.00  0.00    +0.201 A 
ATOM      9  C   UNL     1      35.202 -24.060 -12.389  0.00  0.00    +0.148 A 
ATOM     10  C   UNL     1      32.763 -23.578 -16.466  0.00  0.00    +0.023 C 
ATOM     11  C   UNL     1      32.826 -23.886 -15.106  0.00  0.00    +0.039 C 
ATOM     12  C   UNL     1      37.581 -23.645 -12.172  0.00  0.00    +0.006 C 
ATOM     13  C   UNL     1      35.138 -24.392 -11.035  0.00  0.00    +0.038 C 
ATOM     14  C   UNL     1      37.511 -23.978 -10.819  0.00  0.00    +0.000 C 
ATOM     15  C   UNL     1      36.293 -24.350 -10.251  0.00  0.00    +0.003 C 
ENDROOT
BRANCH   4  16
ATOM     16  S   UNL     1      33.830 -22.806 -18.852  0.00  0.00    +0.081 S 
ATOM     17  O   UNL     1      33.856 -24.056 -19.601  0.00  0.00    -0.149 OA
ATOM     18  O   UNL     1      32.728 -21.873 -19.050  0.00  0.00    -0.149 OA
BRANCH  16  19
ATOM     19  N   UNL     1      35.308 -21.984 -19.083  0.00  0.00    -0.156 N 
ATOM     20  N   UNL     1      36.643 -20.178 -19.948  0.00  0.00    -0.094 NA
ATOM     21  N   UNL     1      34.421 -20.138 -20.388  0.00  0.00    -0.071 NA
ATOM     22  N   UNL     1      36.248 -19.121 -20.672  0.00  0.00    -0.139 N 
ATOM     23  N   UNL     1      34.940 -19.058 -20.957  0.00  0.00    -0.020 NA
ATOM     24  C   UNL     1      35.466 -20.774 -19.800  0.00  0.00    +0.145 C 
ATOM     25  H   UNL     1      36.116 -22.384 -18.686  0.00  0.00    +0.186 HD
ATOM     26  H   UNL     1      36.882 -18.433 -20.978  0.00  0.00    +0.197 HD
ENDBRANCH  16  19
ENDBRANCH   4  16
TORSDOF 2
ENDMDL
MODEL 9
REMARK VINA RESULT:     -10.8      2.011      3.158
REMARK  Name = 6102777
REMARK  2 active torsions:
REMARK  status: ('A' for Active; 'I' for Inactive)
REMARK    1  A    between atoms: C_4  and  S_16
REMARK    2  A    between atoms: S_16  and  N_19
REMARK                            x       y       z     vdW  Elec       q    Type
REMARK                         _______ _______ _______ _____ _____    ______ ____
ROOT
ATOM      1  O   UNL     1      32.765 -21.815 -18.764  0.00  0.00    -0.453 OA
ATOM      2  O   UNL     1      36.744 -22.142 -17.863  0.00  0.00    -0.286 OA
ATOM      3  C   UNL     1      34.519 -22.655 -17.286  0.00  0.00    +0.075 A 
ATOM      4  C   UNL     1      33.860 -23.940 -15.353  0.00  0.00    +0.126 C 
ATOM      5  C   UNL     1      33.181 -22.504 -17.652  0.00  0.00    +0.148 A 
ATOM      6  C   UNL     1      34.864 -23.372 -16.138  0.00  0.00    +0.026 C 
ATOM      7  C   UNL     1      35.090 -21.312 -19.320  0.00  0.00    +0.074 A 
ATOM      8  C   UNL     1      35.555 -22.045 -18.133  0.00  0.00    +0.201 A 
ATOM      9  C   UNL     1      33.719 -21.239 -19.567  0.00  0.00    +0.148 A 
ATOM     10  C   UNL     1      32.521 -23.792 -15.714  0.00  0.00    +0.023 C 
ATOM     11  C   UNL     1      32.181 -23.075 -16.862  0.00  0.00    +0.039 C 
ATOM     12  C   UNL     1      36.001 -20.699 -20.184  0.00  0.00    +0.006 C 
ATOM     13  C   UNL     1      33.254 -20.549 -20.688  0.00  0.00    +0.038 C 
ATOM     14  C   UNL     1      35.530 -20.010 -21.303  0.00  0.00    +0.000 C 
ATOM     15  C   UNL     1      34.161 -19.935 -21.554  0.00  0.00    +0.003 C 
ENDROOT
BRANCH   4  16
ATOM     16  S   UNL     1      34.281 -24.838 -13.915  0.00  0.00    +0.081 S 
ATOM     17  O   UNL     1      35.039 -23.958 -13.036  0.00  0.00    -0.149 OA
ATOM     18  O   UNL     1      33.074 -25.485 -13.417  0.00  0.00    -0.149 OA
BRANCH  16  19
ATOM     19  N   UNL     1      35.328 -26.025 -14.556  0.00  0.00    -0.156 N 
ATOM     20  N   UNL     1      37.434 -27.183 -14.680  0.00  0.00    -0.094 NA
ATOM     21  N   UNL     1      37.253 -25.502 -13.173  0.00  0.00    -0.071 NA
ATOM     22  N   UNL     1      38.547 -26.969 -13.963  0.00  0.00    -0.139 N 
ATOM     23  N   UNL     1      38.485 -25.982 -13.059  0.00  0.00    -0.020 NA
ATOM     24  C   UNL     1      36.665 -26.242 -14.145  0.00  0.00    +0.145 C 
ATOM     25  H   UNL     1      34.973 -26.605 -15.269  0.00  0.00    +0.186 HD
ATOM     26  H   UNL     1      39.362 -27.506 -14.094  0.00  0.00    +0.197 HD
ENDBRANCH  16  19
ENDBRANCH   4  16
TORSDOF 2
ENDMDL
