MODEL 1
REMARK VINA RESULT:     -12.1      0.000      0.000
REMARK  Name = 11538992
REMARK  4 active torsions:
REMARK  status: ('A' for Active; 'I' for Inactive)
REMARK    1  A    between atoms: C_1  and  N_7
REMARK    2  A    between atoms: C_3  and  C_24
REMARK    3  A    between atoms: C_4  and  N_30
REMARK    4  A    between atoms: C_15  and  C_20
REMARK                            x       y       z     vdW  Elec       q    Type
REMARK                         _______ _______ _______ _____ _____    ______ ____
ROOT
ATOM      1  C   UNL     1      34.882 -22.345 -18.849  0.00  0.00    -0.059 C 
ATOM      2  C   UNL     1      36.094 -21.408 -18.880  0.00  0.00    -0.042 C 
ATOM      3  C   UNL     1      34.797 -19.780 -20.346  0.00  0.00    +0.005 C 
ATOM      4  C   UNL     1      36.121 -20.568 -20.168  0.00  0.00    -0.064 C 
ATOM      5  C   UNL     1      33.577 -21.561 -19.006  0.00  0.00    -0.021 C 
ATOM      6  C   UNL     1      33.583 -20.727 -20.286  0.00  0.00    +0.000 C 
ENDROOT
BRANCH   1   7
ATOM      7  N   UNL     1      34.863 -23.090 -17.590  0.00  0.00    +0.394 N 
ATOM      8  N   UNL     1      34.636 -23.796 -14.906  0.00  0.00    -0.299 N 
ATOM      9  N   UNL     1      32.480 -24.131 -14.936  0.00  0.00    -0.136 NA
ATOM     10  N   UNL     1      32.984 -24.561 -13.718  0.00  0.00    -0.125 NA
ATOM     11  C   UNL     1      35.859 -22.549 -16.646  0.00  0.00    -0.052 C 
ATOM     12  C   UNL     1      33.508 -23.068 -17.000  0.00  0.00    -0.009 C 
ATOM     13  C   UNL     1      35.946 -23.433 -15.393  0.00  0.00    +0.086 C 
ATOM     14  C   UNL     1      33.492 -23.676 -15.643  0.00  0.00    +0.122 A 
ATOM     15  C   UNL     1      34.283 -24.351 -13.724  0.00  0.00    +0.238 A 
ATOM     16  H   UNL     1      35.111 -24.060 -17.785  0.00  0.00    -0.079 HD
BRANCH  15  20
ATOM     17  F   UNL     1      36.234 -25.537 -13.009  0.00  0.00    -0.163 F 
ATOM     18  F   UNL     1      35.912 -23.569 -12.156  0.00  0.00    -0.163 F 
ATOM     19  F   UNL     1      34.653 -25.235 -11.548  0.00  0.00    -0.163 F 
ATOM     20  C   UNL     1      35.239 -24.662 -12.648  0.00  0.00    +0.452 C 
ENDBRANCH  15  20
ENDBRANCH   1   7
BRANCH   3  24
ATOM     21  F   UNL     1      35.406 -17.009 -20.425  0.00  0.00    -0.204 F 
ATOM     22  F   UNL     1      34.040 -19.386 -25.158  0.00  0.00    -0.202 F 
ATOM     23  F   UNL     1      34.651 -16.723 -25.088  0.00  0.00    -0.202 F 
ATOM     24  C   UNL     1      34.758 -18.953 -21.624  0.00  0.00    +0.005 C 
ATOM     25  C   UNL     1      35.070 -17.597 -21.582  0.00  0.00    +0.138 C 
ATOM     26  C   UNL     1      34.411 -19.561 -22.826  0.00  0.00    +0.030 C 
ATOM     27  C   UNL     1      34.374 -18.806 -23.998  0.00  0.00    +0.167 C 
ATOM     28  C   UNL     1      35.033 -16.843 -22.754  0.00  0.00    +0.061 C 
ATOM     29  C   UNL     1      34.685 -17.447 -23.961  0.00  0.00    +0.170 C 
ENDBRANCH   3  24
BRANCH   4  30
ATOM     30  N   UNL     1      37.268 -19.654 -20.129  0.00  0.00    +0.382 N 
ATOM     31  H   UNL     1      37.341 -19.241 -19.200  0.00  0.00    -0.089 HD
ATOM     32  H   UNL     1      37.138 -18.916 -20.820  0.00  0.00    -0.089 HD
ATOM     33  H   UNL     1      38.122 -20.171 -20.339  0.00  0.00    -0.089 HD
ENDBRANCH   4  30
TORSDOF 4
ENDMDL
MODEL 2
REMARK VINA RESULT:     -11.9      1.112      1.771
REMARK  Name = 11538992
REMARK  4 active torsions:
REMARK  status: ('A' for Active; 'I' for Inactive)
REMARK    1  A    between atoms: C_1  and  N_7
REMARK    2  A    between atoms: C_3  and  C_24
REMARK    3  A    between atoms: C_4  and  N_30
REMARK    4  A    between atoms: C_15  and  C_20
REMARK                            x       y       z     vdW  Elec       q    Type
REMARK                         _______ _______ _______ _____ _____    ______ ____
ROOT
ATOM      1  C   UNL     1      35.237 -21.850 -19.448  0.00  0.00    -0.059 C 
ATOM      2  C   UNL     1      36.444 -20.909 -19.515  0.00  0.00    -0.042 C 
ATOM      3  C   UNL     1      35.052 -19.215 -20.810  0.00  0.00    +0.005 C 
ATOM      4  C   UNL     1      36.385 -20.006 -20.760  0.00  0.00    -0.064 C 
ATOM      5  C   UNL     1      33.925 -21.063 -19.479  0.00  0.00    -0.021 C 
ATOM      6  C   UNL     1      33.845 -20.168 -20.714  0.00  0.00    +0.000 C 
ENDROOT
BRANCH   1   7
ATOM      7  N   UNL     1      35.303 -22.655 -18.229  0.00  0.00    +0.394 N 
ATOM      8  N   UNL     1      35.177 -23.511 -15.582  0.00  0.00    -0.299 N 
ATOM      9  N   UNL     1      33.061 -24.042 -15.610  0.00  0.00    -0.136 NA
ATOM     10  N   UNL     1      33.618 -24.483 -14.420  0.00  0.00    -0.125 NA
ATOM     11  C   UNL     1      36.257 -22.072 -17.267  0.00  0.00    -0.052 C 
ATOM     12  C   UNL     1      33.960 -22.787 -17.626  0.00  0.00    -0.009 C 
ATOM     13  C   UNL     1      36.442 -23.005 -16.061  0.00  0.00    +0.086 C 
ATOM     14  C   UNL     1      34.018 -23.460 -16.302  0.00  0.00    +0.122 A 
ATOM     15  C   UNL     1      34.892 -24.154 -14.426  0.00  0.00    +0.238 A 
ATOM     16  H   UNL     1      35.637 -23.587 -18.475  0.00  0.00    -0.079 HD
BRANCH  15  20
ATOM     17  F   UNL     1      36.938 -25.214 -13.782  0.00  0.00    -0.163 F 
ATOM     18  F   UNL     1      36.484 -23.306 -12.855  0.00  0.00    -0.163 F 
ATOM     19  F   UNL     1      35.363 -25.081 -12.288  0.00  0.00    -0.163 F 
ATOM     20  C   UNL     1      35.886 -24.429 -13.376  0.00  0.00    +0.452 C 
ENDBRANCH  15  20
ENDBRANCH   1   7
BRANCH   3  24
ATOM     21  F   UNL     1      34.610 -20.230 -23.423  0.00  0.00    -0.204 F 
ATOM     22  F   UNL     1      35.013 -14.800 -22.905  0.00  0.00    -0.202 F 
ATOM     23  F   UNL     1      34.587 -15.914 -25.364  0.00  0.00    -0.202 F 
ATOM     24  C   UNL     1      34.927 -18.327 -22.040  0.00  0.00    +0.005 C 
ATOM     25  C   UNL     1      34.710 -18.900 -23.289  0.00  0.00    +0.138 C 
ATOM     26  C   UNL     1      35.030 -16.946 -21.905  0.00  0.00    +0.030 C 
ATOM     27  C   UNL     1      34.915 -16.130 -23.029  0.00  0.00    +0.167 C 
ATOM     28  C   UNL     1      34.596 -18.084 -24.414  0.00  0.00    +0.061 C 
ATOM     29  C   UNL     1      34.699 -16.699 -24.284  0.00  0.00    +0.170 C 
ENDBRANCH   3  24
BRANCH   4  30
ATOM     30  N   UNL     1      37.532 -19.092 -20.754  0.00  0.00    +0.382 N 
ATOM     31  H   UNL     1      38.084 -19.246 -19.910  0.00  0.00    -0.089 HD
ATOM     32  H   UNL     1      37.199 -18.129 -20.771  0.00  0.00    -0.089 HD
ATOM     33  H   UNL     1      38.111 -19.268 -21.575  0.00  0.00    -0.089 HD
ENDBRANCH   4  30
TORSDOF 4
ENDMDL
MODEL 3
REMARK VINA RESULT:     -11.7      7.229     11.277
REMARK  Name = 11538992
REMARK  4 active torsions:
REMARK  status: ('A' for Active; 'I' for Inactive)
REMARK    1  A    between atoms: C_1  and  N_7
REMARK    2  A    between atoms: C_3  and  C_24
REMARK    3  A    between atoms: C_4  and  N_30
REMARK    4  A    between atoms: C_15  and  C_20
REMARK                            x       y       z     vdW  Elec       q    Type
REMARK                         _______ _______ _______ _____ _____    ______ ____
ROOT
ATOM      1  C   UNL     1      33.994 -12.750 -22.639  0.00  0.00    -0.059 C 
ATOM      2  C   UNL     1      32.493 -12.696 -22.337  0.00  0.00    -0.042 C 
ATOM      3  C   UNL     1      32.403 -10.306 -23.208  0.00  0.00    +0.005 C 
ATOM      4  C   UNL     1      32.030 -11.259 -22.043  0.00  0.00    -0.064 C 
ATOM      5  C   UNL     1      34.354 -11.821 -23.801  0.00  0.00    -0.021 C 
ATOM      6  C   UNL     1      33.910 -10.387 -23.522  0.00  0.00    +0.000 C 
ENDROOT
BRANCH   1   7
ATOM      7  N   UNL     1      34.386 -14.121 -22.962  0.00  0.00    +0.394 N 
ATOM      8  N   UNL     1      34.413 -16.886 -23.290  0.00  0.00    -0.299 N 
ATOM      9  N   UNL     1      33.418 -16.899 -25.231  0.00  0.00    -0.136 NA
ATOM     10  N   UNL     1      33.874 -18.178 -24.953  0.00  0.00    -0.125 NA
ATOM     11  C   UNL     1      34.401 -14.961 -21.750  0.00  0.00    -0.052 C 
ATOM     12  C   UNL     1      33.485 -14.687 -23.987  0.00  0.00    -0.009 C 
ATOM     13  C   UNL     1      34.968 -16.353 -22.068  0.00  0.00    +0.086 C 
ATOM     14  C   UNL     1      33.756 -16.130 -24.218  0.00  0.00    +0.122 A 
ATOM     15  C   UNL     1      34.471 -18.146 -23.781  0.00  0.00    +0.238 A 
ATOM     16  H   UNL     1      35.333 -14.105 -23.342  0.00  0.00    -0.079 HD
BRANCH  15  20
ATOM     17  F   UNL     1      36.436 -19.049 -22.757  0.00  0.00    -0.163 F 
ATOM     18  F   UNL     1      34.528 -19.608 -21.889  0.00  0.00    -0.163 F 
ATOM     19  F   UNL     1      35.129 -20.430 -23.811  0.00  0.00    -0.163 F 
ATOM     20  C   UNL     1      35.119 -19.268 -23.082  0.00  0.00    +0.452 C 
ENDBRANCH  15  20
ENDBRANCH   1   7
BRANCH   3  24
ATOM     21  F   UNL     1      31.612  -8.528 -25.275  0.00  0.00    -0.204 F 
ATOM     22  F   UNL     1      31.627  -6.553 -20.174  0.00  0.00    -0.202 F 
ATOM     23  F   UNL     1      30.887  -4.952 -22.261  0.00  0.00    -0.202 F 
ATOM     24  C   UNL     1      31.994  -8.861 -22.955  0.00  0.00    +0.005 C 
ATOM     25  C   UNL     1      31.618  -8.050 -24.022  0.00  0.00    +0.138 C 
ATOM     26  C   UNL     1      31.999  -8.362 -21.657  0.00  0.00    +0.030 C 
ATOM     27  C   UNL     1      31.625  -7.039 -21.422  0.00  0.00    +0.167 C 
ATOM     28  C   UNL     1      31.244  -6.728 -23.787  0.00  0.00    +0.061 C 
ATOM     29  C   UNL     1      31.248  -6.222 -22.488  0.00  0.00    +0.170 C 
ENDBRANCH   3  24
BRANCH   4  30
ATOM     30  N   UNL     1      30.582 -11.252 -21.810  0.00  0.00    +0.382 N 
ATOM     31  H   UNL     1      30.094 -11.208 -22.705  0.00  0.00    -0.089 HD
ATOM     32  H   UNL     1      30.332 -10.440 -21.246  0.00  0.00    -0.089 HD
ATOM     33  H   UNL     1      30.313 -12.104 -21.318  0.00  0.00    -0.089 HD
ENDBRANCH   4  30
TORSDOF 4
ENDMDL
MODEL 4
REMARK VINA RESULT:     -11.5      7.874     11.927
REMARK  Name = 11538992
REMARK  4 active torsions:
REMARK  status: ('A' for Active; 'I' for Inactive)
REMARK    1  A    between atoms: C_1  and  N_7
REMARK    2  A    between atoms: C_3  and  C_24
REMARK    3  A    between atoms: C_4  and  N_30
REMARK    4  A    between atoms: C_15  and  C_20
REMARK                            x       y       z     vdW  Elec       q    Type
REMARK                         _______ _______ _______ _____ _____    ______ ____
ROOT
ATOM      1  C   UNL     1      33.491 -11.793 -23.603  0.00  0.00    -0.059 C 
ATOM      2  C   UNL     1      34.645 -10.785 -23.591  0.00  0.00    -0.042 C 
ATOM      3  C   UNL     1      33.175  -9.119 -22.347  0.00  0.00    +0.005 C 
ATOM      4  C   UNL     1      34.125  -9.337 -23.553  0.00  0.00    -0.064 C 
ATOM      5  C   UNL     1      32.567 -11.585 -22.401  0.00  0.00    -0.021 C 
ATOM      6  C   UNL     1      32.034 -10.155 -22.353  0.00  0.00    +0.000 C 
ENDROOT
BRANCH   1   7
ATOM      7  N   UNL     1      34.023 -13.156 -23.588  0.00  0.00    +0.394 N 
ATOM      8  N   UNL     1      34.287 -15.919 -23.370  0.00  0.00    -0.299 N 
ATOM      9  N   UNL     1      33.658 -16.374 -25.408  0.00  0.00    -0.136 NA
ATOM     10  N   UNL     1      34.138 -17.533 -24.819  0.00  0.00    -0.125 NA
ATOM     11  C   UNL     1      33.875 -13.761 -22.252  0.00  0.00    -0.052 C 
ATOM     12  C   UNL     1      33.358 -13.980 -24.619  0.00  0.00    -0.009 C 
ATOM     13  C   UNL     1      34.579 -15.126 -22.199  0.00  0.00    +0.086 C 
ATOM     14  C   UNL     1      33.759 -15.408 -24.521  0.00  0.00    +0.122 A 
ATOM     15  C   UNL     1      34.513 -17.234 -23.593  0.00  0.00    +0.238 A 
ATOM     16  H   UNL     1      35.020 -13.115 -23.805  0.00  0.00    -0.079 HD
BRANCH  15  20
ATOM     17  F   UNL     1      36.441 -18.378 -22.758  0.00  0.00    -0.163 F 
ATOM     18  F   UNL     1      34.984 -17.710 -21.297  0.00  0.00    -0.163 F 
ATOM     19  F   UNL     1      34.525 -19.393 -22.596  0.00  0.00    -0.163 F 
ATOM     20  C   UNL     1      35.097 -18.145 -22.595  0.00  0.00    +0.452 C 
ENDBRANCH  15  20
ENDBRANCH   1   7
BRANCH   3  24
ATOM     21  F   UNL     1      33.441  -7.442 -20.073  0.00  0.00    -0.204 F 
ATOM     22  F   UNL     1      30.733  -5.395 -24.361  0.00  0.00    -0.202 F 
ATOM     23  F   UNL     1      31.065  -3.890 -22.105  0.00  0.00    -0.202 F 
ATOM     24  C   UNL     1      32.606  -7.708 -22.279  0.00  0.00    +0.005 C 
ATOM     25  C   UNL     1      32.778  -6.947 -21.127  0.00  0.00    +0.138 C 
ATOM     26  C   UNL     1      31.918  -7.191 -23.372  0.00  0.00    +0.030 C 
ATOM     27  C   UNL     1      31.396  -5.899 -23.313  0.00  0.00    +0.167 C 
ATOM     28  C   UNL     1      32.256  -5.655 -21.069  0.00  0.00    +0.061 C 
ATOM     29  C   UNL     1      31.565  -5.131 -22.160  0.00  0.00    +0.170 C 
ENDBRANCH   3  24
BRANCH   4  30
ATOM     30  N   UNL     1      35.263  -8.413 -23.492  0.00  0.00    +0.382 N 
ATOM     31  H   UNL     1      35.109  -7.643 -24.142  0.00  0.00    -0.089 HD
ATOM     32  H   UNL     1      36.117  -8.909 -23.747  0.00  0.00    -0.089 HD
ATOM     33  H   UNL     1      35.352  -8.046 -22.545  0.00  0.00    -0.089 HD
ENDBRANCH   4  30
TORSDOF 4
ENDMDL
MODEL 5
REMARK VINA RESULT:     -11.0      8.690     14.004
REMARK  Name = 11538992
REMARK  4 active torsions:
REMARK  status: ('A' for Active; 'I' for Inactive)
REMARK    1  A    between atoms: C_1  and  N_7
REMARK    2  A    between atoms: C_3  and  C_24
REMARK    3  A    between atoms: C_4  and  N_30
REMARK    4  A    between atoms: C_15  and  C_20
REMARK                            x       y       z     vdW  Elec       q    Type
REMARK                         _______ _______ _______ _____ _____    ______ ____
ROOT
ATOM      1  C   UNL     1      32.074 -11.262 -22.917  0.00  0.00    -0.059 C 
ATOM      2  C   UNL     1      31.869 -11.983 -21.581  0.00  0.00    -0.042 C 
ATOM      3  C   UNL     1      33.800 -13.549 -22.132  0.00  0.00    +0.005 C 
ATOM      4  C   UNL     1      32.326 -13.450 -21.660  0.00  0.00    -0.064 C 
ATOM      5  C   UNL     1      33.534 -11.346 -23.369  0.00  0.00    -0.021 C 
ATOM      6  C   UNL     1      34.002 -12.797 -23.462  0.00  0.00    +0.000 C 
ENDROOT
BRANCH   1   7
ATOM      7  N   UNL     1      31.676  -9.860 -22.790  0.00  0.00    +0.394 N 
ATOM      8  N   UNL     1      31.699  -7.081 -22.620  0.00  0.00    -0.299 N 
ATOM      9  N   UNL     1      31.653  -6.716 -24.770  0.00  0.00    -0.136 NA
ATOM     10  N   UNL     1      31.479  -5.511 -24.108  0.00  0.00    -0.125 NA
ATOM     11  C   UNL     1      32.300  -9.244 -21.603  0.00  0.00    -0.052 C 
ATOM     12  C   UNL     1      32.023  -9.112 -24.017  0.00  0.00    -0.009 C 
ATOM     13  C   UNL     1      31.753  -7.826 -21.384  0.00  0.00    +0.086 C 
ATOM     14  C   UNL     1      31.780  -7.655 -23.856  0.00  0.00    +0.122 A 
ATOM     15  C   UNL     1      31.508  -5.755 -22.815  0.00  0.00    +0.238 A 
ATOM     16  H   UNL     1      30.664  -9.822 -22.666  0.00  0.00    -0.079 HD
BRANCH  15  20
ATOM     17  F   UNL     1      32.417  -4.726 -20.856  0.00  0.00    -0.163 F 
ATOM     18  F   UNL     1      31.190  -3.482 -22.142  0.00  0.00    -0.163 F 
ATOM     19  F   UNL     1      30.265  -5.029 -20.923  0.00  0.00    -0.163 F 
ATOM     20  C   UNL     1      31.353  -4.781 -21.722  0.00  0.00    +0.452 C 
ENDBRANCH  15  20
ENDBRANCH   1   7
BRANCH   3  24
ATOM     21  F   UNL     1      34.812 -15.042 -19.940  0.00  0.00    -0.204 F 
ATOM     22  F   UNL     1      34.681 -17.547 -24.801  0.00  0.00    -0.202 F 
ATOM     23  F   UNL     1      35.632 -18.867 -22.604  0.00  0.00    -0.202 F 
ATOM     24  C   UNL     1      34.295 -14.984 -22.256  0.00  0.00    +0.005 C 
ATOM     25  C   UNL     1      34.778 -15.650 -21.135  0.00  0.00    +0.138 C 
ATOM     26  C   UNL     1      34.260 -15.618 -23.494  0.00  0.00    +0.030 C 
ATOM     27  C   UNL     1      34.713 -16.931 -23.612  0.00  0.00    +0.167 C 
ATOM     28  C   UNL     1      35.231 -16.964 -21.253  0.00  0.00    +0.061 C 
ATOM     29  C   UNL     1      35.198 -17.604 -22.491  0.00  0.00    +0.170 C 
ENDBRANCH   3  24
BRANCH   4  30
ATOM     30  N   UNL     1      32.157 -14.083 -20.347  0.00  0.00    +0.382 N 
ATOM     31  H   UNL     1      32.572 -15.015 -20.364  0.00  0.00    -0.089 HD
ATOM     32  H   UNL     1      31.164 -14.157 -20.131  0.00  0.00    -0.089 HD
ATOM     33  H   UNL     1      32.620 -13.518 -19.635  0.00  0.00    -0.089 HD
ENDBRANCH   4  30
TORSDOF 4
ENDMDL
MODEL 6
REMARK VINA RESULT:     -10.9      1.675      2.593
REMARK  Name = 11538992
REMARK  4 active torsions:
REMARK  status: ('A' for Active; 'I' for Inactive)
REMARK    1  A    between atoms: C_1  and  N_7
REMARK    2  A    between atoms: C_3  and  C_24
REMARK    3  A    between atoms: C_4  and  N_30
REMARK    4  A    between atoms: C_15  and  C_20
REMARK                            x       y       z     vdW  Elec       q    Type
REMARK                         _______ _______ _______ _____ _____    ______ ____
ROOT
ATOM      1  C   UNL     1      35.922 -21.181 -18.460  0.00  0.00    -0.059 C 
ATOM      2  C   UNL     1      34.585 -21.442 -19.161  0.00  0.00    -0.042 C 
ATOM      3  C   UNL     1      35.381 -20.106 -21.177  0.00  0.00    +0.005 C 
ATOM      4  C   UNL     1      34.239 -20.315 -20.149  0.00  0.00    -0.064 C 
ATOM      5  C   UNL     1      37.049 -20.994 -19.479  0.00  0.00    -0.021 C 
ATOM      6  C   UNL     1      36.726 -19.872 -20.463  0.00  0.00    +0.000 C 
ENDROOT
BRANCH   1   7
ATOM      7  N   UNL     1      36.241 -22.296 -17.569  0.00  0.00    +0.394 N 
ATOM      8  N   UNL     1      36.556 -23.922 -15.331  0.00  0.00    -0.299 N 
ATOM      9  N   UNL     1      34.539 -24.753 -15.362  0.00  0.00    -0.136 NA
ATOM     10  N   UNL     1      35.291 -25.438 -14.421  0.00  0.00    -0.125 NA
ATOM     11  C   UNL     1      37.225 -21.886 -16.549  0.00  0.00    -0.052 C 
ATOM     12  C   UNL     1      35.011 -22.819 -16.938  0.00  0.00    -0.009 C 
ATOM     13  C   UNL     1      37.676 -23.098 -15.721  0.00  0.00    +0.086 C 
ATOM     14  C   UNL     1      35.319 -23.843 -15.905  0.00  0.00    +0.122 A 
ATOM     15  C   UNL     1      36.502 -24.922 -14.421  0.00  0.00    +0.238 A 
ATOM     16  H   UNL     1      36.659 -23.043 -18.124  0.00  0.00    -0.079 HD
BRANCH  15  20
ATOM     17  F   UNL     1      38.742 -25.754 -14.309  0.00  0.00    -0.163 F 
ATOM     18  F   UNL     1      38.134 -24.354 -12.767  0.00  0.00    -0.163 F 
ATOM     19  F   UNL     1      37.358 -26.386 -12.755  0.00  0.00    -0.163 F 
ATOM     20  C   UNL     1      37.646 -25.338 -13.593  0.00  0.00    +0.452 C 
ENDBRANCH  15  20
ENDBRANCH   1   7
BRANCH   3  24
ATOM     21  F   UNL     1      34.633 -20.550 -23.879  0.00  0.00    -0.204 F 
ATOM     22  F   UNL     1      35.063 -15.348 -22.245  0.00  0.00    -0.202 F 
ATOM     23  F   UNL     1      34.351 -15.921 -24.821  0.00  0.00    -0.202 F 
ATOM     24  C   UNL     1      35.103 -18.979 -22.163  0.00  0.00    +0.005 C 
ATOM     25  C   UNL     1      34.741 -19.277 -23.472  0.00  0.00    +0.138 C 
ATOM     26  C   UNL     1      35.213 -17.657 -21.743  0.00  0.00    +0.030 C 
ATOM     27  C   UNL     1      34.959 -16.622 -22.643  0.00  0.00    +0.167 C 
ATOM     28  C   UNL     1      34.487 -18.242 -24.372  0.00  0.00    +0.061 C 
ATOM     29  C   UNL     1      34.596 -16.915 -23.958  0.00  0.00    +0.170 C 
ENDBRANCH   3  24
BRANCH   4  30
ATOM     30  N   UNL     1      32.979 -20.633 -20.829  0.00  0.00    +0.382 N 
ATOM     31  H   UNL     1      32.329 -21.049 -20.162  0.00  0.00    -0.089 HD
ATOM     32  H   UNL     1      33.158 -21.294 -21.585  0.00  0.00    -0.089 HD
ATOM     33  H   UNL     1      32.574 -19.779 -21.212  0.00  0.00    -0.089 HD
ENDBRANCH   4  30
TORSDOF 4
ENDMDL
MODEL 7
REMARK VINA RESULT:     -10.8      7.878     11.812
REMARK  Name = 11538992
REMARK  4 active torsions:
REMARK  status: ('A' for Active; 'I' for Inactive)
REMARK    1  A    between atoms: C_1  and  N_7
REMARK    2  A    between atoms: C_3  and  C_24
REMARK    3  A    between atoms: C_4  and  N_30
REMARK    4  A    between atoms: C_15  and  C_20
REMARK                            x       y       z     vdW  Elec       q    Type
REMARK                         _______ _______ _______ _____ _____    ______ ____
ROOT
ATOM      1  C   UNL     1      32.550 -11.888 -22.852  0.00  0.00    -0.059 C 
ATOM      2  C   UNL     1      33.794 -11.055 -23.177  0.00  0.00    -0.042 C 
ATOM      3  C   UNL     1      32.753  -9.047 -22.008  0.00  0.00    +0.005 C 
ATOM      4  C   UNL     1      33.453  -9.559 -23.293  0.00  0.00    -0.064 C 
ATOM      5  C   UNL     1      31.874 -11.390 -21.572  0.00  0.00    -0.021 C 
ATOM      6  C   UNL     1      31.520  -9.908 -21.674  0.00  0.00    +0.000 C 
ENDROOT
BRANCH   1   7
ATOM      7  N   UNL     1      32.922 -13.295 -22.699  0.00  0.00    +0.394 N 
ATOM      8  N   UNL     1      34.357 -15.667 -22.447  0.00  0.00    -0.299 N 
ATOM      9  N   UNL     1      34.639 -15.540 -20.287  0.00  0.00    -0.136 NA
ATOM     10  N   UNL     1      35.067 -16.784 -20.722  0.00  0.00    -0.125 NA
ATOM     11  C   UNL     1      33.697 -13.761 -23.864  0.00  0.00    -0.052 C 
ATOM     12  C   UNL     1      33.679 -13.495 -21.445  0.00  0.00    -0.009 C 
ATOM     13  C   UNL     1      33.944 -15.275 -23.774  0.00  0.00    +0.086 C 
ATOM     14  C   UNL     1      34.209 -14.879 -21.341  0.00  0.00    +0.122 A 
ATOM     15  C   UNL     1      34.886 -16.839 -22.024  0.00  0.00    +0.238 A 
ATOM     16  H   UNL     1      32.067 -13.851 -22.649  0.00  0.00    -0.079 HD
BRANCH  15  20
ATOM     17  F   UNL     1      35.244 -17.642 -24.249  0.00  0.00    -0.163 F 
ATOM     18  F   UNL     1      36.388 -18.587 -22.666  0.00  0.00    -0.163 F 
ATOM     19  F   UNL     1      34.256 -18.979 -22.847  0.00  0.00    -0.163 F 
ATOM     20  C   UNL     1      35.185 -17.971 -22.917  0.00  0.00    +0.452 C 
ENDBRANCH  15  20
ENDBRANCH   1   7
BRANCH   3  24
ATOM     21  F   UNL     1      33.314  -7.184 -19.941  0.00  0.00    -0.204 F 
ATOM     22  F   UNL     1      30.710  -5.280 -24.357  0.00  0.00    -0.202 F 
ATOM     23  F   UNL     1      31.313  -3.597 -22.290  0.00  0.00    -0.202 F 
ATOM     24  C   UNL     1      32.365  -7.576 -22.081  0.00  0.00    +0.005 C 
ATOM     25  C   UNL     1      32.675  -6.724 -21.026  0.00  0.00    +0.138 C 
ATOM     26  C   UNL     1      31.703  -7.095 -23.206  0.00  0.00    +0.030 C 
ATOM     27  C   UNL     1      31.347  -5.749 -23.277  0.00  0.00    +0.167 C 
ATOM     28  C   UNL     1      32.318  -5.378 -21.097  0.00  0.00    +0.061 C 
ATOM     29  C   UNL     1      31.654  -4.890 -22.221  0.00  0.00    +0.170 C 
ENDBRANCH   3  24
BRANCH   4  30
ATOM     30  N   UNL     1      34.680  -8.799 -23.555  0.00  0.00    +0.382 N 
ATOM     31  H   UNL     1      34.794  -8.676 -24.561  0.00  0.00    -0.089 HD
ATOM     32  H   UNL     1      35.481  -9.308 -23.181  0.00  0.00    -0.089 HD
ATOM     33  H   UNL     1      34.617  -7.886 -23.105  0.00  0.00    -0.089 HD
ENDBRANCH   4  30
TORSDOF 4
ENDMDL
MODEL 8
REMARK VINA RESULT:     -10.3      8.984     14.428
REMARK  Name = 11538992
REMARK  4 active torsions:
REMARK  status: ('A' for Active; 'I' for Inactive)
REMARK    1  A    between atoms: C_1  and  N_7
REMARK    2  A    between atoms: C_3  and  C_24
REMARK    3  A    between atoms: C_4  and  N_30
REMARK    4  A    between atoms: C_15  and  C_20
REMARK                            x       y       z     vdW  Elec       q    Type
REMARK                         _______ _______ _______ _____ _____    ______ ____
ROOT
ATOM      1  C   UNL     1      32.176 -10.770 -23.243  0.00  0.00    -0.059 C 
ATOM      2  C   UNL     1      31.797 -11.584 -22.002  0.00  0.00    -0.042 C 
ATOM      3  C   UNL     1      33.705 -13.200 -22.479  0.00  0.00    +0.005 C 
ATOM      4  C   UNL     1      32.195 -13.061 -22.156  0.00  0.00    -0.064 C 
ATOM      5  C   UNL     1      33.672 -10.895 -23.547  0.00  0.00    -0.021 C 
ATOM      6  C   UNL     1      34.082 -12.357 -23.713  0.00  0.00    +0.000 C 
ENDROOT
BRANCH   1   7
ATOM      7  N   UNL     1      31.830  -9.363 -23.040  0.00  0.00    +0.394 N 
ATOM      8  N   UNL     1      31.953  -6.600 -22.719  0.00  0.00    -0.299 N 
ATOM      9  N   UNL     1      31.924  -6.118 -24.846  0.00  0.00    -0.136 NA
ATOM     10  N   UNL     1      31.792  -4.945 -24.119  0.00  0.00    -0.125 NA
ATOM     11  C   UNL     1      32.472  -8.837 -21.821  0.00  0.00    -0.052 C 
ATOM     12  C   UNL     1      32.205  -8.563 -24.224  0.00  0.00    -0.009 C 
ATOM     13  C   UNL     1      31.977  -7.413 -21.525  0.00  0.00    +0.086 C 
ATOM     14  C   UNL     1      32.016  -7.109 -23.985  0.00  0.00    +0.122 A 
ATOM     15  C   UNL     1      31.810  -5.260 -22.842  0.00  0.00    +0.238 A 
ATOM     16  H   UNL     1      30.819  -9.295 -22.915  0.00  0.00    -0.079 HD
BRANCH  15  20
ATOM     17  F   UNL     1      30.486  -4.416 -21.037  0.00  0.00    -0.163 F 
ATOM     18  F   UNL     1      32.628  -4.535 -20.714  0.00  0.00    -0.163 F 
ATOM     19  F   UNL     1      31.813  -3.020 -22.045  0.00  0.00    -0.163 F 
ATOM     20  C   UNL     1      31.688  -4.342 -21.697  0.00  0.00    +0.452 C 
ENDBRANCH  15  20
ENDBRANCH   1   7
BRANCH   3  24
ATOM     21  F   UNL     1      33.519 -14.565 -24.961  0.00  0.00    -0.204 F 
ATOM     22  F   UNL     1      35.586 -17.362 -20.739  0.00  0.00    -0.202 F 
ATOM     23  F   UNL     1      35.349 -18.553 -23.188  0.00  0.00    -0.202 F 
ATOM     24  C   UNL     1      34.147 -14.645 -22.673  0.00  0.00    +0.005 C 
ATOM     25  C   UNL     1      34.024 -15.245 -23.922  0.00  0.00    +0.138 C 
ATOM     26  C   UNL     1      34.673 -15.352 -21.597  0.00  0.00    +0.030 C 
ATOM     27  C   UNL     1      35.079 -16.675 -21.771  0.00  0.00    +0.167 C 
ATOM     28  C   UNL     1      34.431 -16.568 -24.095  0.00  0.00    +0.061 C 
ATOM     29  C   UNL     1      34.957 -17.283 -23.021  0.00  0.00    +0.170 C 
ENDBRANCH   3  24
BRANCH   4  30
ATOM     30  N   UNL     1      31.858 -13.787 -20.927  0.00  0.00    +0.382 N 
ATOM     31  H   UNL     1      32.709 -13.970 -20.396  0.00  0.00    -0.089 HD
ATOM     32  H   UNL     1      31.409 -14.671 -21.166  0.00  0.00    -0.089 HD
ATOM     33  H   UNL     1      31.221 -13.224 -20.363  0.00  0.00    -0.089 HD
ENDBRANCH   4  30
TORSDOF 4
ENDMDL
MODEL 9
REMARK VINA RESULT:      -9.9      7.440     12.981
REMARK  Name = 11538992
REMARK  4 active torsions:
REMARK  status: ('A' for Active; 'I' for Inactive)
REMARK    1  A    between atoms: C_1  and  N_7
REMARK    2  A    between atoms: C_3  and  C_24
REMARK    3  A    between atoms: C_4  and  N_30
REMARK    4  A    between atoms: C_15  and  C_20
REMARK                            x       y       z     vdW  Elec       q    Type
REMARK                         _______ _______ _______ _____ _____    ______ ____
ROOT
ATOM      1  C   UNL     1      32.684 -12.530 -23.035  0.00  0.00    -0.059 C 
ATOM      2  C   UNL     1      33.325 -13.040 -21.741  0.00  0.00    -0.042 C 
ATOM      3  C   UNL     1      34.409 -14.949 -23.031  0.00  0.00    +0.005 C 
ATOM      4  C   UNL     1      33.561 -14.560 -21.792  0.00  0.00    -0.064 C 
ATOM      5  C   UNL     1      33.534 -12.901 -24.253  0.00  0.00    -0.021 C 
ATOM      6  C   UNL     1      33.770 -14.408 -24.325  0.00  0.00    +0.000 C 
ENDROOT
BRANCH   1   7
ATOM      7  N   UNL     1      32.522 -11.078 -22.970  0.00  0.00    +0.394 N 
ATOM      8  N   UNL     1      32.718  -8.397 -22.242  0.00  0.00    -0.299 N 
ATOM      9  N   UNL     1      34.508  -7.969 -23.413  0.00  0.00    -0.136 NA
ATOM     10  N   UNL     1      34.006  -6.779 -22.911  0.00  0.00    -0.125 NA
ATOM     11  C   UNL     1      31.960 -10.672 -21.668  0.00  0.00    -0.052 C 
ATOM     12  C   UNL     1      33.813 -10.404 -23.222  0.00  0.00    -0.009 C 
ATOM     13  C   UNL     1      31.642  -9.169 -21.665  0.00  0.00    +0.086 C 
ATOM     14  C   UNL     1      33.716  -8.937 -23.002  0.00  0.00    +0.122 A 
ATOM     15  C   UNL     1      32.928  -7.061 -22.211  0.00  0.00    +0.238 A 
ATOM     16  H   UNL     1      31.864 -10.793 -23.697  0.00  0.00    -0.079 HD
BRANCH  15  20
ATOM     17  F   UNL     1      32.516  -4.817 -21.490  0.00  0.00    -0.163 F 
ATOM     18  F   UNL     1      30.786  -6.013 -22.023  0.00  0.00    -0.163 F 
ATOM     19  F   UNL     1      31.866  -6.427 -20.181  0.00  0.00    -0.163 F 
ATOM     20  C   UNL     1      32.054  -6.111 -21.502  0.00  0.00    +0.452 C 
ENDBRANCH  15  20
ENDBRANCH   1   7
BRANCH   3  24
ATOM     21  F   UNL     1      33.246 -16.556 -25.061  0.00  0.00    -0.204 F 
ATOM     22  F   UNL     1      36.485 -19.081 -21.448  0.00  0.00    -0.202 F 
ATOM     23  F   UNL     1      35.300 -20.506 -23.456  0.00  0.00    -0.202 F 
ATOM     24  C   UNL     1      34.647 -16.449 -23.147  0.00  0.00    +0.005 C 
ATOM     25  C   UNL     1      34.041 -17.169 -24.172  0.00  0.00    +0.138 C 
ATOM     26  C   UNL     1      35.472 -17.087 -22.227  0.00  0.00    +0.030 C 
ATOM     27  C   UNL     1      35.693 -18.460 -22.331  0.00  0.00    +0.167 C 
ATOM     28  C   UNL     1      34.262 -18.542 -24.276  0.00  0.00    +0.061 C 
ATOM     29  C   UNL     1      35.087 -19.188 -23.356  0.00  0.00    +0.170 C 
ENDBRANCH   3  24
BRANCH   4  30
ATOM     30  N   UNL     1      34.220 -14.992 -20.555  0.00  0.00    +0.382 N 
ATOM     31  H   UNL     1      34.047 -15.986 -20.408  0.00  0.00    -0.089 HD
ATOM     32  H   UNL     1      33.846 -14.462 -19.768  0.00  0.00    -0.089 HD
ATOM     33  H   UNL     1      35.224 -14.828 -20.629  0.00  0.00    -0.089 HD
ENDBRANCH   4  30
TORSDOF 4
ENDMDL
