MODEL 1
REMARK VINA RESULT:     -12.9      0.000      0.000
REMARK  Name = 46937081
REMARK  6 active torsions:
REMARK  status: ('A' for Active; 'I' for Inactive)
REMARK    1  A    between atoms: N_1  and  C_10
REMARK    2  A    between atoms: C_4  and  C_16
REMARK    3  A    between atoms: C_9  and  C_31
REMARK    4  A    between atoms: C_16  and  C_17
REMARK    5  A    between atoms: C_18  and  N_23
REMARK    6  A    between atoms: C_31  and  N_32
REMARK                            x       y       z     vdW  Elec       q    Type
REMARK                         _______ _______ _______ _____ _____    ______ ____
ROOT
ATOM      1  N   UNL     1      34.138 -23.592 -15.350  0.00  0.00    -0.267 N 
ATOM      2  N   UNL     1      35.227 -23.781 -13.206  0.00  0.00    -0.341 NA
ATOM      3  N   UNL     1      37.589 -23.197 -13.286  0.00  0.00    -0.188 NA
ATOM      4  C   UNL     1      34.501 -23.235 -16.622  0.00  0.00    +0.035 C 
ATOM      5  C   UNL     1      35.226 -23.505 -14.522  0.00  0.00    +0.199 C 
ATOM      6  C   UNL     1      36.309 -23.083 -15.282  0.00  0.00    +0.066 C 
ATOM      7  C   UNL     1      35.842 -22.915 -16.611  0.00  0.00    +0.016 C 
ATOM      8  C   UNL     1      37.523 -22.934 -14.612  0.00  0.00    +0.114 C 
ATOM      9  C   UNL     1      36.453 -23.599 -12.674  0.00  0.00    +0.042 C 
ENDROOT
BRANCH   1  10
ATOM     10  C   UNL     1      32.747 -24.019 -14.917  0.00  0.00    +0.079 C 
ATOM     11  C   UNL     1      32.793 -25.091 -13.814  0.00  0.00    +0.020 C 
ATOM     12  C   UNL     1      31.888 -22.818 -14.483  0.00  0.00    +0.020 C 
ATOM     13  C   UNL     1      31.388 -25.521 -13.394  0.00  0.00    +0.002 C 
ATOM     14  C   UNL     1      30.488 -23.257 -14.060  0.00  0.00    +0.002 C 
ATOM     15  C   UNL     1      30.537 -24.327 -12.972  0.00  0.00    +0.000 C 
ENDBRANCH   1  10
BRANCH   4  16
ATOM     16  C   UNL     1      33.513 -23.229 -17.772  0.00  0.00    +0.068 C 
BRANCH  16  17
ATOM     17  C   UNL     1      33.776 -22.172 -18.790  0.00  0.00    -0.016 C 
ATOM     18  C   UNL     1      34.268 -20.195 -20.696  0.00  0.00    +0.048 C 
ATOM     19  C   UNL     1      35.077 -21.947 -19.242  0.00  0.00    -0.003 C 
ATOM     20  C   UNL     1      32.722 -21.409 -19.291  0.00  0.00    -0.003 C 
ATOM     21  C   UNL     1      35.323 -20.959 -20.195  0.00  0.00    +0.014 C 
ATOM     22  C   UNL     1      32.968 -20.420 -20.244  0.00  0.00    +0.014 C 
BRANCH  18  23
ATOM     23  N   UNL     1      34.515 -19.203 -21.652  0.00  0.00    -0.312 N 
ATOM     24  N   UNL     1      35.268 -17.246 -23.592  0.00  0.00    +0.388 N 
ATOM     25  C   UNL     1      34.563 -19.559 -23.074  0.00  0.00    +0.068 C 
ATOM     26  C   UNL     1      35.338 -18.054 -21.257  0.00  0.00    +0.068 C 
ATOM     27  C   UNL     1      35.082 -16.865 -22.187  0.00  0.00    -0.056 C 
ATOM     28  C   UNL     1      34.334 -18.322 -23.945  0.00  0.00    -0.056 C 
ATOM     29  C   UNL     1      35.075 -16.091 -24.467  0.00  0.00    -0.101 C 
ATOM     30  H   UNL     1      36.222 -17.585 -23.719  0.00  0.00    -0.080 HD
ENDBRANCH  18  23
ENDBRANCH  16  17
ENDBRANCH   4  16
BRANCH   9  31
ATOM     31  C   UNL     1      36.572 -23.879 -11.212  0.00  0.00    +0.030 C 
BRANCH  31  32
ATOM     32  N   UNL     1      37.927 -24.279 -10.832  0.00  0.00    +0.390 N 
ATOM     33  H   UNL     1      37.881 -25.090 -10.213  0.00  0.00    -0.088 HD
ATOM     34  H   UNL     1      38.386 -23.508 -10.348  0.00  0.00    -0.088 HD
ATOM     35  H   UNL     1      38.458 -24.520 -11.669  0.00  0.00    -0.088 HD
ENDBRANCH  31  32
ENDBRANCH   9  31
TORSDOF 6
ENDMDL
MODEL 2
REMARK VINA RESULT:     -11.9      1.840      4.036
REMARK  Name = 46937081
REMARK  6 active torsions:
REMARK  status: ('A' for Active; 'I' for Inactive)
REMARK    1  A    between atoms: N_1  and  C_10
REMARK    2  A    between atoms: C_4  and  C_16
REMARK    3  A    between atoms: C_9  and  C_31
REMARK    4  A    between atoms: C_16  and  C_17
REMARK    5  A    between atoms: C_18  and  N_23
REMARK    6  A    between atoms: C_31  and  N_32
REMARK                            x       y       z     vdW  Elec       q    Type
REMARK                         _______ _______ _______ _____ _____    ______ ____
ROOT
ATOM      1  N   UNL     1      34.255 -23.567 -16.093  0.00  0.00    -0.267 N 
ATOM      2  N   UNL     1      32.617 -24.328 -14.495  0.00  0.00    -0.341 NA
ATOM      3  N   UNL     1      30.330 -23.847 -15.177  0.00  0.00    -0.188 NA
ATOM      4  C   UNL     1      34.240 -22.927 -17.304  0.00  0.00    +0.035 C 
ATOM      5  C   UNL     1      32.970 -23.735 -15.649  0.00  0.00    +0.199 C 
ATOM      6  C   UNL     1      32.115 -23.190 -16.597  0.00  0.00    +0.066 C 
ATOM      7  C   UNL     1      32.927 -22.680 -17.642  0.00  0.00    +0.016 C 
ATOM      8  C   UNL     1      30.749 -23.262 -16.323  0.00  0.00    +0.114 C 
ATOM      9  C   UNL     1      31.277 -24.336 -14.345  0.00  0.00    +0.042 C 
ENDROOT
BRANCH   1  10
ATOM     10  C   UNL     1      35.499 -24.022 -15.352  0.00  0.00    +0.079 C 
ATOM     11  C   UNL     1      35.773 -23.161 -14.107  0.00  0.00    +0.020 C 
ATOM     12  C   UNL     1      35.433 -25.515 -14.985  0.00  0.00    +0.020 C 
ATOM     13  C   UNL     1      37.032 -23.621 -13.375  0.00  0.00    +0.002 C 
ATOM     14  C   UNL     1      36.693 -25.966 -14.249  0.00  0.00    +0.002 C 
ATOM     15  C   UNL     1      36.967 -25.104 -13.020  0.00  0.00    +0.000 C 
ENDBRANCH   1  10
BRANCH   4  16
ATOM     16  C   UNL     1      35.513 -22.595 -18.059  0.00  0.00    +0.068 C 
BRANCH  16  17
ATOM     17  C   UNL     1      35.335 -21.567 -19.124  0.00  0.00    -0.016 C 
ATOM     18  C   UNL     1      35.001 -19.643 -21.117  0.00  0.00    +0.048 C 
ATOM     19  C   UNL     1      34.062 -21.300 -19.629  0.00  0.00    -0.003 C 
ATOM     20  C   UNL     1      36.440 -20.873 -19.615  0.00  0.00    -0.003 C 
ATOM     21  C   UNL     1      33.895 -20.338 -20.625  0.00  0.00    +0.014 C 
ATOM     22  C   UNL     1      36.273 -19.911 -20.612  0.00  0.00    +0.014 C 
BRANCH  18  23
ATOM     23  N   UNL     1      34.833 -18.678 -22.116  0.00  0.00    -0.312 N 
ATOM     24  N   UNL     1      34.746 -16.731 -24.204  0.00  0.00    +0.388 N 
ATOM     25  C   UNL     1      34.613 -19.098 -23.504  0.00  0.00    +0.068 C 
ATOM     26  C   UNL     1      35.503 -17.384 -21.943  0.00  0.00    +0.068 C 
ATOM     27  C   UNL     1      34.826 -16.311 -22.800  0.00  0.00    -0.056 C 
ATOM     28  C   UNL     1      33.966 -17.970 -24.310  0.00  0.00    -0.056 C 
ATOM     29  C   UNL     1      34.147 -15.677 -25.021  0.00  0.00    -0.101 C 
ATOM     30  H   UNL     1      35.689 -16.905 -24.550  0.00  0.00    -0.080 HD
ENDBRANCH  18  23
ENDBRANCH  16  17
ENDBRANCH   4  16
BRANCH   9  31
ATOM     31  C   UNL     1      30.769 -24.972 -13.093  0.00  0.00    +0.030 C 
BRANCH  31  32
ATOM     32  N   UNL     1      29.592 -25.807 -13.332  0.00  0.00    +0.390 N 
ATOM     33  H   UNL     1      29.443 -26.422 -12.531  0.00  0.00    -0.088 HD
ATOM     34  H   UNL     1      29.737 -26.369 -14.170  0.00  0.00    -0.088 HD
ATOM     35  H   UNL     1      28.773 -25.211 -13.460  0.00  0.00    -0.088 HD
ENDBRANCH  31  32
ENDBRANCH   9  31
TORSDOF 6
ENDMDL
