MODEL 1
REMARK VINA RESULT:     -11.2      0.000      0.000
REMARK  Name = 9933475
REMARK  8 active torsions:
REMARK  status: ('A' for Active; 'I' for Inactive)
REMARK    1  A    between atoms: C_3  and  O_13
REMARK    2  A    between atoms: C_4  and  O_11
REMARK    3  A    between atoms: C_9  and  O_23
REMARK    4  A    between atoms: O_13  and  C_14
REMARK    5  A    between atoms: C_14  and  C_15
REMARK    6  A    between atoms: C_15  and  C_16
REMARK    7  A    between atoms: C_16  and  N_17
REMARK    8  A    between atoms: O_23  and  C_31
REMARK                            x       y       z     vdW  Elec       q    Type
REMARK                         _______ _______ _______ _____ _____    ______ ____
ROOT
ATOM      1  N   UNL     1      32.430 -21.646 -19.651  0.00  0.00    -0.248 NA
ATOM      2  N   UNL     1      33.354 -20.048 -21.200  0.00  0.00    -0.214 NA
ATOM      3  C   UNL     1      35.056 -22.849 -17.409  0.00  0.00    +0.173 C 
ATOM      4  C   UNL     1      36.161 -22.146 -17.862  0.00  0.00    +0.169 C 
ATOM      5  C   UNL     1      33.809 -22.679 -18.010  0.00  0.00    +0.055 C 
ATOM      6  C   UNL     1      34.760 -21.094 -19.534  0.00  0.00    +0.141 C 
ATOM      7  C   UNL     1      33.636 -21.803 -19.079  0.00  0.00    +0.072 C 
ATOM      8  C   UNL     1      36.017 -21.265 -18.928  0.00  0.00    +0.029 C 
ATOM      9  C   UNL     1      34.548 -20.229 -20.604  0.00  0.00    +0.213 C 
ATOM     10  C   UNL     1      32.354 -20.778 -20.680  0.00  0.00    +0.253 C 
ENDROOT
BRANCH   4  11
ATOM     11  O   UNL     1      37.382 -22.307 -17.281  0.00  0.00    -0.469 OA
ATOM     12  C   UNL     1      37.679 -21.484 -16.154  0.00  0.00    +0.253 C 
ENDBRANCH   4  11
BRANCH   3  13
ATOM     13  O   UNL     1      35.174 -23.724 -16.360  0.00  0.00    -0.472 OA
BRANCH  13  14
ATOM     14  C   UNL     1      34.747 -23.261 -15.087  0.00  0.00    +0.203 C 
BRANCH  14  15
ATOM     15  C   UNL     1      33.602 -24.141 -14.602  0.00  0.00    +0.025 C 
BRANCH  15  16
ATOM     16  C   UNL     1      32.288 -23.368 -14.544  0.00  0.00    -0.074 C 
BRANCH  16  17
ATOM     17  N   UNL     1      31.181 -24.224 -14.945  0.00  0.00    +0.387 N 
ATOM     18  C   UNL     1      30.832 -25.203 -13.917  0.00  0.00    -0.077 C 
ATOM     19  C   UNL     1      29.951 -23.469 -15.184  0.00  0.00    -0.077 C 
ATOM     20  C   UNL     1      29.462 -25.692 -14.362  0.00  0.00    -0.025 C 
ATOM     21  C   UNL     1      28.884 -24.554 -15.198  0.00  0.00    -0.025 C 
ATOM     22  H   UNL     1      31.514 -24.676 -15.796  0.00  0.00    -0.080 HD
ENDBRANCH  16  17
ENDBRANCH  15  16
ENDBRANCH  14  15
ENDBRANCH  13  14
ENDBRANCH   3  13
BRANCH   9  23
ATOM     23  O   UNL     1      35.584 -19.492 -21.117  0.00  0.00    -0.437 OA
BRANCH  23  31
ATOM     24  F   UNL     1      35.313 -16.957 -20.096  0.00  0.00    -0.201 F 
ATOM     25  N   UNL     1      34.301 -15.165 -24.230  0.00  0.00    -0.316 N 
ATOM     26  C   UNL     1      34.796 -16.099 -22.266  0.00  0.00    +0.045 C 
ATOM     27  C   UNL     1      34.613 -16.362 -23.625  0.00  0.00    +0.050 C 
ATOM     28  C   UNL     1      34.281 -14.158 -23.303  0.00  0.00    +0.026 C 
ATOM     29  C   UNL     1      34.584 -14.705 -22.077  0.00  0.00    +0.014 C 
ATOM     30  C   UNL     1      35.129 -17.167 -21.408  0.00  0.00    +0.176 C 
ATOM     31  C   UNL     1      35.261 -18.440 -21.951  0.00  0.00    +0.174 C 
ATOM     32  C   UNL     1      34.746 -17.643 -24.172  0.00  0.00    +0.018 C 
ATOM     33  C   UNL     1      35.076 -18.686 -23.302  0.00  0.00    +0.041 C 
ATOM     34  C   UNL     1      33.972 -12.768 -23.687  0.00  0.00    +0.047 C 
ATOM     35  H   UNL     1      34.120 -15.050 -25.190  0.00  0.00    +0.152 HD
ENDBRANCH  23  31
ENDBRANCH   9  23
TORSDOF 8
ENDMDL
MODEL 2
REMARK VINA RESULT:     -11.1      3.039     10.247
REMARK  Name = 9933475
REMARK  8 active torsions:
REMARK  status: ('A' for Active; 'I' for Inactive)
REMARK    1  A    between atoms: C_3  and  O_13
REMARK    2  A    between atoms: C_4  and  O_11
REMARK    3  A    between atoms: C_9  and  O_23
REMARK    4  A    between atoms: O_13  and  C_14
REMARK    5  A    between atoms: C_14  and  C_15
REMARK    6  A    between atoms: C_15  and  C_16
REMARK    7  A    between atoms: C_16  and  N_17
REMARK    8  A    between atoms: O_23  and  C_31
REMARK                            x       y       z     vdW  Elec       q    Type
REMARK                         _______ _______ _______ _____ _____    ______ ____
ROOT
ATOM      1  N   UNL     1      34.027 -18.090 -25.069  0.00  0.00    -0.248 NA
ATOM      2  N   UNL     1      34.889 -19.813 -23.622  0.00  0.00    -0.214 NA
ATOM      3  C   UNL     1      34.187 -14.858 -23.366  0.00  0.00    +0.173 C 
ATOM      4  C   UNL     1      34.736 -15.207 -22.142  0.00  0.00    +0.169 C 
ATOM      5  C   UNL     1      33.951 -15.826 -24.342  0.00  0.00    +0.055 C 
ATOM      6  C   UNL     1      34.814 -17.514 -22.879  0.00  0.00    +0.141 C 
ATOM      7  C   UNL     1      34.258 -17.166 -24.120  0.00  0.00    +0.072 C 
ATOM      8  C   UNL     1      35.051 -16.539 -21.893  0.00  0.00    +0.029 C 
ATOM      9  C   UNL     1      35.107 -18.862 -22.693  0.00  0.00    +0.213 C 
ATOM     10  C   UNL     1      34.355 -19.363 -24.769  0.00  0.00    +0.253 C 
ENDROOT
BRANCH   4  11
ATOM     11  O   UNL     1      34.968 -14.269 -21.183  0.00  0.00    -0.469 OA
ATOM     12  C   UNL     1      34.073 -14.241 -20.072  0.00  0.00    +0.253 C 
ENDBRANCH   4  11
BRANCH   3  13
ATOM     13  O   UNL     1      33.865 -13.552 -23.633  0.00  0.00    -0.472 OA
BRANCH  13  14
ATOM     14  C   UNL     1      32.571 -13.117 -23.242  0.00  0.00    +0.203 C 
BRANCH  14  15
ATOM     15  C   UNL     1      32.660 -11.673 -22.767  0.00  0.00    +0.025 C 
BRANCH  15  16
ATOM     16  C   UNL     1      31.495 -11.313 -21.849  0.00  0.00    -0.074 C 
BRANCH  16  17
ATOM     17  N   UNL     1      31.567  -9.910 -21.468  0.00  0.00    +0.387 N 
ATOM     18  C   UNL     1      31.808  -9.732 -20.037  0.00  0.00    -0.077 C 
ATOM     19  C   UNL     1      32.667  -9.208 -22.130  0.00  0.00    -0.077 C 
ATOM     20  C   UNL     1      32.229  -8.274 -19.941  0.00  0.00    -0.025 C 
ATOM     21  C   UNL     1      32.790  -7.927 -21.317  0.00  0.00    -0.025 C 
ATOM     22  H   UNL     1      30.661  -9.533 -21.746  0.00  0.00    -0.080 HD
ENDBRANCH  16  17
ENDBRANCH  15  16
ENDBRANCH  14  15
ENDBRANCH  13  14
ENDBRANCH   3  13
BRANCH   9  23
ATOM     23  O   UNL     1      35.653 -19.299 -21.514  0.00  0.00    -0.437 OA
BRANCH  23  31
ATOM     24  F   UNL     1      36.799 -21.054 -19.739  0.00  0.00    -0.201 F 
ATOM     25  N   UNL     1      32.699 -22.495 -18.180  0.00  0.00    -0.316 N 
ATOM     26  C   UNL     1      34.643 -21.751 -18.981  0.00  0.00    +0.045 C 
ATOM     27  C   UNL     1      33.257 -21.621 -19.086  0.00  0.00    +0.050 C 
ATOM     28  C   UNL     1      33.681 -23.170 -17.508  0.00  0.00    +0.026 C 
ATOM     29  C   UNL     1      34.896 -22.731 -17.981  0.00  0.00    +0.014 C 
ATOM     30  C   UNL     1      35.463 -20.959 -19.808  0.00  0.00    +0.176 C 
ATOM     31  C   UNL     1      34.858 -20.078 -20.698  0.00  0.00    +0.174 C 
ATOM     32  C   UNL     1      32.647 -20.735 -19.981  0.00  0.00    +0.018 C 
ATOM     33  C   UNL     1      33.480 -19.959 -20.792  0.00  0.00    +0.041 C 
ATOM     34  C   UNL     1      33.354 -24.171 -16.476  0.00  0.00    +0.047 C 
ATOM     35  H   UNL     1      31.732 -22.615 -18.036  0.00  0.00    +0.152 HD
ENDBRANCH  23  31
ENDBRANCH   9  23
TORSDOF 8
ENDMDL
MODEL 3
REMARK VINA RESULT:     -11.1      1.989      3.263
REMARK  Name = 9933475
REMARK  8 active torsions:
REMARK  status: ('A' for Active; 'I' for Inactive)
REMARK    1  A    between atoms: C_3  and  O_13
REMARK    2  A    between atoms: C_4  and  O_11
REMARK    3  A    between atoms: C_9  and  O_23
REMARK    4  A    between atoms: O_13  and  C_14
REMARK    5  A    between atoms: C_14  and  C_15
REMARK    6  A    between atoms: C_15  and  C_16
REMARK    7  A    between atoms: C_16  and  N_17
REMARK    8  A    between atoms: O_23  and  C_31
REMARK                            x       y       z     vdW  Elec       q    Type
REMARK                         _______ _______ _______ _____ _____    ______ ____
ROOT
ATOM      1  N   UNL     1      32.446 -21.639 -19.693  0.00  0.00    -0.248 NA
ATOM      2  N   UNL     1      33.364 -20.015 -21.217  0.00  0.00    -0.214 NA
ATOM      3  C   UNL     1      35.076 -22.860 -17.465  0.00  0.00    +0.173 C 
ATOM      4  C   UNL     1      36.179 -22.146 -17.907  0.00  0.00    +0.169 C 
ATOM      5  C   UNL     1      33.830 -22.688 -18.065  0.00  0.00    +0.055 C 
ATOM      6  C   UNL     1      34.773 -21.077 -19.566  0.00  0.00    +0.141 C 
ATOM      7  C   UNL     1      33.653 -21.798 -19.122  0.00  0.00    +0.072 C 
ATOM      8  C   UNL     1      36.031 -21.250 -18.961  0.00  0.00    +0.029 C 
ATOM      9  C   UNL     1      34.558 -20.197 -20.623  0.00  0.00    +0.213 C 
ATOM     10  C   UNL     1      32.367 -20.757 -20.709  0.00  0.00    +0.253 C 
ENDROOT
BRANCH   4  11
ATOM     11  O   UNL     1      37.400 -22.308 -17.327  0.00  0.00    -0.469 OA
ATOM     12  C   UNL     1      37.627 -21.633 -16.091  0.00  0.00    +0.253 C 
ENDBRANCH   4  11
BRANCH   3  13
ATOM     13  O   UNL     1      35.198 -23.750 -16.429  0.00  0.00    -0.472 OA
BRANCH  13  14
ATOM     14  C   UNL     1      34.493 -23.444 -15.235  0.00  0.00    +0.203 C 
BRANCH  14  15
ATOM     15  C   UNL     1      34.491 -24.673 -14.336  0.00  0.00    +0.025 C 
BRANCH  15  16
ATOM     16  C   UNL     1      35.629 -25.626 -14.689  0.00  0.00    -0.074 C 
BRANCH  16  17
ATOM     17  N   UNL     1      36.886 -25.136 -14.144  0.00  0.00    +0.387 N 
ATOM     18  C   UNL     1      36.807 -24.872 -12.708  0.00  0.00    -0.077 C 
ATOM     19  C   UNL     1      37.974 -26.102 -14.294  0.00  0.00    -0.077 C 
ATOM     20  C   UNL     1      38.269 -24.764 -12.300  0.00  0.00    -0.025 C 
ATOM     21  C   UNL     1      39.037 -25.568 -13.345  0.00  0.00    -0.025 C 
ATOM     22  H   UNL     1      37.068 -24.283 -14.672  0.00  0.00    -0.080 HD
ENDBRANCH  16  17
ENDBRANCH  15  16
ENDBRANCH  14  15
ENDBRANCH  13  14
ENDBRANCH   3  13
BRANCH   9  23
ATOM     23  O   UNL     1      35.591 -19.448 -21.125  0.00  0.00    -0.437 OA
BRANCH  23  31
ATOM     24  F   UNL     1      35.305 -16.921 -20.086  0.00  0.00    -0.201 F 
ATOM     25  N   UNL     1      34.290 -15.105 -24.208  0.00  0.00    -0.316 N 
ATOM     26  C   UNL     1      34.787 -16.051 -22.250  0.00  0.00    +0.045 C 
ATOM     27  C   UNL     1      34.608 -16.305 -23.611  0.00  0.00    +0.050 C 
ATOM     28  C   UNL     1      34.263 -14.105 -23.274  0.00  0.00    +0.026 C 
ATOM     29  C   UNL     1      34.567 -14.659 -22.051  0.00  0.00    +0.014 C 
ATOM     30  C   UNL     1      35.124 -17.123 -21.399  0.00  0.00    +0.176 C 
ATOM     31  C   UNL     1      35.263 -18.392 -21.951  0.00  0.00    +0.174 C 
ATOM     32  C   UNL     1      34.748 -17.581 -24.167  0.00  0.00    +0.018 C 
ATOM     33  C   UNL     1      35.081 -18.629 -23.304  0.00  0.00    +0.041 C 
ATOM     34  C   UNL     1      33.948 -12.714 -23.649  0.00  0.00    +0.047 C 
ATOM     35  H   UNL     1      34.109 -14.984 -25.168  0.00  0.00    +0.152 HD
ENDBRANCH  23  31
ENDBRANCH   9  23
TORSDOF 8
ENDMDL
MODEL 4
REMARK VINA RESULT:     -10.7      3.867      7.951
REMARK  Name = 9933475
REMARK  8 active torsions:
REMARK  status: ('A' for Active; 'I' for Inactive)
REMARK    1  A    between atoms: C_3  and  O_13
REMARK    2  A    between atoms: C_4  and  O_11
REMARK    3  A    between atoms: C_9  and  O_23
REMARK    4  A    between atoms: O_13  and  C_14
REMARK    5  A    between atoms: C_14  and  C_15
REMARK    6  A    between atoms: C_15  and  C_16
REMARK    7  A    between atoms: C_16  and  N_17
REMARK    8  A    between atoms: O_23  and  C_31
REMARK                            x       y       z     vdW  Elec       q    Type
REMARK                         _______ _______ _______ _____ _____    ______ ____
ROOT
ATOM      1  N   UNL     1      33.716 -15.030 -26.044  0.00  0.00    -0.248 NA
ATOM      2  N   UNL     1      32.826 -12.940 -25.239  0.00  0.00    -0.214 NA
ATOM      3  C   UNL     1      35.012 -16.980 -23.236  0.00  0.00    +0.173 C 
ATOM      4  C   UNL     1      34.753 -16.141 -22.163  0.00  0.00    +0.169 C 
ATOM      5  C   UNL     1      34.664 -16.604 -24.533  0.00  0.00    +0.055 C 
ATOM      6  C   UNL     1      33.788 -14.536 -23.700  0.00  0.00    +0.141 C 
ATOM      7  C   UNL     1      34.048 -15.381 -24.790  0.00  0.00    +0.072 C 
ATOM      8  C   UNL     1      34.140 -14.914 -22.391  0.00  0.00    +0.029 C 
ATOM      9  C   UNL     1      33.172 -13.323 -23.995  0.00  0.00    +0.213 C 
ATOM     10  C   UNL     1      33.123 -13.828 -26.201  0.00  0.00    +0.253 C 
ENDROOT
BRANCH   4  11
ATOM     11  O   UNL     1      35.091 -16.500 -20.894  0.00  0.00    -0.469 OA
ATOM     12  C   UNL     1      34.647 -15.649 -19.839  0.00  0.00    +0.253 C 
ENDBRANCH   4  11
BRANCH   3  13
ATOM     13  O   UNL     1      35.618 -18.193 -23.036  0.00  0.00    -0.472 OA
BRANCH  13  14
ATOM     14  C   UNL     1      34.831 -19.351 -23.276  0.00  0.00    +0.203 C 
BRANCH  14  15
ATOM     15  C   UNL     1      34.233 -19.821 -21.957  0.00  0.00    +0.025 C 
BRANCH  15  16
ATOM     16  C   UNL     1      35.303 -19.977 -20.881  0.00  0.00    -0.074 C 
BRANCH  16  17
ATOM     17  N   UNL     1      34.755 -20.659 -19.718  0.00  0.00    +0.387 N 
ATOM     18  C   UNL     1      33.353 -21.032 -19.898  0.00  0.00    -0.077 C 
ATOM     19  C   UNL     1      35.448 -21.914 -19.429  0.00  0.00    -0.077 C 
ATOM     20  C   UNL     1      33.121 -22.037 -18.781  0.00  0.00    -0.025 C 
ATOM     21  C   UNL     1      34.498 -22.614 -18.469  0.00  0.00    -0.025 C 
ATOM     22  H   UNL     1      34.870 -19.986 -18.961  0.00  0.00    -0.080 HD
ENDBRANCH  16  17
ENDBRANCH  15  16
ENDBRANCH  14  15
ENDBRANCH  13  14
ENDBRANCH   3  13
BRANCH   9  23
ATOM     23  O   UNL     1      32.877 -12.432 -22.997  0.00  0.00    -0.437 OA
BRANCH  23  31
ATOM     24  F   UNL     1      30.997 -10.452 -22.696  0.00  0.00    -0.201 F 
ATOM     25  N   UNL     1      34.012  -7.125 -23.774  0.00  0.00    -0.316 N 
ATOM     26  C   UNL     1      32.611  -8.783 -23.263  0.00  0.00    +0.045 C 
ATOM     27  C   UNL     1      33.928  -8.491 -23.626  0.00  0.00    +0.050 C 
ATOM     28  C   UNL     1      32.800  -6.545 -23.516  0.00  0.00    +0.026 C 
ATOM     29  C   UNL     1      31.911  -7.546 -23.196  0.00  0.00    +0.014 C 
ATOM     30  C   UNL     1      32.251 -10.128 -23.046  0.00  0.00    +0.176 C 
ATOM     31  C   UNL     1      33.222 -11.111 -23.204  0.00  0.00    +0.174 C 
ATOM     32  C   UNL     1      34.905  -9.479 -23.785  0.00  0.00    +0.018 C 
ATOM     33  C   UNL     1      34.524 -10.806 -23.566  0.00  0.00    +0.041 C 
ATOM     34  C   UNL     1      32.614  -5.085 -23.603  0.00  0.00    +0.047 C 
ATOM     35  H   UNL     1      34.828  -6.635 -24.026  0.00  0.00    +0.152 HD
ENDBRANCH  23  31
ENDBRANCH   9  23
TORSDOF 8
ENDMDL
MODEL 5
REMARK VINA RESULT:     -10.5      4.952      9.238
REMARK  Name = 9933475
REMARK  8 active torsions:
REMARK  status: ('A' for Active; 'I' for Inactive)
REMARK    1  A    between atoms: C_3  and  O_13
REMARK    2  A    between atoms: C_4  and  O_11
REMARK    3  A    between atoms: C_9  and  O_23
REMARK    4  A    between atoms: O_13  and  C_14
REMARK    5  A    between atoms: C_14  and  C_15
REMARK    6  A    between atoms: C_15  and  C_16
REMARK    7  A    between atoms: C_16  and  N_17
REMARK    8  A    between atoms: O_23  and  C_31
REMARK                            x       y       z     vdW  Elec       q    Type
REMARK                         _______ _______ _______ _____ _____    ______ ____
ROOT
ATOM      1  N   UNL     1      32.663 -12.865 -19.649  0.00  0.00    -0.248 NA
ATOM      2  N   UNL     1      31.560 -11.014 -20.728  0.00  0.00    -0.214 NA
ATOM      3  C   UNL     1      34.202 -15.021 -22.169  0.00  0.00    +0.173 C 
ATOM      4  C   UNL     1      33.867 -14.369 -23.345  0.00  0.00    +0.169 C 
ATOM      5  C   UNL     1      33.797 -14.515 -20.935  0.00  0.00    +0.055 C 
ATOM      6  C   UNL     1      32.711 -12.687 -22.039  0.00  0.00    +0.141 C 
ATOM      7  C   UNL     1      33.047 -13.344 -20.845  0.00  0.00    +0.072 C 
ATOM      8  C   UNL     1      33.119 -13.198 -23.285  0.00  0.00    +0.029 C 
ATOM      9  C   UNL     1      31.961 -11.522 -21.909  0.00  0.00    +0.213 C 
ATOM     10  C   UNL     1      31.940 -11.726 -19.655  0.00  0.00    +0.253 C 
ENDROOT
BRANCH   4  11
ATOM     11  O   UNL     1      34.258 -14.856 -24.555  0.00  0.00    -0.469 OA
ATOM     12  C   UNL     1      33.456 -14.513 -25.684  0.00  0.00    +0.253 C 
ENDBRANCH   4  11
BRANCH   3  13
ATOM     13  O   UNL     1      34.937 -16.178 -22.204  0.00  0.00    -0.472 OA
BRANCH  13  14
ATOM     14  C   UNL     1      34.987 -16.943 -21.009  0.00  0.00    +0.203 C 
BRANCH  14  15
ATOM     15  C   UNL     1      35.688 -18.263 -21.298  0.00  0.00    +0.025 C 
BRANCH  15  16
ATOM     16  C   UNL     1      34.687 -19.398 -21.491  0.00  0.00    -0.074 C 
BRANCH  16  17
ATOM     17  N   UNL     1      34.493 -20.118 -20.241  0.00  0.00    +0.387 N 
ATOM     18  C   UNL     1      33.204 -20.807 -20.188  0.00  0.00    -0.077 C 
ATOM     19  C   UNL     1      35.493 -21.166 -20.039  0.00  0.00    -0.077 C 
ATOM     20  C   UNL     1      33.381 -21.772 -19.026  0.00  0.00    -0.025 C 
ATOM     21  C   UNL     1      34.886 -22.006 -18.924  0.00  0.00    -0.025 C 
ATOM     22  H   UNL     1      34.560 -19.394 -19.526  0.00  0.00    -0.080 HD
ENDBRANCH  16  17
ENDBRANCH  15  16
ENDBRANCH  14  15
ENDBRANCH  13  14
ENDBRANCH   3  13
BRANCH   9  23
ATOM     23  O   UNL     1      31.586 -10.810 -23.019  0.00  0.00    -0.437 OA
BRANCH  23  31
ATOM     24  F   UNL     1      29.974  -8.615 -23.378  0.00  0.00    -0.201 F 
ATOM     25  N   UNL     1      33.580  -5.750 -23.715  0.00  0.00    -0.316 N 
ATOM     26  C   UNL     1      31.887  -7.192 -23.542  0.00  0.00    +0.045 C 
ATOM     27  C   UNL     1      33.279  -7.081 -23.526  0.00  0.00    +0.050 C 
ATOM     28  C   UNL     1      32.431  -5.020 -23.849  0.00  0.00    +0.026 C 
ATOM     29  C   UNL     1      31.365  -5.884 -23.746  0.00  0.00    +0.014 C 
ATOM     30  C   UNL     1      31.307  -8.464 -23.369  0.00  0.00    +0.176 C 
ATOM     31  C   UNL     1      32.146  -9.559 -23.188  0.00  0.00    +0.174 C 
ATOM     32  C   UNL     1      34.123  -8.181 -23.344  0.00  0.00    +0.018 C 
ATOM     33  C   UNL     1      33.526  -9.433 -23.174  0.00  0.00    +0.041 C 
ATOM     34  C   UNL     1      32.471  -3.561 -24.062  0.00  0.00    +0.047 C 
ATOM     35  H   UNL     1      34.492  -5.379 -23.747  0.00  0.00    +0.152 HD
ENDBRANCH  23  31
ENDBRANCH   9  23
TORSDOF 8
ENDMDL
MODEL 6
REMARK VINA RESULT:     -10.5      3.174      5.823
REMARK  Name = 9933475
REMARK  8 active torsions:
REMARK  status: ('A' for Active; 'I' for Inactive)
REMARK    1  A    between atoms: C_3  and  O_13
REMARK    2  A    between atoms: C_4  and  O_11
REMARK    3  A    between atoms: C_9  and  O_23
REMARK    4  A    between atoms: O_13  and  C_14
REMARK    5  A    between atoms: C_14  and  C_15
REMARK    6  A    between atoms: C_15  and  C_16
REMARK    7  A    between atoms: C_16  and  N_17
REMARK    8  A    between atoms: O_23  and  C_31
REMARK                            x       y       z     vdW  Elec       q    Type
REMARK                         _______ _______ _______ _____ _____    ______ ____
ROOT
ATOM      1  N   UNL     1      31.749 -23.415 -14.797  0.00  0.00    -0.248 NA
ATOM      2  N   UNL     1      31.870 -23.459 -17.203  0.00  0.00    -0.214 NA
ATOM      3  C   UNL     1      35.124 -23.529 -13.393  0.00  0.00    +0.173 C 
ATOM      4  C   UNL     1      35.906 -23.579 -14.536  0.00  0.00    +0.169 C 
ATOM      5  C   UNL     1      33.733 -23.475 -13.485  0.00  0.00    +0.055 C 
ATOM      6  C   UNL     1      33.888 -23.519 -15.875  0.00  0.00    +0.141 C 
ATOM      7  C   UNL     1      33.090 -23.468 -14.721  0.00  0.00    +0.072 C 
ATOM      8  C   UNL     1      35.290 -23.575 -15.783  0.00  0.00    +0.029 C 
ATOM      9  C   UNL     1      33.210 -23.512 -17.091  0.00  0.00    +0.213 C 
ATOM     10  C   UNL     1      31.211 -23.413 -16.034  0.00  0.00    +0.253 C 
ENDROOT
BRANCH   4  11
ATOM     11  O   UNL     1      37.265 -23.633 -14.456  0.00  0.00    -0.469 OA
ATOM     12  C   UNL     1      38.001 -23.157 -15.581  0.00  0.00    +0.253 C 
ENDBRANCH   4  11
BRANCH   3  13
ATOM     13  O   UNL     1      35.708 -23.534 -12.153  0.00  0.00    -0.472 OA
BRANCH  13  14
ATOM     14  C   UNL     1      35.595 -24.730 -11.395  0.00  0.00    +0.203 C 
BRANCH  14  15
ATOM     15  C   UNL     1      36.950 -25.425 -11.366  0.00  0.00    +0.025 C 
BRANCH  15  16
ATOM     16  C   UNL     1      37.044 -26.513 -12.431  0.00  0.00    -0.074 C 
BRANCH  16  17
ATOM     17  N   UNL     1      38.386 -26.556 -12.992  0.00  0.00    +0.387 N 
ATOM     18  C   UNL     1      38.379 -26.703 -14.447  0.00  0.00    -0.077 C 
ATOM     19  C   UNL     1      39.137 -25.327 -12.738  0.00  0.00    -0.077 C 
ATOM     20  C   UNL     1      39.803 -26.335 -14.834  0.00  0.00    -0.025 C 
ATOM     21  C   UNL     1      40.304 -25.434 -13.709  0.00  0.00    -0.025 C 
ATOM     22  H   UNL     1      38.818 -27.360 -12.537  0.00  0.00    -0.080 HD
ENDBRANCH  16  17
ENDBRANCH  15  16
ENDBRANCH  14  15
ENDBRANCH  13  14
ENDBRANCH   3  13
BRANCH   9  23
ATOM     23  O   UNL     1      33.903 -23.558 -18.273  0.00  0.00    -0.437 OA
BRANCH  23  31
ATOM     24  F   UNL     1      36.317 -22.443 -18.963  0.00  0.00    -0.201 F 
ATOM     25  N   UNL     1      34.307 -18.977 -21.259  0.00  0.00    -0.316 N 
ATOM     26  C   UNL     1      35.209 -20.679 -20.133  0.00  0.00    +0.045 C 
ATOM     27  C   UNL     1      33.999 -20.104 -20.529  0.00  0.00    +0.050 C 
ATOM     28  C   UNL     1      35.664 -18.822 -21.338  0.00  0.00    +0.026 C 
ATOM     29  C   UNL     1      36.251 -19.860 -20.651  0.00  0.00    +0.014 C 
ATOM     30  C   UNL     1      35.178 -21.859 -19.363  0.00  0.00    +0.176 C 
ATOM     31  C   UNL     1      33.943 -22.403 -19.028  0.00  0.00    +0.174 C 
ATOM     32  C   UNL     1      32.756 -20.650 -20.193  0.00  0.00    +0.018 C 
ATOM     33  C   UNL     1      32.751 -21.821 -19.428  0.00  0.00    +0.041 C 
ATOM     34  C   UNL     1      36.265 -17.689 -22.068  0.00  0.00    +0.047 C 
ATOM     35  H   UNL     1      33.646 -18.372 -21.666  0.00  0.00    +0.152 HD
ENDBRANCH  23  31
ENDBRANCH   9  23
TORSDOF 8
ENDMDL
MODEL 7
REMARK VINA RESULT:     -10.5      3.284      9.914
REMARK  Name = 9933475
REMARK  8 active torsions:
REMARK  status: ('A' for Active; 'I' for Inactive)
REMARK    1  A    between atoms: C_3  and  O_13
REMARK    2  A    between atoms: C_4  and  O_11
REMARK    3  A    between atoms: C_9  and  O_23
REMARK    4  A    between atoms: O_13  and  C_14
REMARK    5  A    between atoms: C_14  and  C_15
REMARK    6  A    between atoms: C_15  and  C_16
REMARK    7  A    between atoms: C_16  and  N_17
REMARK    8  A    between atoms: O_23  and  C_31
REMARK                            x       y       z     vdW  Elec       q    Type
REMARK                         _______ _______ _______ _____ _____    ______ ____
ROOT
ATOM      1  N   UNL     1      31.523 -23.400 -16.973  0.00  0.00    -0.248 NA
ATOM      2  N   UNL     1      31.983 -24.072 -14.706  0.00  0.00    -0.214 NA
ATOM      3  C   UNL     1      34.580 -22.133 -18.527  0.00  0.00    +0.173 C 
ATOM      4  C   UNL     1      35.500 -22.269 -17.499  0.00  0.00    +0.169 C 
ATOM      5  C   UNL     1      33.251 -22.513 -18.347  0.00  0.00    +0.055 C 
ATOM      6  C   UNL     1      33.743 -23.172 -16.097  0.00  0.00    +0.141 C 
ATOM      7  C   UNL     1      32.807 -23.037 -17.135  0.00  0.00    +0.072 C 
ATOM      8  C   UNL     1      35.084 -22.789 -16.278  0.00  0.00    +0.029 C 
ATOM      9  C   UNL     1      33.262 -23.698 -14.902  0.00  0.00    +0.213 C 
ATOM     10  C   UNL     1      31.180 -23.898 -15.768  0.00  0.00    +0.253 C 
ENDROOT
BRANCH   4  11
ATOM     11  O   UNL     1      36.800 -21.900 -17.666  0.00  0.00    -0.469 OA
ATOM     12  C   UNL     1      37.550 -21.612 -16.487  0.00  0.00    +0.253 C 
ENDBRANCH   4  11
BRANCH   3  13
ATOM     13  O   UNL     1      34.967 -21.622 -19.739  0.00  0.00    -0.472 OA
BRANCH  13  14
ATOM     14  C   UNL     1      34.225 -20.516 -20.235  0.00  0.00    +0.203 C 
BRANCH  14  15
ATOM     15  C   UNL     1      34.874 -20.026 -21.522  0.00  0.00    +0.025 C 
BRANCH  15  16
ATOM     16  C   UNL     1      35.750 -18.801 -21.275  0.00  0.00    -0.074 C 
BRANCH  16  17
ATOM     17  N   UNL     1      35.687 -17.897 -22.414  0.00  0.00    +0.387 N 
ATOM     18  C   UNL     1      34.791 -18.381 -23.463  0.00  0.00    -0.077 C 
ATOM     19  C   UNL     1      35.170 -16.578 -22.051  0.00  0.00    -0.077 C 
ATOM     20  C   UNL     1      34.579 -17.148 -24.327  0.00  0.00    -0.025 C 
ATOM     21  C   UNL     1      34.832 -15.962 -23.401  0.00  0.00    -0.025 C 
ATOM     22  H   UNL     1      36.652 -17.844 -22.740  0.00  0.00    -0.080 HD
ENDBRANCH  16  17
ENDBRANCH  15  16
ENDBRANCH  14  15
ENDBRANCH  13  14
ENDBRANCH   3  13
BRANCH   9  23
ATOM     23  O   UNL     1      34.101 -23.869 -13.831  0.00  0.00    -0.437 OA
BRANCH  23  31
ATOM     24  F   UNL     1      36.535 -23.138 -12.789  0.00  0.00    -0.201 F 
ATOM     25  N   UNL     1      38.619 -26.916 -14.434  0.00  0.00    -0.316 N 
ATOM     26  C   UNL     1      37.547 -25.115 -13.670  0.00  0.00    +0.045 C 
ATOM     27  C   UNL     1      37.388 -26.300 -14.392  0.00  0.00    +0.050 C 
ATOM     28  C   UNL     1      39.546 -26.165 -13.766  0.00  0.00    +0.026 C 
ATOM     29  C   UNL     1      38.913 -25.043 -13.280  0.00  0.00    +0.014 C 
ATOM     30  C   UNL     1      36.425 -24.284 -13.477  0.00  0.00    +0.176 C 
ATOM     31  C   UNL     1      35.204 -24.678 -14.014  0.00  0.00    +0.174 C 
ATOM     32  C   UNL     1      36.160 -26.697 -14.933  0.00  0.00    +0.018 C 
ATOM     33  C   UNL     1      35.062 -25.857 -14.729  0.00  0.00    +0.041 C 
ATOM     34  C   UNL     1      40.951 -26.599 -13.658  0.00  0.00    +0.047 C 
ATOM     35  H   UNL     1      38.804 -27.774 -14.880  0.00  0.00    +0.152 HD
ENDBRANCH  23  31
ENDBRANCH   9  23
TORSDOF 8
ENDMDL
MODEL 8
REMARK VINA RESULT:     -10.2      6.809     10.963
REMARK  Name = 9933475
REMARK  8 active torsions:
REMARK  status: ('A' for Active; 'I' for Inactive)
REMARK    1  A    between atoms: C_3  and  O_13
REMARK    2  A    between atoms: C_4  and  O_11
REMARK    3  A    between atoms: C_9  and  O_23
REMARK    4  A    between atoms: O_13  and  C_14
REMARK    5  A    between atoms: C_14  and  C_15
REMARK    6  A    between atoms: C_15  and  C_16
REMARK    7  A    between atoms: C_16  and  N_17
REMARK    8  A    between atoms: O_23  and  C_31
REMARK                            x       y       z     vdW  Elec       q    Type
REMARK                         _______ _______ _______ _____ _____    ______ ____
ROOT
ATOM      1  N   UNL     1      31.891 -10.237 -18.885  0.00  0.00    -0.248 NA
ATOM      2  N   UNL     1      31.377  -8.354 -20.298  0.00  0.00    -0.214 NA
ATOM      3  C   UNL     1      32.598 -13.170 -20.952  0.00  0.00    +0.173 C 
ATOM      4  C   UNL     1      32.440 -12.662 -22.232  0.00  0.00    +0.169 C 
ATOM      5  C   UNL     1      32.413 -12.355 -19.835  0.00  0.00    +0.055 C 
ATOM      6  C   UNL     1      31.907 -10.503 -21.268  0.00  0.00    +0.141 C 
ATOM      7  C   UNL     1      32.066 -11.013 -19.969  0.00  0.00    +0.072 C 
ATOM      8  C   UNL     1      32.093 -11.324 -22.394  0.00  0.00    +0.029 C 
ATOM      9  C   UNL     1      31.560  -9.159 -21.362  0.00  0.00    +0.213 C 
ATOM     10  C   UNL     1      31.556  -8.950 -19.108  0.00  0.00    +0.253 C 
ENDROOT
BRANCH   4  11
ATOM     11  O   UNL     1      32.618 -13.450 -23.327  0.00  0.00    -0.469 OA
ATOM     12  C   UNL     1      33.705 -13.125 -24.192  0.00  0.00    +0.253 C 
ENDBRANCH   4  11
BRANCH   3  13
ATOM     13  O   UNL     1      32.937 -14.485 -20.766  0.00  0.00    -0.472 OA
BRANCH  13  14
ATOM     14  C   UNL     1      34.303 -14.762 -20.490  0.00  0.00    +0.203 C 
BRANCH  14  15
ATOM     15  C   UNL     1      34.648 -16.137 -21.045  0.00  0.00    +0.025 C 
BRANCH  15  16
ATOM     16  C   UNL     1      35.069 -16.061 -22.509  0.00  0.00    -0.074 C 
BRANCH  16  17
ATOM     17  N   UNL     1      35.241 -17.398 -23.056  0.00  0.00    +0.387 N 
ATOM     18  C   UNL     1      35.114 -18.439 -22.037  0.00  0.00    -0.077 C 
ATOM     19  C   UNL     1      34.228 -17.725 -24.061  0.00  0.00    -0.077 C 
ATOM     20  C   UNL     1      34.934 -19.704 -22.862  0.00  0.00    -0.025 C 
ATOM     21  C   UNL     1      34.356 -19.235 -24.194  0.00  0.00    -0.025 C 
ATOM     22  H   UNL     1      36.176 -17.381 -23.461  0.00  0.00    -0.080 HD
ENDBRANCH  16  17
ENDBRANCH  15  16
ENDBRANCH  14  15
ENDBRANCH  13  14
ENDBRANCH   3  13
BRANCH   9  23
ATOM     23  O   UNL     1      31.384  -8.571 -22.588  0.00  0.00    -0.437 OA
BRANCH  23  31
ATOM     24  F   UNL     1      31.042  -6.975 -24.797  0.00  0.00    -0.201 F 
ATOM     25  N   UNL     1      35.495  -5.758 -24.878  0.00  0.00    -0.316 N 
ATOM     26  C   UNL     1      33.358  -6.389 -24.778  0.00  0.00    +0.045 C 
ATOM     27  C   UNL     1      34.605  -6.530 -24.166  0.00  0.00    +0.050 C 
ATOM     28  C   UNL     1      34.855  -5.134 -25.915  0.00  0.00    +0.026 C 
ATOM     29  C   UNL     1      33.530  -5.504 -25.879  0.00  0.00    +0.014 C 
ATOM     30  C   UNL     1      32.257  -7.084 -24.240  0.00  0.00    +0.176 C 
ATOM     31  C   UNL     1      32.457  -7.885 -23.120  0.00  0.00    +0.174 C 
ATOM     32  C   UNL     1      34.808  -7.336 -23.040  0.00  0.00    +0.018 C 
ATOM     33  C   UNL     1      33.701  -8.016 -22.524  0.00  0.00    +0.041 C 
ATOM     34  C   UNL     1      35.581  -4.242 -26.838  0.00  0.00    +0.047 C 
ATOM     35  H   UNL     1      36.453  -5.666 -24.671  0.00  0.00    +0.152 HD
ENDBRANCH  23  31
ENDBRANCH   9  23
TORSDOF 8
ENDMDL
MODEL 9
REMARK VINA RESULT:     -10.0      3.455      9.891
REMARK  Name = 9933475
REMARK  8 active torsions:
REMARK  status: ('A' for Active; 'I' for Inactive)
REMARK    1  A    between atoms: C_3  and  O_13
REMARK    2  A    between atoms: C_4  and  O_11
REMARK    3  A    between atoms: C_9  and  O_23
REMARK    4  A    between atoms: O_13  and  C_14
REMARK    5  A    between atoms: C_14  and  C_15
REMARK    6  A    between atoms: C_15  and  C_16
REMARK    7  A    between atoms: C_16  and  N_17
REMARK    8  A    between atoms: O_23  and  C_31
REMARK                            x       y       z     vdW  Elec       q    Type
REMARK                         _______ _______ _______ _____ _____    ______ ____
ROOT
ATOM      1  N   UNL     1      30.605 -23.803 -14.833  0.00  0.00    -0.248 NA
ATOM      2  N   UNL     1      31.721 -24.179 -12.731  0.00  0.00    -0.214 NA
ATOM      3  C   UNL     1      33.070 -22.974 -17.404  0.00  0.00    +0.173 C 
ATOM      4  C   UNL     1      34.256 -23.025 -16.689  0.00  0.00    +0.169 C 
ATOM      5  C   UNL     1      31.851 -23.235 -16.779  0.00  0.00    +0.055 C 
ATOM      6  C   UNL     1      32.991 -23.603 -14.705  0.00  0.00    +0.141 C 
ATOM      7  C   UNL     1      31.787 -23.553 -15.425  0.00  0.00    +0.072 C 
ATOM      8  C   UNL     1      34.221 -23.340 -15.335  0.00  0.00    +0.029 C 
ATOM      9  C   UNL     1      32.887 -23.923 -13.355  0.00  0.00    +0.213 C 
ATOM     10  C   UNL     1      30.637 -24.102 -13.519  0.00  0.00    +0.253 C 
ENDROOT
BRANCH   4  11
ATOM     11  O   UNL     1      35.451 -22.771 -17.291  0.00  0.00    -0.469 OA
ATOM     12  C   UNL     1      36.543 -22.416 -16.444  0.00  0.00    +0.253 C 
ENDBRANCH   4  11
BRANCH   3  13
ATOM     13  O   UNL     1      33.080 -22.664 -18.740  0.00  0.00    -0.472 OA
BRANCH  13  14
ATOM     14  C   UNL     1      32.568 -21.391 -19.107  0.00  0.00    +0.203 C 
BRANCH  14  15
ATOM     15  C   UNL     1      33.385 -20.849 -20.271  0.00  0.00    +0.025 C 
BRANCH  15  16
ATOM     16  C   UNL     1      34.877 -20.842 -19.952  0.00  0.00    -0.074 C 
BRANCH  16  17
ATOM     17  N   UNL     1      35.513 -19.670 -20.535  0.00  0.00    +0.387 N 
ATOM     18  C   UNL     1      36.969 -19.797 -20.596  0.00  0.00    -0.077 C 
ATOM     19  C   UNL     1      35.094 -19.436 -21.916  0.00  0.00    -0.077 C 
ATOM     20  C   UNL     1      37.367 -18.690 -21.560  0.00  0.00    -0.025 C 
ATOM     21  C   UNL     1      36.134 -18.449 -22.425  0.00  0.00    -0.025 C 
ATOM     22  H   UNL     1      35.229 -18.906 -19.923  0.00  0.00    -0.080 HD
ENDBRANCH  16  17
ENDBRANCH  15  16
ENDBRANCH  14  15
ENDBRANCH  13  14
ENDBRANCH   3  13
BRANCH   9  23
ATOM     23  O   UNL     1      34.008 -23.998 -12.570  0.00  0.00    -0.437 OA
BRANCH  23  31
ATOM     24  F   UNL     1      36.573 -23.356 -11.826  0.00  0.00    -0.201 F 
ATOM     25  N   UNL     1      38.395 -26.745 -14.379  0.00  0.00    -0.316 N 
ATOM     26  C   UNL     1      37.446 -25.129 -13.169  0.00  0.00    +0.045 C 
ATOM     27  C   UNL     1      37.182 -26.188 -14.040  0.00  0.00    +0.050 C 
ATOM     28  C   UNL     1      39.412 -26.077 -13.754  0.00  0.00    +0.026 C 
ATOM     29  C   UNL     1      38.857 -25.071 -12.996  0.00  0.00    +0.014 C 
ATOM     30  C   UNL     1      36.363 -24.381 -12.665  0.00  0.00    +0.176 C 
ATOM     31  C   UNL     1      35.074 -24.727 -13.057  0.00  0.00    +0.174 C 
ATOM     32  C   UNL     1      35.886 -26.537 -14.435  0.00  0.00    +0.018 C 
ATOM     33  C   UNL     1      34.828 -25.781 -13.923  0.00  0.00    +0.041 C 
ATOM     34  C   UNL     1      40.820 -26.472 -13.945  0.00  0.00    +0.047 C 
ATOM     35  H   UNL     1      38.513 -27.513 -14.983  0.00  0.00    +0.152 HD
ENDBRANCH  23  31
ENDBRANCH   9  23
TORSDOF 8
ENDMDL
