MODEL 1
REMARK VINA RESULT:     -12.8      0.000      0.000
REMARK  Name = 9976892
REMARK  4 active torsions:
REMARK  status: ('A' for Active; 'I' for Inactive)
REMARK    1  A    between atoms: N_1  and  C_13
REMARK    2  A    between atoms: C_10  and  O_17
REMARK    3  A    between atoms: O_17  and  C_20
REMARK    4  A    between atoms: C_19  and  N_25
REMARK                            x       y       z     vdW  Elec       q    Type
REMARK                         _______ _______ _______ _____ _____    ______ ____
ROOT
ATOM      1  N   UNL     1      31.694  -8.561 -21.522  0.00  0.00    +0.389 N 
ATOM      2  C   UNL     1      32.757  -8.902 -22.479  0.00  0.00    -0.073 C 
ATOM      3  C   UNL     1      31.520  -9.567 -20.462  0.00  0.00    -0.073 C 
ATOM      4  C   UNL     1      32.394 -10.072 -23.400  0.00  0.00    +0.003 C 
ATOM      5  C   UNL     1      30.897 -10.874 -20.962  0.00  0.00    +0.003 C 
ATOM      6  C   UNL     1      32.602 -11.423 -22.764  0.00  0.00    -0.025 C 
ATOM      7  C   UNL     1      31.893 -11.802 -21.610  0.00  0.00    -0.028 C 
ATOM      8  C   UNL     1      33.509 -12.326 -23.341  0.00  0.00    +0.033 C 
ATOM      9  C   UNL     1      32.108 -13.078 -21.060  0.00  0.00    -0.002 C 
ATOM     10  C   UNL     1      33.716 -13.587 -22.782  0.00  0.00    +0.147 C 
ATOM     11  C   UNL     1      33.015 -13.963 -21.642  0.00  0.00    +0.037 C 
ATOM     12  H   UNL     1      30.817  -8.517 -22.042  0.00  0.00    -0.080 HD
ENDROOT
BRANCH   1  13
ATOM     13  C   UNL     1      32.026  -7.301 -20.908  0.00  0.00    -0.058 C 
ATOM     14  C   UNL     1      33.114  -6.565 -21.715  0.00  0.00    -0.021 C 
ATOM     15  C   UNL     1      31.050  -6.195 -21.359  0.00  0.00    -0.021 C 
ATOM     16  C   UNL     1      32.282  -5.280 -21.519  0.00  0.00    -0.004 C 
ENDBRANCH   1  13
BRANCH  10  17
ATOM     17  O   UNL     1      34.600 -14.448 -23.354  0.00  0.00    -0.436 OA
BRANCH  17  20
ATOM     18  N   UNL     1      34.932 -15.680 -21.416  0.00  0.00    -0.209 NA
ATOM     19  C   UNL     1      35.126 -18.088 -21.543  0.00  0.00    +0.073 C 
ATOM     20  C   UNL     1      34.777 -15.683 -22.752  0.00  0.00    +0.230 C 
ATOM     21  C   UNL     1      34.960 -18.035 -22.922  0.00  0.00    +0.021 C 
ATOM     22  C   UNL     1      35.104 -16.893 -20.842  0.00  0.00    +0.117 C 
ATOM     23  C   UNL     1      34.781 -16.808 -23.550  0.00  0.00    +0.059 C 
BRANCH  19  25
ATOM     24  O   UNL     1      37.582 -19.241 -20.140  0.00  0.00    -0.275 OA
ATOM     25  N   UNL     1      35.312 -19.332 -20.871  0.00  0.00    -0.257 N 
ATOM     26  C   UNL     1      34.724 -21.272 -19.709  0.00  0.00    +0.031 C 
ATOM     27  C   UNL     1      34.277 -20.347 -20.822  0.00  0.00    +0.099 C 
ATOM     28  C   UNL     1      36.236 -21.195 -19.773  0.00  0.00    +0.087 C 
ATOM     29  C   UNL     1      36.494 -19.785 -20.255  0.00  0.00    +0.229 C 
ENDBRANCH  19  25
ENDBRANCH  17  20
ENDBRANCH  10  17
TORSDOF 4
ENDMDL
MODEL 2
REMARK VINA RESULT:     -12.1      6.113     13.066
REMARK  Name = 9976892
REMARK  4 active torsions:
REMARK  status: ('A' for Active; 'I' for Inactive)
REMARK    1  A    between atoms: N_1  and  C_13
REMARK    2  A    between atoms: C_10  and  O_17
REMARK    3  A    between atoms: O_17  and  C_20
REMARK    4  A    between atoms: C_19  and  N_25
REMARK                            x       y       z     vdW  Elec       q    Type
REMARK                         _______ _______ _______ _____ _____    ______ ____
ROOT
ATOM      1  N   UNL     1      37.836 -24.275 -13.516  0.00  0.00    +0.389 N 
ATOM      2  C   UNL     1      37.908 -24.097 -14.974  0.00  0.00    -0.073 C 
ATOM      3  C   UNL     1      36.514 -24.724 -13.049  0.00  0.00    -0.073 C 
ATOM      4  C   UNL     1      37.118 -22.884 -15.478  0.00  0.00    +0.003 C 
ATOM      5  C   UNL     1      35.435 -23.641 -13.150  0.00  0.00    +0.003 C 
ATOM      6  C   UNL     1      35.643 -23.152 -15.634  0.00  0.00    -0.025 C 
ATOM      7  C   UNL     1      34.846 -23.510 -14.532  0.00  0.00    -0.028 C 
ATOM      8  C   UNL     1      35.048 -23.027 -16.899  0.00  0.00    +0.033 C 
ATOM      9  C   UNL     1      33.472 -23.735 -14.721  0.00  0.00    -0.002 C 
ATOM     10  C   UNL     1      33.684 -23.258 -17.074  0.00  0.00    +0.147 C 
ATOM     11  C   UNL     1      32.896 -23.611 -15.985  0.00  0.00    +0.037 C 
ATOM     12  H   UNL     1      38.013 -23.366 -13.088  0.00  0.00    -0.080 HD
ENDROOT
BRANCH   1  13
ATOM     13  C   UNL     1      38.815 -25.259 -13.133  0.00  0.00    -0.058 C 
ATOM     14  C   UNL     1      38.708 -26.517 -14.018  0.00  0.00    -0.021 C 
ATOM     15  C   UNL     1      40.169 -24.984 -13.819  0.00  0.00    -0.021 C 
ATOM     16  C   UNL     1      40.249 -26.500 -14.096  0.00  0.00    -0.004 C 
ENDBRANCH   1  13
BRANCH  10  17
ATOM     17  O   UNL     1      33.125 -23.134 -18.309  0.00  0.00    -0.436 OA
BRANCH  17  20
ATOM     18  N   UNL     1      32.603 -21.265 -19.579  0.00  0.00    -0.209 NA
ATOM     19  C   UNL     1      34.367 -20.029 -20.679  0.00  0.00    +0.073 C 
ATOM     20  C   UNL     1      33.556 -22.089 -19.109  0.00  0.00    +0.230 C 
ATOM     21  C   UNL     1      35.312 -20.910 -20.166  0.00  0.00    +0.021 C 
ATOM     22  C   UNL     1      33.037 -20.248 -20.359  0.00  0.00    +0.117 C 
ATOM     23  C   UNL     1      34.906 -21.968 -19.361  0.00  0.00    +0.059 C 
BRANCH  19  25
ATOM     24  O   UNL     1      34.466 -19.781 -23.722  0.00  0.00    -0.275 OA
ATOM     25  N   UNL     1      34.754 -18.936 -21.508  0.00  0.00    -0.257 N 
ATOM     26  C   UNL     1      35.158 -16.714 -22.110  0.00  0.00    +0.031 C 
ATOM     27  C   UNL     1      35.272 -17.696 -20.962  0.00  0.00    +0.099 C 
ATOM     28  C   UNL     1      35.352 -17.583 -23.337  0.00  0.00    +0.087 C 
ATOM     29  C   UNL     1      34.775 -18.915 -22.916  0.00  0.00    +0.229 C 
ENDBRANCH  19  25
ENDBRANCH  17  20
ENDBRANCH  10  17
TORSDOF 4
ENDMDL
MODEL 3
REMARK VINA RESULT:     -12.1      4.389     12.432
REMARK  Name = 9976892
REMARK  4 active torsions:
REMARK  status: ('A' for Active; 'I' for Inactive)
REMARK    1  A    between atoms: N_1  and  C_13
REMARK    2  A    between atoms: C_10  and  O_17
REMARK    3  A    between atoms: O_17  and  C_20
REMARK    4  A    between atoms: C_19  and  N_25
REMARK                            x       y       z     vdW  Elec       q    Type
REMARK                         _______ _______ _______ _____ _____    ______ ____
ROOT
ATOM      1  N   UNL     1      35.962 -24.268 -13.870  0.00  0.00    +0.389 N 
ATOM      2  C   UNL     1      37.048 -23.786 -14.737  0.00  0.00    -0.073 C 
ATOM      3  C   UNL     1      34.765 -24.688 -14.615  0.00  0.00    -0.073 C 
ATOM      4  C   UNL     1      36.753 -22.428 -15.384  0.00  0.00    +0.003 C 
ATOM      5  C   UNL     1      33.993 -23.518 -15.234  0.00  0.00    +0.003 C 
ATOM      6  C   UNL     1      35.882 -22.525 -16.611  0.00  0.00    -0.025 C 
ATOM      7  C   UNL     1      34.576 -23.041 -16.540  0.00  0.00    -0.028 C 
ATOM      8  C   UNL     1      36.378 -22.079 -17.847  0.00  0.00    +0.033 C 
ATOM      9  C   UNL     1      33.795 -23.098 -17.707  0.00  0.00    -0.002 C 
ATOM     10  C   UNL     1      35.594 -22.145 -18.998  0.00  0.00    +0.147 C 
ATOM     11  C   UNL     1      34.302 -22.654 -18.927  0.00  0.00    +0.037 C 
ATOM     12  H   UNL     1      35.685 -23.492 -13.268  0.00  0.00    -0.080 HD
ENDROOT
BRANCH   1  13
ATOM     13  C   UNL     1      36.452 -25.393 -13.117  0.00  0.00    -0.058 C 
ATOM     14  C   UNL     1      37.588 -26.110 -13.873  0.00  0.00    -0.021 C 
ATOM     15  C   UNL     1      37.517 -24.949 -12.093  0.00  0.00    -0.021 C 
ATOM     16  C   UNL     1      38.336 -26.182 -12.526  0.00  0.00    -0.004 C 
ENDBRANCH   1  13
BRANCH  10  17
ATOM     17  O   UNL     1      36.091 -21.710 -20.187  0.00  0.00    -0.436 OA
BRANCH  17  20
ATOM     18  N   UNL     1      36.758 -19.524 -20.588  0.00  0.00    -0.209 NA
ATOM     19  C   UNL     1      35.147 -17.903 -21.380  0.00  0.00    +0.073 C 
ATOM     20  C   UNL     1      35.761 -20.427 -20.592  0.00  0.00    +0.230 C 
ATOM     21  C   UNL     1      34.153 -18.876 -21.366  0.00  0.00    +0.021 C 
ATOM     22  C   UNL     1      36.422 -18.275 -20.985  0.00  0.00    +0.117 C 
ATOM     23  C   UNL     1      34.458 -20.171 -20.964  0.00  0.00    +0.059 C 
BRANCH  19  25
ATOM     24  O   UNL     1      34.972 -16.671 -24.170  0.00  0.00    -0.275 OA
ATOM     25  N   UNL     1      34.863 -16.567 -21.787  0.00  0.00    -0.257 N 
ATOM     26  C   UNL     1      34.009 -14.397 -21.643  0.00  0.00    +0.031 C 
ATOM     27  C   UNL     1      34.672 -15.491 -20.834  0.00  0.00    +0.099 C 
ATOM     28  C   UNL     1      34.579 -14.592 -23.034  0.00  0.00    +0.087 C 
ATOM     29  C   UNL     1      34.811 -16.084 -23.109  0.00  0.00    +0.229 C 
ENDBRANCH  19  25
ENDBRANCH  17  20
ENDBRANCH  10  17
TORSDOF 4
ENDMDL
MODEL 4
REMARK VINA RESULT:     -11.8      2.661      4.720
REMARK  Name = 9976892
REMARK  4 active torsions:
REMARK  status: ('A' for Active; 'I' for Inactive)
REMARK    1  A    between atoms: N_1  and  C_13
REMARK    2  A    between atoms: C_10  and  O_17
REMARK    3  A    between atoms: O_17  and  C_20
REMARK    4  A    between atoms: C_19  and  N_25
REMARK                            x       y       z     vdW  Elec       q    Type
REMARK                         _______ _______ _______ _____ _____    ______ ____
ROOT
ATOM      1  N   UNL     1      32.771 -13.090 -21.329  0.00  0.00    +0.389 N 
ATOM      2  C   UNL     1      33.381 -14.109 -20.463  0.00  0.00    -0.073 C 
ATOM      3  C   UNL     1      32.360 -13.611 -22.642  0.00  0.00    -0.073 C 
ATOM      4  C   UNL     1      34.774 -14.548 -20.927  0.00  0.00    +0.003 C 
ATOM      5  C   UNL     1      33.539 -13.944 -23.561  0.00  0.00    +0.003 C 
ATOM      6  C   UNL     1      34.742 -15.575 -22.030  0.00  0.00    -0.025 C 
ATOM      7  C   UNL     1      34.158 -15.289 -23.277  0.00  0.00    -0.028 C 
ATOM      8  C   UNL     1      35.319 -16.837 -21.816  0.00  0.00    +0.033 C 
ATOM      9  C   UNL     1      34.165 -16.272 -24.281  0.00  0.00    -0.002 C 
ATOM     10  C   UNL     1      35.316 -17.805 -22.820  0.00  0.00    +0.147 C 
ATOM     11  C   UNL     1      34.739 -17.521 -24.053  0.00  0.00    +0.037 C 
ATOM     12  H   UNL     1      33.477 -12.372 -21.499  0.00  0.00    -0.080 HD
ENDROOT
BRANCH   1  13
ATOM     13  C   UNL     1      31.610 -12.564 -20.659  0.00  0.00    -0.058 C 
ATOM     14  C   UNL     1      32.015 -11.581 -19.542  0.00  0.00    -0.021 C 
ATOM     15  C   UNL     1      31.041 -11.348 -21.418  0.00  0.00    -0.021 C 
ATOM     16  C   UNL     1      30.882 -10.662 -20.045  0.00  0.00    -0.004 C 
ENDBRANCH   1  13
BRANCH  10  17
ATOM     17  O   UNL     1      35.878 -19.023 -22.594  0.00  0.00    -0.436 OA
BRANCH  17  20
ATOM     18  N   UNL     1      36.269 -20.393 -20.763  0.00  0.00    -0.209 NA
ATOM     19  C   UNL     1      34.402 -21.286 -19.512  0.00  0.00    +0.073 C 
ATOM     20  C   UNL     1      35.369 -19.785 -21.556  0.00  0.00    +0.230 C 
ATOM     21  C   UNL     1      33.514 -20.636 -20.361  0.00  0.00    +0.021 C 
ATOM     22  C   UNL     1      35.758 -21.134 -19.753  0.00  0.00    +0.117 C 
ATOM     23  C   UNL     1      34.000 -19.865 -21.411  0.00  0.00    +0.059 C 
BRANCH  19  25
ATOM     24  O   UNL     1      35.930 -22.673 -17.259  0.00  0.00    -0.275 OA
ATOM     25  N   UNL     1      33.933 -22.084 -18.427  0.00  0.00    -0.257 N 
ATOM     26  C   UNL     1      32.430 -22.906 -16.838  0.00  0.00    +0.031 C 
ATOM     27  C   UNL     1      32.535 -22.438 -18.274  0.00  0.00    +0.099 C 
ATOM     28  C   UNL     1      33.790 -23.515 -16.566  0.00  0.00    +0.087 C 
ATOM     29  C   UNL     1      34.720 -22.694 -17.431  0.00  0.00    +0.229 C 
ENDBRANCH  19  25
ENDBRANCH  17  20
ENDBRANCH  10  17
TORSDOF 4
ENDMDL
MODEL 5
REMARK VINA RESULT:     -11.6      2.324      3.482
REMARK  Name = 9976892
REMARK  4 active torsions:
REMARK  status: ('A' for Active; 'I' for Inactive)
REMARK    1  A    between atoms: N_1  and  C_13
REMARK    2  A    between atoms: C_10  and  O_17
REMARK    3  A    between atoms: O_17  and  C_20
REMARK    4  A    between atoms: C_19  and  N_25
REMARK                            x       y       z     vdW  Elec       q    Type
REMARK                         _______ _______ _______ _____ _____    ______ ____
ROOT
ATOM      1  N   UNL     1      32.498 -11.616 -21.233  0.00  0.00    +0.389 N 
ATOM      2  C   UNL     1      32.921 -12.960 -20.813  0.00  0.00    -0.073 C 
ATOM      3  C   UNL     1      32.015 -11.564 -22.622  0.00  0.00    -0.073 C 
ATOM      4  C   UNL     1      34.225 -13.422 -21.475  0.00  0.00    +0.003 C 
ATOM      5  C   UNL     1      33.129 -11.733 -23.660  0.00  0.00    +0.003 C 
ATOM      6  C   UNL     1      34.029 -13.971 -22.865  0.00  0.00    -0.025 C 
ATOM      7  C   UNL     1      33.511 -13.171 -23.899  0.00  0.00    -0.028 C 
ATOM      8  C   UNL     1      34.385 -15.301 -23.139  0.00  0.00    +0.033 C 
ATOM      9  C   UNL     1      33.361 -13.722 -25.184  0.00  0.00    -0.002 C 
ATOM     10  C   UNL     1      34.226 -15.836 -24.417  0.00  0.00    +0.147 C 
ATOM     11  C   UNL     1      33.715 -15.045 -25.439  0.00  0.00    +0.037 C 
ATOM     12  H   UNL     1      33.315 -11.007 -21.177  0.00  0.00    -0.080 HD
ENDROOT
BRANCH   1  13
ATOM     13  C   UNL     1      31.436 -11.184 -20.361  0.00  0.00    -0.058 C 
ATOM     14  C   UNL     1      31.913 -11.135 -18.895  0.00  0.00    -0.021 C 
ATOM     15  C   UNL     1      31.360  -9.644 -20.309  0.00  0.00    -0.021 C 
ATOM     16  C   UNL     1      31.178  -9.782 -18.782  0.00  0.00    -0.004 C 
ENDBRANCH   1  13
BRANCH  10  17
ATOM     17  O   UNL     1      34.575 -17.128 -24.663  0.00  0.00    -0.436 OA
BRANCH  17  20
ATOM     18  N   UNL     1      33.822 -19.076 -23.651  0.00  0.00    -0.209 NA
ATOM     19  C   UNL     1      34.696 -19.722 -21.491  0.00  0.00    +0.073 C 
ATOM     20  C   UNL     1      34.624 -17.998 -23.586  0.00  0.00    +0.230 C 
ATOM     21  C   UNL     1      35.506 -18.592 -21.473  0.00  0.00    +0.021 C 
ATOM     22  C   UNL     1      33.879 -19.917 -22.593  0.00  0.00    +0.117 C 
ATOM     23  C   UNL     1      35.475 -17.703 -22.542  0.00  0.00    +0.059 C 
BRANCH  19  25
ATOM     24  O   UNL     1      32.389 -21.023 -19.969  0.00  0.00    -0.275 OA
ATOM     25  N   UNL     1      34.705 -20.651 -20.409  0.00  0.00    -0.257 N 
ATOM     26  C   UNL     1      35.528 -22.328 -19.005  0.00  0.00    +0.031 C 
ATOM     27  C   UNL     1      35.935 -21.090 -19.777  0.00  0.00    +0.099 C 
ATOM     28  C   UNL     1      34.090 -22.044 -18.617  0.00  0.00    +0.087 C 
ATOM     29  C   UNL     1      33.581 -21.196 -19.760  0.00  0.00    +0.229 C 
ENDBRANCH  19  25
ENDBRANCH  17  20
ENDBRANCH  10  17
TORSDOF 4
ENDMDL
MODEL 6
REMARK VINA RESULT:     -11.5      4.752     11.373
REMARK  Name = 9976892
REMARK  4 active torsions:
REMARK  status: ('A' for Active; 'I' for Inactive)
REMARK    1  A    between atoms: N_1  and  C_13
REMARK    2  A    between atoms: C_10  and  O_17
REMARK    3  A    between atoms: O_17  and  C_20
REMARK    4  A    between atoms: C_19  and  N_25
REMARK                            x       y       z     vdW  Elec       q    Type
REMARK                         _______ _______ _______ _____ _____    ______ ____
ROOT
ATOM      1  N   UNL     1      31.809 -23.539 -15.430  0.00  0.00    +0.389 N 
ATOM      2  C   UNL     1      31.919 -23.256 -16.868  0.00  0.00    -0.073 C 
ATOM      3  C   UNL     1      32.851 -22.882 -14.625  0.00  0.00    -0.073 C 
ATOM      4  C   UNL     1      33.118 -23.941 -17.534  0.00  0.00    +0.003 C 
ATOM      5  C   UNL     1      34.244 -23.491 -14.821  0.00  0.00    +0.003 C 
ATOM      6  C   UNL     1      34.416 -23.199 -17.338  0.00  0.00    -0.025 C 
ATOM      7  C   UNL     1      34.949 -22.986 -16.054  0.00  0.00    -0.028 C 
ATOM      8  C   UNL     1      35.116 -22.724 -18.459  0.00  0.00    +0.033 C 
ATOM      9  C   UNL     1      36.170 -22.304 -15.921  0.00  0.00    -0.002 C 
ATOM     10  C   UNL     1      36.324 -22.044 -18.312  0.00  0.00    +0.147 C 
ATOM     11  C   UNL     1      36.852 -21.835 -17.043  0.00  0.00    +0.037 C 
ATOM     12  H   UNL     1      31.925 -24.546 -15.307  0.00  0.00    -0.080 HD
ENDROOT
BRANCH   1  13
ATOM     13  C   UNL     1      30.522 -23.080 -14.976  0.00  0.00    -0.058 C 
ATOM     14  C   UNL     1      29.581 -22.810 -16.168  0.00  0.00    -0.021 C 
ATOM     15  C   UNL     1      29.607 -24.270 -14.621  0.00  0.00    -0.021 C 
ATOM     16  C   UNL     1      28.477 -23.521 -15.359  0.00  0.00    -0.004 C 
ENDBRANCH   1  13
BRANCH  10  17
ATOM     17  O   UNL     1      36.987 -21.589 -19.410  0.00  0.00    -0.436 OA
BRANCH  17  20
ATOM     18  N   UNL     1      37.321 -19.444 -20.229  0.00  0.00    -0.209 NA
ATOM     19  C   UNL     1      35.503 -18.279 -21.319  0.00  0.00    +0.073 C 
ATOM     20  C   UNL     1      36.475 -20.476 -20.056  0.00  0.00    +0.230 C 
ATOM     21  C   UNL     1      34.671 -19.374 -21.115  0.00  0.00    +0.021 C 
ATOM     22  C   UNL     1      36.808 -18.363 -20.861  0.00  0.00    +0.117 C 
ATOM     23  C   UNL     1      35.160 -20.503 -20.469  0.00  0.00    +0.059 C 
BRANCH  19  25
ATOM     24  O   UNL     1      34.638 -15.576 -20.188  0.00  0.00    -0.275 OA
ATOM     25  N   UNL     1      35.029 -17.107 -21.978  0.00  0.00    -0.257 N 
ATOM     26  C   UNL     1      34.715 -15.582 -23.721  0.00  0.00    +0.031 C 
ATOM     27  C   UNL     1      34.803 -17.062 -23.410  0.00  0.00    +0.099 C 
ATOM     28  C   UNL     1      34.118 -14.993 -22.459  0.00  0.00    +0.087 C 
ATOM     29  C   UNL     1      34.643 -15.898 -21.368  0.00  0.00    +0.229 C 
ENDBRANCH  19  25
ENDBRANCH  17  20
ENDBRANCH  10  17
TORSDOF 4
ENDMDL
MODEL 7
REMARK VINA RESULT:     -11.2      2.650      4.808
REMARK  Name = 9976892
REMARK  4 active torsions:
REMARK  status: ('A' for Active; 'I' for Inactive)
REMARK    1  A    between atoms: N_1  and  C_13
REMARK    2  A    between atoms: C_10  and  O_17
REMARK    3  A    between atoms: O_17  and  C_20
REMARK    4  A    between atoms: C_19  and  N_25
REMARK                            x       y       z     vdW  Elec       q    Type
REMARK                         _______ _______ _______ _____ _____    ______ ____
ROOT
ATOM      1  N   UNL     1      32.938  -5.927 -24.507  0.00  0.00    +0.389 N 
ATOM      2  C   UNL     1      32.366  -7.250 -24.796  0.00  0.00    -0.073 C 
ATOM      3  C   UNL     1      33.637  -5.863 -23.213  0.00  0.00    -0.073 C 
ATOM      4  C   UNL     1      31.156  -7.593 -23.921  0.00  0.00    +0.003 C 
ATOM      5  C   UNL     1      32.691  -5.915 -22.009  0.00  0.00    +0.003 C 
ATOM      6  C   UNL     1      31.530  -8.107 -22.554  0.00  0.00    -0.025 C 
ATOM      7  C   UNL     1      32.257  -7.313 -21.649  0.00  0.00    -0.028 C 
ATOM      8  C   UNL     1      31.134  -9.398 -22.169  0.00  0.00    +0.033 C 
ATOM      9  C   UNL     1      32.570  -7.828 -20.380  0.00  0.00    -0.002 C 
ATOM     10  C   UNL     1      31.456  -9.899 -20.908  0.00  0.00    +0.147 C 
ATOM     11  C   UNL     1      32.173  -9.113 -20.013  0.00  0.00    +0.037 C 
ATOM     12  H   UNL     1      32.165  -5.262 -24.464  0.00  0.00    -0.080 HD
ENDROOT
BRANCH   1  13
ATOM     13  C   UNL     1      33.877  -5.603 -25.551  0.00  0.00    -0.058 C 
ATOM     14  C   UNL     1      35.306  -6.030 -25.158  0.00  0.00    -0.021 C 
ATOM     15  C   UNL     1      33.919  -6.717 -26.617  0.00  0.00    -0.021 C 
ATOM     16  C   UNL     1      35.455  -6.574 -26.595  0.00  0.00    -0.004 C 
ENDBRANCH   1  13
BRANCH  10  17
ATOM     17  O   UNL     1      31.065 -11.153 -20.553  0.00  0.00    -0.436 OA
BRANCH  17  20
ATOM     18  N   UNL     1      32.112 -12.243 -22.314  0.00  0.00    -0.209 NA
ATOM     19  C   UNL     1      33.335 -14.288 -21.903  0.00  0.00    +0.073 C 
ATOM     20  C   UNL     1      31.833 -12.217 -20.998  0.00  0.00    +0.230 C 
ATOM     21  C   UNL     1      33.019 -14.213 -20.551  0.00  0.00    +0.021 C 
ATOM     22  C   UNL     1      32.862 -13.287 -22.736  0.00  0.00    +0.117 C 
ATOM     23  C   UNL     1      32.250 -13.156 -20.079  0.00  0.00    +0.059 C 
BRANCH  19  25
ATOM     24  O   UNL     1      34.964 -16.429 -20.454  0.00  0.00    -0.275 OA
ATOM     25  N   UNL     1      34.122 -15.361 -22.416  0.00  0.00    -0.257 N 
ATOM     26  C   UNL     1      34.844 -16.976 -23.942  0.00  0.00    +0.031 C 
ATOM     27  C   UNL     1      34.333 -15.555 -23.838  0.00  0.00    +0.099 C 
ATOM     28  C   UNL     1      35.603 -17.174 -22.645  0.00  0.00    +0.087 C 
ATOM     29  C   UNL     1      34.851 -16.303 -21.665  0.00  0.00    +0.229 C 
ENDBRANCH  19  25
ENDBRANCH  17  20
ENDBRANCH  10  17
TORSDOF 4
ENDMDL
MODEL 8
REMARK VINA RESULT:     -11.1      1.870      3.044
REMARK  Name = 9976892
REMARK  4 active torsions:
REMARK  status: ('A' for Active; 'I' for Inactive)
REMARK    1  A    between atoms: N_1  and  C_13
REMARK    2  A    between atoms: C_10  and  O_17
REMARK    3  A    between atoms: O_17  and  C_20
REMARK    4  A    between atoms: C_19  and  N_25
REMARK                            x       y       z     vdW  Elec       q    Type
REMARK                         _______ _______ _______ _____ _____    ______ ____
ROOT
ATOM      1  N   UNL     1      32.481 -11.461 -21.260  0.00  0.00    +0.389 N 
ATOM      2  C   UNL     1      32.764 -12.857 -20.894  0.00  0.00    -0.073 C 
ATOM      3  C   UNL     1      32.069 -11.299 -22.663  0.00  0.00    -0.073 C 
ATOM      4  C   UNL     1      34.050 -13.402 -21.523  0.00  0.00    +0.003 C 
ATOM      5  C   UNL     1      33.211 -11.517 -23.661  0.00  0.00    +0.003 C 
ATOM      6  C   UNL     1      33.873 -13.863 -22.948  0.00  0.00    -0.025 C 
ATOM      7  C   UNL     1      33.475 -12.971 -23.959  0.00  0.00    -0.028 C 
ATOM      8  C   UNL     1      34.122 -15.205 -23.275  0.00  0.00    +0.033 C 
ATOM      9  C   UNL     1      33.338 -13.442 -25.276  0.00  0.00    -0.002 C 
ATOM     10  C   UNL     1      33.976 -15.661 -24.586  0.00  0.00    +0.147 C 
ATOM     11  C   UNL     1      33.585 -14.778 -25.586  0.00  0.00    +0.037 C 
ATOM     12  H   UNL     1      33.345 -10.932 -21.137  0.00  0.00    -0.080 HD
ENDROOT
BRANCH   1  13
ATOM     13  C   UNL     1      31.422 -10.978 -20.412  0.00  0.00    -0.058 C 
ATOM     14  C   UNL     1      31.809 -11.097 -18.924  0.00  0.00    -0.021 C 
ATOM     15  C   UNL     1      31.514  -9.448 -20.235  0.00  0.00    -0.021 C 
ATOM     16  C   UNL     1      31.223  -9.682 -18.737  0.00  0.00    -0.004 C 
ENDBRANCH   1  13
BRANCH  10  17
ATOM     17  O   UNL     1      34.221 -16.966 -24.884  0.00  0.00    -0.436 OA
BRANCH  17  20
ATOM     18  N   UNL     1      35.364 -17.347 -22.902  0.00  0.00    -0.209 NA
ATOM     19  C   UNL     1      35.130 -19.471 -21.770  0.00  0.00    +0.073 C 
ATOM     20  C   UNL     1      34.521 -17.820 -23.836  0.00  0.00    +0.230 C 
ATOM     21  C   UNL     1      34.262 -19.912 -22.763  0.00  0.00    +0.021 C 
ATOM     22  C   UNL     1      35.649 -18.192 -21.884  0.00  0.00    +0.117 C 
ATOM     23  C   UNL     1      33.945 -19.073 -23.825  0.00  0.00    +0.059 C 
BRANCH  19  25
ATOM     24  O   UNL     1      37.546 -19.406 -19.903  0.00  0.00    -0.275 OA
ATOM     25  N   UNL     1      35.474 -20.309 -20.669  0.00  0.00    -0.257 N 
ATOM     26  C   UNL     1      35.145 -21.793 -18.894  0.00  0.00    +0.031 C 
ATOM     27  C   UNL     1      34.679 -21.464 -20.296  0.00  0.00    +0.099 C 
ATOM     28  C   UNL     1      36.601 -21.371 -18.898  0.00  0.00    +0.087 C 
ATOM     29  C   UNL     1      36.624 -20.207 -19.862  0.00  0.00    +0.229 C 
ENDBRANCH  19  25
ENDBRANCH  17  20
ENDBRANCH  10  17
TORSDOF 4
ENDMDL
MODEL 9
REMARK VINA RESULT:     -10.8      3.006     10.213
REMARK  Name = 9976892
REMARK  4 active torsions:
REMARK  status: ('A' for Active; 'I' for Inactive)
REMARK    1  A    between atoms: N_1  and  C_13
REMARK    2  A    between atoms: C_10  and  O_17
REMARK    3  A    between atoms: O_17  and  C_20
REMARK    4  A    between atoms: C_19  and  N_25
REMARK                            x       y       z     vdW  Elec       q    Type
REMARK                         _______ _______ _______ _____ _____    ______ ____
ROOT
ATOM      1  N   UNL     1      34.984 -16.349 -23.563  0.00  0.00    +0.389 N 
ATOM      2  C   UNL     1      34.060 -15.391 -24.188  0.00  0.00    -0.073 C 
ATOM      3  C   UNL     1      34.648 -16.653 -22.163  0.00  0.00    -0.073 C 
ATOM      4  C   UNL     1      34.211 -13.963 -23.652  0.00  0.00    +0.003 C 
ATOM      5  C   UNL     1      34.923 -15.490 -21.205  0.00  0.00    +0.003 C 
ATOM      6  C   UNL     1      33.490 -13.732 -22.348  0.00  0.00    -0.025 C 
ATOM      7  C   UNL     1      33.827 -14.455 -21.190  0.00  0.00    -0.028 C 
ATOM      8  C   UNL     1      32.471 -12.768 -22.283  0.00  0.00    +0.033 C 
ATOM      9  C   UNL     1      33.138 -14.196 -19.993  0.00  0.00    -0.002 C 
ATOM     10  C   UNL     1      31.792 -12.524 -21.090  0.00  0.00    +0.147 C 
ATOM     11  C   UNL     1      32.127 -13.238 -19.945  0.00  0.00    +0.037 C 
ATOM     12  H   UNL     1      35.912 -15.924 -23.564  0.00  0.00    -0.080 HD
ENDROOT
BRANCH   1  13
ATOM     13  C   UNL     1      34.945 -17.573 -24.321  0.00  0.00    -0.058 C 
ATOM     14  C   UNL     1      34.878 -18.797 -23.385  0.00  0.00    -0.021 C 
ATOM     15  C   UNL     1      33.501 -17.913 -24.744  0.00  0.00    -0.021 C 
ATOM     16  C   UNL     1      33.807 -19.370 -24.337  0.00  0.00    -0.004 C 
ENDBRANCH   1  13
BRANCH  10  17
ATOM     17  O   UNL     1      30.807 -11.587 -21.046  0.00  0.00    -0.436 OA
BRANCH  17  20
ATOM     18  N   UNL     1      30.647 -10.013 -22.743  0.00  0.00    -0.209 NA
ATOM     19  C   UNL     1      31.670  -7.839 -22.465  0.00  0.00    +0.073 C 
ATOM     20  C   UNL     1      31.105 -10.318 -21.516  0.00  0.00    +0.230 C 
ATOM     21  C   UNL     1      32.119  -8.205 -21.201  0.00  0.00    +0.021 C 
ATOM     22  C   UNL     1      30.945  -8.771 -23.190  0.00  0.00    +0.117 C 
ATOM     23  C   UNL     1      31.835  -9.473 -20.707  0.00  0.00    +0.059 C 
BRANCH  19  25
ATOM     24  O   UNL     1      30.615  -5.088 -21.658  0.00  0.00    -0.275 OA
ATOM     25  N   UNL     1      31.948  -6.546 -22.999  0.00  0.00    -0.257 N 
ATOM     26  C   UNL     1      33.141  -4.879 -24.120  0.00  0.00    +0.031 C 
ATOM     27  C   UNL     1      32.797  -6.353 -24.158  0.00  0.00    +0.099 C 
ATOM     28  C   UNL     1      31.913  -4.248 -23.495  0.00  0.00    +0.087 C 
ATOM     29  C   UNL     1      31.403  -5.323 -22.563  0.00  0.00    +0.229 C 
ENDBRANCH  19  25
ENDBRANCH  17  20
ENDBRANCH  10  17
TORSDOF 4
ENDMDL
