MODEL 1
REMARK VINA RESULT:     -11.5      0.000      0.000
REMARK  Name = 3559
REMARK  7 active torsions:
REMARK  status: ('A' for Active; 'I' for Inactive)
REMARK    1  A    between atoms: N_1  and  C_17
REMARK    2  A    between atoms: C_2  and  C_9
REMARK    3  A    between atoms: C_2  and  O_15
REMARK    4  A    between atoms: C_17  and  C_18
REMARK    5  A    between atoms: C_18  and  C_19
REMARK    6  A    between atoms: C_19  and  C_21
REMARK    7  A    between atoms: C_21  and  C_23
REMARK                            x       y       z     vdW  Elec       q    Type
REMARK                         _______ _______ _______ _____ _____    ______ ____
ROOT
ATOM      1  N   UNL     1      35.201 -20.508 -19.897  0.00  0.00    +0.387 N 
ATOM      2  C   UNL     1      33.860 -22.653 -18.339  0.00  0.00    +0.103 C 
ATOM      3  C   UNL     1      33.108 -21.499 -19.040  0.00  0.00    +0.008 C 
ATOM      4  C   UNL     1      35.322 -22.213 -18.097  0.00  0.00    +0.008 C 
ATOM      5  C   UNL     1      33.853 -20.952 -20.264  0.00  0.00    -0.075 C 
ATOM      6  C   UNL     1      35.989 -21.615 -19.343  0.00  0.00    -0.075 C 
ATOM      7  H   UNL     1      35.113 -19.793 -19.176  0.00  0.00    -0.080 HD
ENDROOT
BRANCH   2   9
ATOM      8 CL   UNL     1      31.350 -24.573 -13.194  0.00  0.00    -0.082 Cl
ATOM      9  C   UNL     1      33.224 -23.141 -17.037  0.00  0.00    +0.002 C 
ATOM     10  C   UNL     1      31.843 -23.061 -16.864  0.00  0.00    -0.001 C 
ATOM     11  C   UNL     1      34.026 -23.662 -16.023  0.00  0.00    -0.001 C 
ATOM     12  C   UNL     1      31.263 -23.505 -15.675  0.00  0.00    +0.011 C 
ATOM     13  C   UNL     1      33.447 -24.106 -14.835  0.00  0.00    +0.011 C 
ATOM     14  C   UNL     1      32.065 -24.027 -14.662  0.00  0.00    +0.058 C 
ENDBRANCH   2   9
BRANCH   2  15
ATOM     15  O   UNL     1      33.842 -23.786 -19.220  0.00  0.00    -0.383 OA
ATOM     16  H   UNL     1      34.293 -23.558 -20.049  0.00  0.00    +0.211 HD
ENDBRANCH   2  15
BRANCH   1  17
ATOM     17  C   UNL     1      35.881 -19.924 -21.053  0.00  0.00    -0.077 C 
BRANCH  17  18
ATOM     18  C   UNL     1      34.867 -19.235 -21.970  0.00  0.00    -0.015 C 
BRANCH  18  19
ATOM     19  C   UNL     1      35.511 -18.146 -22.833  0.00  0.00    +0.067 C 
BRANCH  19  21
ATOM     20  O   UNL     1      34.058 -18.305 -24.754  0.00  0.00    -0.291 OA
ATOM     21  C   UNL     1      34.578 -17.591 -23.899  0.00  0.00    +0.173 C 
BRANCH  21  23
ATOM     22  F   UNL     1      33.409 -12.131 -23.853  0.00  0.00    -0.204 F 
ATOM     23  C   UNL     1      34.267 -16.132 -23.888  0.00  0.00    +0.035 C 
ATOM     24  C   UNL     1      33.616 -15.588 -24.971  0.00  0.00    +0.005 C 
ATOM     25  C   UNL     1      34.642 -15.385 -22.793  0.00  0.00    +0.005 C 
ATOM     26  C   UNL     1      33.323 -14.223 -24.960  0.00  0.00    +0.030 C 
ATOM     27  C   UNL     1      34.350 -14.022 -22.781  0.00  0.00    +0.030 C 
ATOM     28  C   UNL     1      33.690 -13.440 -23.865  0.00  0.00    +0.140 C 
ENDBRANCH  21  23
ENDBRANCH  19  21
ENDBRANCH  18  19
ENDBRANCH  17  18
ENDBRANCH   1  17
TORSDOF 7
ENDMDL
MODEL 2
REMARK VINA RESULT:     -11.2      1.129      1.583
REMARK  Name = 3559
REMARK  7 active torsions:
REMARK  status: ('A' for Active; 'I' for Inactive)
REMARK    1  A    between atoms: N_1  and  C_17
REMARK    2  A    between atoms: C_2  and  C_9
REMARK    3  A    between atoms: C_2  and  O_15
REMARK    4  A    between atoms: C_17  and  C_18
REMARK    5  A    between atoms: C_18  and  C_19
REMARK    6  A    between atoms: C_19  and  C_21
REMARK    7  A    between atoms: C_21  and  C_23
REMARK                            x       y       z     vdW  Elec       q    Type
REMARK                         _______ _______ _______ _____ _____    ______ ____
ROOT
ATOM      1  N   UNL     1      35.246 -20.809 -19.538  0.00  0.00    +0.387 N 
ATOM      2  C   UNL     1      33.741 -22.846 -17.986  0.00  0.00    +0.103 C 
ATOM      3  C   UNL     1      33.072 -21.714 -18.798  0.00  0.00    +0.008 C 
ATOM      4  C   UNL     1      35.190 -22.423 -17.653  0.00  0.00    +0.008 C 
ATOM      5  C   UNL     1      33.920 -21.244 -19.986  0.00  0.00    -0.075 C 
ATOM      6  C   UNL     1      35.963 -21.901 -18.871  0.00  0.00    -0.075 C 
ATOM      7  H   UNL     1      35.120 -20.057 -18.861  0.00  0.00    -0.080 HD
ENDROOT
BRANCH   2   9
ATOM      8 CL   UNL     1      30.801 -24.467 -12.967  0.00  0.00    -0.082 Cl
ATOM      9  C   UNL     1      32.996 -23.255 -16.715  0.00  0.00    +0.002 C 
ATOM     10  C   UNL     1      33.701 -23.789 -15.637  0.00  0.00    -0.001 C 
ATOM     11  C   UNL     1      31.614 -23.095 -16.635  0.00  0.00    -0.001 C 
ATOM     12  C   UNL     1      33.022 -24.164 -14.477  0.00  0.00    +0.011 C 
ATOM     13  C   UNL     1      30.935 -23.469 -15.476  0.00  0.00    +0.011 C 
ATOM     14  C   UNL     1      31.639 -24.003 -14.397  0.00  0.00    +0.058 C 
ENDBRANCH   2   9
BRANCH   2  15
ATOM     15  O   UNL     1      33.763 -24.021 -18.810  0.00  0.00    -0.383 OA
ATOM     16  H   UNL     1      34.682 -24.295 -18.958  0.00  0.00    +0.211 HD
ENDBRANCH   2  15
BRANCH   1  17
ATOM     17  C   UNL     1      36.026 -20.296 -20.665  0.00  0.00    -0.077 C 
BRANCH  17  18
ATOM     18  C   UNL     1      35.100 -19.645 -21.695  0.00  0.00    -0.015 C 
BRANCH  18  19
ATOM     19  C   UNL     1      35.735 -18.415 -22.350  0.00  0.00    +0.067 C 
BRANCH  19  21
ATOM     20  O   UNL     1      35.168 -16.812 -20.636  0.00  0.00    -0.291 OA
ATOM     21  C   UNL     1      35.174 -17.098 -21.831  0.00  0.00    +0.173 C 
BRANCH  21  23
ATOM     22  F   UNL     1      33.153 -13.416 -25.510  0.00  0.00    -0.204 F 
ATOM     23  C   UNL     1      34.636 -16.115 -22.814  0.00  0.00    +0.035 C 
ATOM     24  C   UNL     1      34.339 -16.548 -24.087  0.00  0.00    +0.005 C 
ATOM     25  C   UNL     1      34.454 -14.810 -22.412  0.00  0.00    +0.005 C 
ATOM     26  C   UNL     1      33.834 -15.628 -25.006  0.00  0.00    +0.030 C 
ATOM     27  C   UNL     1      33.949 -13.890 -23.330  0.00  0.00    +0.030 C 
ATOM     28  C   UNL     1      33.638 -14.299 -24.628  0.00  0.00    +0.140 C 
ENDBRANCH  21  23
ENDBRANCH  19  21
ENDBRANCH  18  19
ENDBRANCH  17  18
ENDBRANCH   1  17
TORSDOF 7
ENDMDL
MODEL 3
REMARK VINA RESULT:     -11.1      3.502      5.800
REMARK  Name = 3559
REMARK  7 active torsions:
REMARK  status: ('A' for Active; 'I' for Inactive)
REMARK    1  A    between atoms: N_1  and  C_17
REMARK    2  A    between atoms: C_2  and  C_9
REMARK    3  A    between atoms: C_2  and  O_15
REMARK    4  A    between atoms: C_17  and  C_18
REMARK    5  A    between atoms: C_18  and  C_19
REMARK    6  A    between atoms: C_19  and  C_21
REMARK    7  A    between atoms: C_21  and  C_23
REMARK                            x       y       z     vdW  Elec       q    Type
REMARK                         _______ _______ _______ _____ _____    ______ ____
ROOT
ATOM      1  N   UNL     1      34.278 -16.152 -23.216  0.00  0.00    +0.387 N 
ATOM      2  C   UNL     1      35.292 -18.554 -21.792  0.00  0.00    +0.103 C 
ATOM      3  C   UNL     1      34.532 -18.607 -23.137  0.00  0.00    +0.008 C 
ATOM      4  C   UNL     1      34.941 -17.228 -21.079  0.00  0.00    +0.008 C 
ATOM      5  C   UNL     1      34.702 -17.334 -23.973  0.00  0.00    -0.075 C 
ATOM      6  C   UNL     1      35.069 -16.000 -21.989  0.00  0.00    -0.075 C 
ATOM      7  H   UNL     1      33.303 -16.283 -22.947  0.00  0.00    -0.080 HD
ENDROOT
BRANCH   2   9
ATOM      8 CL   UNL     1      34.311 -23.247 -18.120  0.00  0.00    -0.082 Cl
ATOM      9  C   UNL     1      35.043 -19.744 -20.863  0.00  0.00    +0.002 C 
ATOM     10  C   UNL     1      33.739 -20.158 -20.596  0.00  0.00    -0.001 C 
ATOM     11  C   UNL     1      36.121 -20.412 -20.284  0.00  0.00    -0.001 C 
ATOM     12  C   UNL     1      33.513 -21.242 -19.748  0.00  0.00    +0.011 C 
ATOM     13  C   UNL     1      35.895 -21.495 -19.436  0.00  0.00    +0.011 C 
ATOM     14  C   UNL     1      34.590 -21.910 -19.169  0.00  0.00    +0.058 C 
ENDBRANCH   2   9
BRANCH   2  15
ATOM     15  O   UNL     1      36.697 -18.584 -22.082  0.00  0.00    -0.383 OA
ATOM     16  H   UNL     1      36.924 -19.433 -22.493  0.00  0.00    +0.211 HD
ENDBRANCH   2  15
BRANCH   1  17
ATOM     17  C   UNL     1      34.377 -14.949 -24.043  0.00  0.00    -0.077 C 
BRANCH  17  18
ATOM     18  C   UNL     1      34.138 -13.701 -23.190  0.00  0.00    -0.015 C 
BRANCH  18  19
ATOM     19  C   UNL     1      32.649 -13.449 -22.936  0.00  0.00    +0.067 C 
BRANCH  19  21
ATOM     20  O   UNL     1      32.233 -14.175 -20.671  0.00  0.00    -0.291 OA
ATOM     21  C   UNL     1      32.315 -13.241 -21.466  0.00  0.00    +0.173 C 
BRANCH  21  23
ATOM     22  F   UNL     1      31.531  -8.032 -19.615  0.00  0.00    -0.204 F 
ATOM     23  C   UNL     1      32.104 -11.850 -20.971  0.00  0.00    +0.035 C 
ATOM     24  C   UNL     1      32.009 -11.639 -19.615  0.00  0.00    +0.005 C 
ATOM     25  C   UNL     1      32.013 -10.828 -21.891  0.00  0.00    +0.005 C 
ATOM     26  C   UNL     1      31.814 -10.337 -19.152  0.00  0.00    +0.030 C 
ATOM     27  C   UNL     1      31.818  -9.527 -21.429  0.00  0.00    +0.030 C 
ATOM     28  C   UNL     1      31.719  -9.281 -20.059  0.00  0.00    +0.140 C 
ENDBRANCH  21  23
ENDBRANCH  19  21
ENDBRANCH  18  19
ENDBRANCH  17  18
ENDBRANCH   1  17
TORSDOF 7
ENDMDL
MODEL 4
REMARK VINA RESULT:     -10.9      5.590     10.714
REMARK  Name = 3559
REMARK  7 active torsions:
REMARK  status: ('A' for Active; 'I' for Inactive)
REMARK    1  A    between atoms: N_1  and  C_17
REMARK    2  A    between atoms: C_2  and  C_9
REMARK    3  A    between atoms: C_2  and  O_15
REMARK    4  A    between atoms: C_17  and  C_18
REMARK    5  A    between atoms: C_18  and  C_19
REMARK    6  A    between atoms: C_19  and  C_21
REMARK    7  A    between atoms: C_21  and  C_23
REMARK                            x       y       z     vdW  Elec       q    Type
REMARK                         _______ _______ _______ _____ _____    ______ ____
ROOT
ATOM      1  N   UNL     1      32.952 -23.571 -15.000  0.00  0.00    +0.387 N 
ATOM      2  C   UNL     1      33.715 -22.991 -17.811  0.00  0.00    +0.103 C 
ATOM      3  C   UNL     1      34.725 -23.070 -16.644  0.00  0.00    +0.008 C 
ATOM      4  C   UNL     1      32.314 -22.693 -17.232  0.00  0.00    +0.008 C 
ATOM      5  C   UNL     1      34.261 -23.991 -15.509  0.00  0.00    -0.075 C 
ATOM      6  C   UNL     1      31.937 -23.607 -16.058  0.00  0.00    -0.075 C 
ATOM      7  H   UNL     1      33.034 -22.608 -14.675  0.00  0.00    -0.080 HD
ENDROOT
BRANCH   2   9
ATOM      8 CL   UNL     1      35.113 -19.000 -22.122  0.00  0.00    -0.082 Cl
ATOM      9  C   UNL     1      34.069 -21.982 -18.904  0.00  0.00    +0.002 C 
ATOM     10  C   UNL     1      35.402 -21.776 -19.256  0.00  0.00    -0.001 C 
ATOM     11  C   UNL     1      33.059 -21.267 -19.546  0.00  0.00    -0.001 C 
ATOM     12  C   UNL     1      35.725 -20.854 -20.253  0.00  0.00    +0.011 C 
ATOM     13  C   UNL     1      33.382 -20.346 -20.541  0.00  0.00    +0.011 C 
ATOM     14  C   UNL     1      34.715 -20.140 -20.894  0.00  0.00    +0.058 C 
ENDBRANCH   2   9
BRANCH   2  15
ATOM     15  O   UNL     1      33.701 -24.270 -18.464  0.00  0.00    -0.383 OA
ATOM     16  H   UNL     1      34.444 -24.805 -18.142  0.00  0.00    +0.211 HD
ENDBRANCH   2  15
BRANCH   1  17
ATOM     17  C   UNL     1      32.547 -24.411 -13.872  0.00  0.00    -0.077 C 
BRANCH  17  18
ATOM     18  C   UNL     1      33.757 -25.159 -13.309  0.00  0.00    -0.015 C 
BRANCH  18  19
ATOM     19  C   UNL     1      34.509 -24.339 -12.257  0.00  0.00    +0.067 C 
BRANCH  19  21
ATOM     20  O   UNL     1      35.835 -25.510 -10.614  0.00  0.00    -0.291 OA
ATOM     21  C   UNL     1      35.766 -25.027 -11.742  0.00  0.00    +0.173 C 
BRANCH  21  23
ATOM     22  F   UNL     1      40.172 -25.439 -15.146  0.00  0.00    -0.204 F 
ATOM     23  C   UNL     1      36.944 -25.136 -12.650  0.00  0.00    +0.035 C 
ATOM     24  C   UNL     1      37.850 -26.149 -12.437  0.00  0.00    +0.005 C 
ATOM     25  C   UNL     1      37.080 -24.219 -13.670  0.00  0.00    +0.005 C 
ATOM     26  C   UNL     1      38.951 -26.253 -13.287  0.00  0.00    +0.030 C 
ATOM     27  C   UNL     1      38.180 -24.323 -14.520  0.00  0.00    +0.030 C 
ATOM     28  C   UNL     1      39.116 -25.340 -14.329  0.00  0.00    +0.140 C 
ENDBRANCH  21  23
ENDBRANCH  19  21
ENDBRANCH  18  19
ENDBRANCH  17  18
ENDBRANCH   1  17
TORSDOF 7
ENDMDL
MODEL 5
REMARK VINA RESULT:     -10.8      1.669      1.934
REMARK  Name = 3559
REMARK  7 active torsions:
REMARK  status: ('A' for Active; 'I' for Inactive)
REMARK    1  A    between atoms: N_1  and  C_17
REMARK    2  A    between atoms: C_2  and  C_9
REMARK    3  A    between atoms: C_2  and  O_15
REMARK    4  A    between atoms: C_17  and  C_18
REMARK    5  A    between atoms: C_18  and  C_19
REMARK    6  A    between atoms: C_19  and  C_21
REMARK    7  A    between atoms: C_21  and  C_23
REMARK                            x       y       z     vdW  Elec       q    Type
REMARK                         _______ _______ _______ _____ _____    ______ ____
ROOT
ATOM      1  N   UNL     1      34.817 -20.123 -20.392  0.00  0.00    +0.387 N 
ATOM      2  C   UNL     1      34.096 -22.415 -18.644  0.00  0.00    +0.103 C 
ATOM      3  C   UNL     1      33.085 -21.352 -19.132  0.00  0.00    +0.008 C 
ATOM      4  C   UNL     1      35.517 -21.810 -18.711  0.00  0.00    +0.008 C 
ATOM      5  C   UNL     1      33.479 -20.718 -20.471  0.00  0.00    -0.075 C 
ATOM      6  C   UNL     1      35.825 -21.133 -20.053  0.00  0.00    -0.075 C 
ATOM      7  H   UNL     1      34.808 -19.426 -19.648  0.00  0.00    -0.080 HD
ENDROOT
BRANCH   2   9
ATOM      8 CL   UNL     1      32.997 -24.633 -13.137  0.00  0.00    -0.082 Cl
ATOM      9  C   UNL     1      33.818 -22.978 -17.250  0.00  0.00    +0.002 C 
ATOM     10  C   UNL     1      32.510 -23.272 -16.867  0.00  0.00    -0.001 C 
ATOM     11  C   UNL     1      34.872 -23.195 -16.364  0.00  0.00    -0.001 C 
ATOM     12  C   UNL     1      32.256 -23.785 -15.594  0.00  0.00    +0.011 C 
ATOM     13  C   UNL     1      34.618 -23.708 -15.093  0.00  0.00    +0.011 C 
ATOM     14  C   UNL     1      33.310 -24.003 -14.708  0.00  0.00    +0.058 C 
ENDBRANCH   2   9
BRANCH   2  15
ATOM     15  O   UNL     1      34.012 -23.538 -19.534  0.00  0.00    -0.383 OA
ATOM     16  H   UNL     1      34.389 -24.321 -19.101  0.00  0.00    +0.211 HD
ENDBRANCH   2  15
BRANCH   1  17
ATOM     17  C   UNL     1      35.159 -19.459 -21.650  0.00  0.00    -0.077 C 
BRANCH  17  18
ATOM     18  C   UNL     1      35.916 -18.158 -21.372  0.00  0.00    -0.015 C 
BRANCH  18  19
ATOM     19  C   UNL     1      34.980 -17.021 -20.952  0.00  0.00    +0.067 C 
BRANCH  19  21
ATOM     20  O   UNL     1      35.554 -15.901 -23.012  0.00  0.00    -0.291 OA
ATOM     21  C   UNL     1      34.867 -15.917 -21.993  0.00  0.00    +0.173 C 
BRANCH  21  23
ATOM     22  F   UNL     1      31.123 -11.855 -21.183  0.00  0.00    -0.204 F 
ATOM     23  C   UNL     1      33.869 -14.831 -21.777  0.00  0.00    +0.035 C 
ATOM     24  C   UNL     1      33.463 -14.081 -22.858  0.00  0.00    +0.005 C 
ATOM     25  C   UNL     1      33.387 -14.620 -20.503  0.00  0.00    +0.005 C 
ATOM     26  C   UNL     1      32.528 -13.066 -22.656  0.00  0.00    +0.030 C 
ATOM     27  C   UNL     1      32.451 -13.606 -20.301  0.00  0.00    +0.030 C 
ATOM     28  C   UNL     1      32.021 -12.829 -21.378  0.00  0.00    +0.140 C 
ENDBRANCH  21  23
ENDBRANCH  19  21
ENDBRANCH  18  19
ENDBRANCH  17  18
ENDBRANCH   1  17
TORSDOF 7
ENDMDL
MODEL 6
REMARK VINA RESULT:     -10.8      5.492     10.507
REMARK  Name = 3559
REMARK  7 active torsions:
REMARK  status: ('A' for Active; 'I' for Inactive)
REMARK    1  A    between atoms: N_1  and  C_17
REMARK    2  A    between atoms: C_2  and  C_9
REMARK    3  A    between atoms: C_2  and  O_15
REMARK    4  A    between atoms: C_17  and  C_18
REMARK    5  A    between atoms: C_18  and  C_19
REMARK    6  A    between atoms: C_19  and  C_21
REMARK    7  A    between atoms: C_21  and  C_23
REMARK                            x       y       z     vdW  Elec       q    Type
REMARK                         _______ _______ _______ _____ _____    ______ ____
ROOT
ATOM      1  N   UNL     1      34.454 -15.017 -21.190  0.00  0.00    +0.387 N 
ATOM      2  C   UNL     1      32.607 -12.810 -21.926  0.00  0.00    +0.103 C 
ATOM      3  C   UNL     1      33.880 -13.171 -22.725  0.00  0.00    +0.008 C 
ATOM      4  C   UNL     1      32.764 -13.343 -20.483  0.00  0.00    +0.008 C 
ATOM      5  C   UNL     1      34.272 -14.647 -22.597  0.00  0.00    -0.075 C 
ATOM      6  C   UNL     1      33.221 -14.806 -20.424  0.00  0.00    -0.075 C 
ATOM      7  H   UNL     1      35.176 -14.414 -20.796  0.00  0.00    -0.080 HD
ENDROOT
BRANCH   2   9
ATOM      8 CL   UNL     1      31.203  -6.938 -21.874  0.00  0.00    -0.082 Cl
ATOM      9  C   UNL     1      32.253 -11.323 -21.912  0.00  0.00    +0.002 C 
ATOM     10  C   UNL     1      31.824 -10.720 -20.731  0.00  0.00    -0.001 C 
ATOM     11  C   UNL     1      32.358 -10.571 -23.082  0.00  0.00    -0.001 C 
ATOM     12  C   UNL     1      31.500  -9.363 -20.719  0.00  0.00    +0.011 C 
ATOM     13  C   UNL     1      32.034  -9.215 -23.070  0.00  0.00    +0.011 C 
ATOM     14  C   UNL     1      31.605  -8.611 -21.888  0.00  0.00    +0.058 C 
ENDBRANCH   2   9
BRANCH   2  15
ATOM     15  O   UNL     1      31.495 -13.462 -22.557  0.00  0.00    -0.383 OA
ATOM     16  H   UNL     1      30.810 -12.805 -22.762  0.00  0.00    +0.211 HD
ENDBRANCH   2  15
BRANCH   1  17
ATOM     17  C   UNL     1      34.896 -16.408 -21.078  0.00  0.00    -0.077 C 
BRANCH  17  18
ATOM     18  C   UNL     1      35.245 -16.964 -22.460  0.00  0.00    -0.015 C 
BRANCH  18  19
ATOM     19  C   UNL     1      35.171 -18.493 -22.507  0.00  0.00    +0.067 C 
BRANCH  19  21
ATOM     20  O   UNL     1      37.074 -18.889 -21.074  0.00  0.00    -0.291 OA
ATOM     21  C   UNL     1      35.911 -19.168 -21.361  0.00  0.00    +0.173 C 
BRANCH  21  23
ATOM     22  F   UNL     1      33.206 -22.973 -18.299  0.00  0.00    -0.204 F 
ATOM     23  C   UNL     1      35.189 -20.185 -20.544  0.00  0.00    +0.035 C 
ATOM     24  C   UNL     1      35.926 -21.079 -19.801  0.00  0.00    +0.005 C 
ATOM     25  C   UNL     1      33.811 -20.191 -20.563  0.00  0.00    +0.005 C 
ATOM     26  C   UNL     1      35.250 -22.030 -19.036  0.00  0.00    +0.030 C 
ATOM     27  C   UNL     1      33.136 -21.141 -19.798  0.00  0.00    +0.030 C 
ATOM     28  C   UNL     1      33.855 -22.061 -19.033  0.00  0.00    +0.140 C 
ENDBRANCH  21  23
ENDBRANCH  19  21
ENDBRANCH  18  19
ENDBRANCH  17  18
ENDBRANCH   1  17
TORSDOF 7
ENDMDL
MODEL 7
REMARK VINA RESULT:     -10.8      5.083      9.581
REMARK  Name = 3559
REMARK  7 active torsions:
REMARK  status: ('A' for Active; 'I' for Inactive)
REMARK    1  A    between atoms: N_1  and  C_17
REMARK    2  A    between atoms: C_2  and  C_9
REMARK    3  A    between atoms: C_2  and  O_15
REMARK    4  A    between atoms: C_17  and  C_18
REMARK    5  A    between atoms: C_18  and  C_19
REMARK    6  A    between atoms: C_19  and  C_21
REMARK    7  A    between atoms: C_21  and  C_23
REMARK                            x       y       z     vdW  Elec       q    Type
REMARK                         _______ _______ _______ _____ _____    ______ ____
ROOT
ATOM      1  N   UNL     1      33.216 -23.502 -15.223  0.00  0.00    +0.387 N 
ATOM      2  C   UNL     1      33.931 -22.848 -18.031  0.00  0.00    +0.103 C 
ATOM      3  C   UNL     1      34.960 -22.953 -16.882  0.00  0.00    +0.008 C 
ATOM      4  C   UNL     1      32.538 -22.570 -17.421  0.00  0.00    +0.008 C 
ATOM      5  C   UNL     1      34.518 -23.905 -15.764  0.00  0.00    -0.075 C 
ATOM      6  C   UNL     1      32.184 -23.515 -16.265  0.00  0.00    -0.075 C 
ATOM      7  H   UNL     1      33.300 -22.548 -14.875  0.00  0.00    -0.080 HD
ENDROOT
BRANCH   2   9
ATOM      8 CL   UNL     1      35.246 -18.751 -22.267  0.00  0.00    -0.082 Cl
ATOM      9  C   UNL     1      34.264 -21.810 -19.102  0.00  0.00    +0.002 C 
ATOM     10  C   UNL     1      33.237 -21.145 -19.771  0.00  0.00    -0.001 C 
ATOM     11  C   UNL     1      35.594 -21.529 -19.411  0.00  0.00    -0.001 C 
ATOM     12  C   UNL     1      33.541 -20.198 -20.749  0.00  0.00    +0.011 C 
ATOM     13  C   UNL     1      35.898 -20.583 -20.390  0.00  0.00    +0.011 C 
ATOM     14  C   UNL     1      34.871 -19.918 -21.058  0.00  0.00    +0.058 C 
ENDBRANCH   2   9
BRANCH   2  15
ATOM     15  O   UNL     1      33.910 -24.110 -18.715  0.00  0.00    -0.383 OA
ATOM     16  H   UNL     1      34.286 -24.796 -18.141  0.00  0.00    +0.211 HD
ENDBRANCH   2  15
BRANCH   1  17
ATOM     17  C   UNL     1      32.832 -24.372 -14.110  0.00  0.00    -0.077 C 
BRANCH  17  18
ATOM     18  C   UNL     1      31.710 -23.724 -13.296  0.00  0.00    -0.015 C 
BRANCH  18  19
ATOM     19  C   UNL     1      30.593 -24.715 -12.955  0.00  0.00    +0.067 C 
BRANCH  19  21
ATOM     20  O   UNL     1      30.017 -26.494 -14.483  0.00  0.00    -0.291 OA
ATOM     21  C   UNL     1      29.916 -25.306 -14.184  0.00  0.00    +0.173 C 
BRANCH  21  23
ATOM     22  F   UNL     1      26.785 -21.964 -17.378  0.00  0.00    -0.204 F 
ATOM     23  C   UNL     1      29.081 -24.413 -15.038  0.00  0.00    +0.035 C 
ATOM     24  C   UNL     1      28.604 -24.900 -16.234  0.00  0.00    +0.005 C 
ATOM     25  C   UNL     1      28.816 -23.134 -14.597  0.00  0.00    +0.005 C 
ATOM     26  C   UNL     1      27.822 -24.065 -17.032  0.00  0.00    +0.030 C 
ATOM     27  C   UNL     1      28.034 -22.300 -15.395  0.00  0.00    +0.030 C 
ATOM     28  C   UNL     1      27.536 -22.765 -16.613  0.00  0.00    +0.140 C 
ENDBRANCH  21  23
ENDBRANCH  19  21
ENDBRANCH  18  19
ENDBRANCH  17  18
ENDBRANCH   1  17
TORSDOF 7
ENDMDL
MODEL 8
REMARK VINA RESULT:     -10.7      4.693      9.935
REMARK  Name = 3559
REMARK  7 active torsions:
REMARK  status: ('A' for Active; 'I' for Inactive)
REMARK    1  A    between atoms: N_1  and  C_17
REMARK    2  A    between atoms: C_2  and  C_9
REMARK    3  A    between atoms: C_2  and  O_15
REMARK    4  A    between atoms: C_17  and  C_18
REMARK    5  A    between atoms: C_18  and  C_19
REMARK    6  A    between atoms: C_19  and  C_21
REMARK    7  A    between atoms: C_21  and  C_23
REMARK                            x       y       z     vdW  Elec       q    Type
REMARK                         _______ _______ _______ _____ _____    ______ ____
ROOT
ATOM      1  N   UNL     1      35.938 -20.314 -19.658  0.00  0.00    +0.387 N 
ATOM      2  C   UNL     1      35.380 -18.710 -22.095  0.00  0.00    +0.103 C 
ATOM      3  C   UNL     1      36.687 -18.608 -21.278  0.00  0.00    +0.008 C 
ATOM      4  C   UNL     1      34.272 -19.283 -21.183  0.00  0.00    +0.008 C 
ATOM      5  C   UNL     1      37.036 -19.905 -20.539  0.00  0.00    -0.075 C 
ATOM      6  C   UNL     1      34.706 -20.543 -20.422  0.00  0.00    -0.075 C 
ATOM      7  H   UNL     1      35.762 -19.555 -18.999  0.00  0.00    -0.080 HD
ENDROOT
BRANCH   2   9
ATOM      8 CL   UNL     1      33.565 -13.546 -24.645  0.00  0.00    -0.082 Cl
ATOM      9  C   UNL     1      34.919 -17.402 -22.741  0.00  0.00    +0.002 C 
ATOM     10  C   UNL     1      34.519 -17.388 -24.076  0.00  0.00    -0.001 C 
ATOM     11  C   UNL     1      34.900 -16.226 -21.994  0.00  0.00    -0.001 C 
ATOM     12  C   UNL     1      34.099 -16.195 -24.665  0.00  0.00    +0.011 C 
ATOM     13  C   UNL     1      34.481 -15.033 -22.582  0.00  0.00    +0.011 C 
ATOM     14  C   UNL     1      34.081 -15.018 -23.918  0.00  0.00    +0.058 C 
ENDBRANCH   2   9
BRANCH   2  15
ATOM     15  O   UNL     1      35.615 -19.612 -23.187  0.00  0.00    -0.383 OA
ATOM     16  H   UNL     1      35.319 -20.503 -22.939  0.00  0.00    +0.211 HD
ENDBRANCH   2  15
BRANCH   1  17
ATOM     17  C   UNL     1      36.303 -21.513 -18.904  0.00  0.00    -0.077 C 
BRANCH  17  18
ATOM     18  C   UNL     1      35.147 -22.515 -18.912  0.00  0.00    -0.015 C 
BRANCH  18  19
ATOM     19  C   UNL     1      34.603 -22.785 -17.506  0.00  0.00    +0.067 C 
BRANCH  19  21
ATOM     20  O   UNL     1      32.379 -22.553 -18.416  0.00  0.00    -0.291 OA
ATOM     21  C   UNL     1      33.083 -22.818 -17.443  0.00  0.00    +0.173 C 
BRANCH  21  23
ATOM     22  F   UNL     1      30.635 -24.285 -12.644  0.00  0.00    -0.204 F 
ATOM     23  C   UNL     1      32.429 -23.208 -16.161  0.00  0.00    +0.035 C 
ATOM     24  C   UNL     1      31.055 -23.185 -16.087  0.00  0.00    +0.005 C 
ATOM     25  C   UNL     1      33.225 -23.579 -15.099  0.00  0.00    +0.005 C 
ATOM     26  C   UNL     1      30.443 -23.552 -14.888  0.00  0.00    +0.030 C 
ATOM     27  C   UNL     1      32.613 -23.946 -13.901  0.00  0.00    +0.030 C 
ATOM     28  C   UNL     1      31.222 -23.933 -13.795  0.00  0.00    +0.140 C 
ENDBRANCH  21  23
ENDBRANCH  19  21
ENDBRANCH  18  19
ENDBRANCH  17  18
ENDBRANCH   1  17
TORSDOF 7
ENDMDL
MODEL 9
REMARK VINA RESULT:     -10.2      5.398     10.860
REMARK  Name = 3559
REMARK  7 active torsions:
REMARK  status: ('A' for Active; 'I' for Inactive)
REMARK    1  A    between atoms: N_1  and  C_17
REMARK    2  A    between atoms: C_2  and  C_9
REMARK    3  A    between atoms: C_2  and  O_15
REMARK    4  A    between atoms: C_17  and  C_18
REMARK    5  A    between atoms: C_18  and  C_19
REMARK    6  A    between atoms: C_19  and  C_21
REMARK    7  A    between atoms: C_21  and  C_23
REMARK                            x       y       z     vdW  Elec       q    Type
REMARK                         _______ _______ _______ _____ _____    ______ ____
ROOT
ATOM      1  N   UNL     1      33.593 -15.212 -23.748  0.00  0.00    +0.387 N 
ATOM      2  C   UNL     1      33.649 -12.260 -23.423  0.00  0.00    +0.103 C 
ATOM      3  C   UNL     1      33.817 -13.259 -22.255  0.00  0.00    +0.008 C 
ATOM      4  C   UNL     1      32.914 -12.975 -24.580  0.00  0.00    +0.008 C 
ATOM      5  C   UNL     1      34.410 -14.603 -22.694  0.00  0.00    -0.075 C 
ATOM      6  C   UNL     1      33.516 -14.342 -24.927  0.00  0.00    -0.075 C 
ATOM      7  H   UNL     1      32.648 -15.333 -23.385  0.00  0.00    -0.080 HD
ENDROOT
BRANCH   2   9
ATOM      8 CL   UNL     1      30.835  -7.113 -21.994  0.00  0.00    -0.082 Cl
ATOM      9  C   UNL     1      32.937 -10.957 -23.060  0.00  0.00    +0.002 C 
ATOM     10  C   UNL     1      31.730 -10.993 -22.364  0.00  0.00    -0.001 C 
ATOM     11  C   UNL     1      33.495  -9.733 -23.426  0.00  0.00    -0.001 C 
ATOM     12  C   UNL     1      31.079  -9.804 -22.033  0.00  0.00    +0.011 C 
ATOM     13  C   UNL     1      32.845  -8.544 -23.096  0.00  0.00    +0.011 C 
ATOM     14  C   UNL     1      31.638  -8.580 -22.400  0.00  0.00    +0.058 C 
ENDBRANCH   2   9
BRANCH   2  15
ATOM     15  O   UNL     1      34.960 -11.871 -23.857  0.00  0.00    -0.383 OA
ATOM     16  H   UNL     1      35.596 -12.016 -23.138  0.00  0.00    +0.211 HD
ENDBRANCH   2  15
BRANCH   1  17
ATOM     17  C   UNL     1      34.124 -16.526 -24.114  0.00  0.00    -0.077 C 
BRANCH  17  18
ATOM     18  C   UNL     1      35.019 -17.064 -22.995  0.00  0.00    -0.015 C 
BRANCH  18  19
ATOM     19  C   UNL     1      34.945 -18.589 -22.876  0.00  0.00    +0.067 C 
BRANCH  19  21
ATOM     20  O   UNL     1      36.827 -18.806 -21.380  0.00  0.00    -0.291 OA
ATOM     21  C   UNL     1      35.676 -19.135 -21.657  0.00  0.00    +0.173 C 
BRANCH  21  23
ATOM     22  F   UNL     1      32.985 -22.691 -18.298  0.00  0.00    -0.204 F 
ATOM     23  C   UNL     1      34.957 -20.083 -20.759  0.00  0.00    +0.035 C 
ATOM     24  C   UNL     1      33.581 -20.062 -20.742  0.00  0.00    +0.005 C 
ATOM     25  C   UNL     1      35.697 -20.947 -19.981  0.00  0.00    +0.005 C 
ATOM     26  C   UNL     1      32.909 -20.951 -19.902  0.00  0.00    +0.030 C 
ATOM     27  C   UNL     1      35.025 -21.836 -19.143  0.00  0.00    +0.030 C 
ATOM     28  C   UNL     1      33.630 -21.838 -19.103  0.00  0.00    +0.140 C 
ENDBRANCH  21  23
ENDBRANCH  19  21
ENDBRANCH  18  19
ENDBRANCH  17  18
ENDBRANCH   1  17
TORSDOF 7
ENDMDL
