MODEL 1
REMARK VINA RESULT:     -12.2      0.000      0.000
REMARK  Name = 17758361
REMARK  5 active torsions:
REMARK  status: ('A' for Active; 'I' for Inactive)
REMARK    1  A    between atoms: N_1  and  C_18
REMARK    2  A    between atoms: C_4  and  C_10
REMARK    3  A    between atoms: C_10  and  C_11
REMARK    4  A    between atoms: C_18  and  C_19
REMARK    5  A    between atoms: C_22  and  C_27
REMARK                            x       y       z     vdW  Elec       q    Type
REMARK                         _______ _______ _______ _____ _____    ______ ____
ROOT
ATOM      1  N   UNL     1      34.808 -23.154 -17.335  0.00  0.00    -0.314 N 
ATOM      2  N   UNL     1      35.841 -23.917 -15.362  0.00  0.00    -0.229 NA
ATOM      3  C   UNL     1      34.722 -23.504 -15.998  0.00  0.00    +0.129 C 
ATOM      4  C   UNL     1      33.377 -23.757 -14.054  0.00  0.00    +0.043 C 
ATOM      5  C   UNL     1      33.478 -23.407 -15.395  0.00  0.00    +0.037 C 
ATOM      6  C   UNL     1      34.506 -24.187 -13.365  0.00  0.00    +0.024 C 
ATOM      7  C   UNL     1      35.704 -24.249 -14.059  0.00  0.00    +0.100 C 
ATOM      8  H   UNL     1      35.686 -23.218 -17.776  0.00  0.00    +0.149 HD
ENDROOT
BRANCH   4  10
ATOM      9  O   UNL     1      32.026 -23.219 -12.221  0.00  0.00    -0.287 OA
ATOM     10  C   UNL     1      32.095 -23.674 -13.371  0.00  0.00    +0.196 C 
BRANCH  10  11
ATOM     11  C   UNL     1      30.819 -24.125 -14.007  0.00  0.00    +0.039 C 
ATOM     12  C   UNL     1      30.011 -23.206 -14.678  0.00  0.00    -0.001 C 
ATOM     13  C   UNL     1      28.822 -23.627 -15.272  0.00  0.00    -0.022 C 
ATOM     14  C   UNL     1      30.438 -25.464 -13.931  0.00  0.00    +0.003 C 
ATOM     15  C   UNL     1      28.440 -24.967 -15.196  0.00  0.00    -0.004 C 
ATOM     16  C   UNL     1      29.248 -25.885 -14.526  0.00  0.00    -0.000 C 
ATOM     17  C   UNL     1      27.959 -22.647 -15.991  0.00  0.00    +0.031 C 
ENDBRANCH  10  11
ENDBRANCH   4  10
BRANCH   1  18
ATOM     18  C   UNL     1      33.679 -22.701 -18.118  0.00  0.00    +0.115 C 
BRANCH  18  19
ATOM     19  C   UNL     1      34.112 -21.734 -19.168  0.00  0.00    -0.003 C 
ATOM     20  C   UNL     1      33.159 -21.003 -19.878  0.00  0.00    -0.003 C 
ATOM     21  C   UNL     1      35.469 -21.561 -19.442  0.00  0.00    -0.003 C 
ATOM     22  C   UNL     1      34.920 -19.928 -21.134  0.00  0.00    +0.031 C 
ATOM     23  C   UNL     1      33.563 -20.101 -20.861  0.00  0.00    +0.002 C 
ATOM     24  C   UNL     1      35.873 -20.658 -20.425  0.00  0.00    +0.002 C 
BRANCH  22  27
ATOM     25  N   UNL     1      34.524 -18.689 -23.250  0.00  0.00    -0.343 N 
ATOM     26  N   UNL     1      36.519 -18.397 -22.068  0.00  0.00    -0.285 NA
ATOM     27  C   UNL     1      35.340 -18.986 -22.160  0.00  0.00    +0.117 C 
ATOM     28  H   UNL     1      34.828 -18.048 -23.932  0.00  0.00    +0.144 HD
ATOM     29  H   UNL     1      33.643 -19.120 -23.337  0.00  0.00    +0.144 HD
ATOM     30  H   UNL     1      36.805 -17.758 -22.761  0.00  0.00    +0.188 HD
ENDBRANCH  22  27
ENDBRANCH  18  19
ENDBRANCH   1  18
TORSDOF 5
ENDMDL
MODEL 2
REMARK VINA RESULT:     -12.1      5.343     10.714
REMARK  Name = 17758361
REMARK  5 active torsions:
REMARK  status: ('A' for Active; 'I' for Inactive)
REMARK    1  A    between atoms: N_1  and  C_18
REMARK    2  A    between atoms: C_4  and  C_10
REMARK    3  A    between atoms: C_10  and  C_11
REMARK    4  A    between atoms: C_18  and  C_19
REMARK    5  A    between atoms: C_22  and  C_27
REMARK                            x       y       z     vdW  Elec       q    Type
REMARK                         _______ _______ _______ _____ _____    ______ ____
ROOT
ATOM      1  N   UNL     1      35.697 -18.426 -22.947  0.00  0.00    -0.314 N 
ATOM      2  N   UNL     1      34.486 -17.157 -24.517  0.00  0.00    -0.229 NA
ATOM      3  C   UNL     1      35.014 -17.267 -23.277  0.00  0.00    +0.129 C 
ATOM      4  C   UNL     1      34.237 -15.118 -22.622  0.00  0.00    +0.043 C 
ATOM      5  C   UNL     1      34.919 -16.287 -22.303  0.00  0.00    +0.037 C 
ATOM      6  C   UNL     1      33.679 -14.967 -23.887  0.00  0.00    +0.024 C 
ATOM      7  C   UNL     1      33.830 -16.007 -24.790  0.00  0.00    +0.100 C 
ATOM      8  H   UNL     1      35.772 -19.132 -23.629  0.00  0.00    +0.149 HD
ENDROOT
BRANCH   4  10
ATOM      9  O   UNL     1      34.860 -14.019 -20.653  0.00  0.00    -0.287 OA
ATOM     10  C   UNL     1      34.107 -14.055 -21.637  0.00  0.00    +0.196 C 
BRANCH  10  11
ATOM     11  C   UNL     1      33.083 -12.974 -21.756  0.00  0.00    +0.039 C 
ATOM     12  C   UNL     1      33.275 -11.927 -22.658  0.00  0.00    -0.001 C 
ATOM     13  C   UNL     1      32.318 -10.919 -22.769  0.00  0.00    -0.022 C 
ATOM     14  C   UNL     1      31.934 -13.013 -20.966  0.00  0.00    +0.003 C 
ATOM     15  C   UNL     1      31.168 -10.958 -21.980  0.00  0.00    -0.004 C 
ATOM     16  C   UNL     1      30.976 -12.005 -21.079  0.00  0.00    -0.000 C 
ATOM     17  C   UNL     1      32.521  -9.801 -23.735  0.00  0.00    +0.031 C 
ENDBRANCH  10  11
ENDBRANCH   4  10
BRANCH   1  18
ATOM     18  C   UNL     1      36.305 -18.655 -21.655  0.00  0.00    +0.115 C 
BRANCH  18  19
ATOM     19  C   UNL     1      35.564 -19.704 -20.895  0.00  0.00    -0.003 C 
ATOM     20  C   UNL     1      34.172 -19.756 -20.956  0.00  0.00    -0.003 C 
ATOM     21  C   UNL     1      36.264 -20.631 -20.121  0.00  0.00    -0.003 C 
ATOM     22  C   UNL     1      34.179 -21.662 -19.472  0.00  0.00    +0.031 C 
ATOM     23  C   UNL     1      33.479 -20.735 -20.245  0.00  0.00    +0.002 C 
ATOM     24  C   UNL     1      35.571 -21.610 -19.410  0.00  0.00    +0.002 C 
BRANCH  22  27
ATOM     25  N   UNL     1      32.314 -22.372 -17.993  0.00  0.00    -0.343 N 
ATOM     26  N   UNL     1      33.881 -23.933 -18.746  0.00  0.00    -0.285 NA
ATOM     27  C   UNL     1      33.455 -22.683 -18.731  0.00  0.00    +0.117 C 
ATOM     28  H   UNL     1      31.840 -23.079 -17.498  0.00  0.00    +0.144 HD
ATOM     29  H   UNL     1      31.983 -21.445 -17.966  0.00  0.00    +0.144 HD
ATOM     30  H   UNL     1      33.393 -24.626 -18.246  0.00  0.00    +0.188 HD
ENDBRANCH  22  27
ENDBRANCH  18  19
ENDBRANCH   1  18
TORSDOF 5
ENDMDL
MODEL 3
REMARK VINA RESULT:     -12.1      1.659      4.454
REMARK  Name = 17758361
REMARK  5 active torsions:
REMARK  status: ('A' for Active; 'I' for Inactive)
REMARK    1  A    between atoms: N_1  and  C_18
REMARK    2  A    between atoms: C_4  and  C_10
REMARK    3  A    between atoms: C_10  and  C_11
REMARK    4  A    between atoms: C_18  and  C_19
REMARK    5  A    between atoms: C_22  and  C_27
REMARK                            x       y       z     vdW  Elec       q    Type
REMARK                         _______ _______ _______ _____ _____    ______ ____
ROOT
ATOM      1  N   UNL     1      32.511 -22.715 -17.977  0.00  0.00    -0.314 N 
ATOM      2  N   UNL     1      30.615 -22.763 -16.584  0.00  0.00    -0.229 NA
ATOM      3  C   UNL     1      31.920 -23.058 -16.773  0.00  0.00    +0.129 C 
ATOM      4  C   UNL     1      32.138 -24.035 -14.616  0.00  0.00    +0.043 C 
ATOM      5  C   UNL     1      32.719 -23.686 -15.830  0.00  0.00    +0.037 C 
ATOM      6  C   UNL     1      30.797 -23.748 -14.384  0.00  0.00    +0.024 C 
ATOM      7  C   UNL     1      30.085 -23.117 -15.392  0.00  0.00    +0.100 C 
ATOM      8  H   UNL     1      31.956 -22.269 -18.657  0.00  0.00    +0.149 HD
ENDROOT
BRANCH   4  10
ATOM      9  O   UNL     1      32.375 -25.340 -12.690  0.00  0.00    -0.287 OA
ATOM     10  C   UNL     1      32.930 -24.696 -13.590  0.00  0.00    +0.196 C 
BRANCH  10  11
ATOM     11  C   UNL     1      34.423 -24.634 -13.568  0.00  0.00    +0.039 C 
ATOM     12  C   UNL     1      35.078 -23.955 -12.540  0.00  0.00    -0.001 C 
ATOM     13  C   UNL     1      36.471 -23.898 -12.519  0.00  0.00    -0.022 C 
ATOM     14  C   UNL     1      35.161 -25.256 -14.574  0.00  0.00    +0.003 C 
ATOM     15  C   UNL     1      37.210 -24.521 -13.526  0.00  0.00    -0.004 C 
ATOM     16  C   UNL     1      36.555 -25.200 -14.553  0.00  0.00    -0.000 C 
ATOM     17  C   UNL     1      37.173 -23.175 -11.419  0.00  0.00    +0.031 C 
ENDBRANCH  10  11
ENDBRANCH   4  10
BRANCH   1  18
ATOM     18  C   UNL     1      33.899 -22.978 -18.291  0.00  0.00    +0.115 C 
BRANCH  18  19
ATOM     19  C   UNL     1      34.473 -21.884 -19.128  0.00  0.00    -0.003 C 
ATOM     20  C   UNL     1      35.852 -21.679 -19.154  0.00  0.00    -0.003 C 
ATOM     21  C   UNL     1      33.631 -21.067 -19.883  0.00  0.00    -0.003 C 
ATOM     22  C   UNL     1      35.549 -19.839 -20.690  0.00  0.00    +0.031 C 
ATOM     23  C   UNL     1      36.390 -20.656 -19.935  0.00  0.00    +0.002 C 
ATOM     24  C   UNL     1      34.169 -20.045 -20.664  0.00  0.00    +0.002 C 
BRANCH  22  27
ATOM     25  N   UNL     1      37.467 -18.740 -21.822  0.00  0.00    -0.343 N 
ATOM     26  N   UNL     1      35.328 -17.807 -21.954  0.00  0.00    -0.285 NA
ATOM     27  C   UNL     1      36.110 -18.773 -21.504  0.00  0.00    +0.117 C 
ATOM     28  H   UNL     1      37.826 -18.009 -22.374  0.00  0.00    +0.144 HD
ATOM     29  H   UNL     1      38.066 -19.449 -21.493  0.00  0.00    +0.144 HD
ATOM     30  H   UNL     1      35.706 -17.085 -22.505  0.00  0.00    +0.188 HD
ENDBRANCH  22  27
ENDBRANCH  18  19
ENDBRANCH   1  18
TORSDOF 5
ENDMDL
MODEL 4
REMARK VINA RESULT:     -11.8      1.679      4.506
REMARK  Name = 17758361
REMARK  5 active torsions:
REMARK  status: ('A' for Active; 'I' for Inactive)
REMARK    1  A    between atoms: N_1  and  C_18
REMARK    2  A    between atoms: C_4  and  C_10
REMARK    3  A    between atoms: C_10  and  C_11
REMARK    4  A    between atoms: C_18  and  C_19
REMARK    5  A    between atoms: C_22  and  C_27
REMARK                            x       y       z     vdW  Elec       q    Type
REMARK                         _______ _______ _______ _____ _____    ______ ____
ROOT
ATOM      1  N   UNL     1      32.446 -22.920 -18.040  0.00  0.00    -0.314 N 
ATOM      2  N   UNL     1      30.751 -22.928 -16.408  0.00  0.00    -0.229 NA
ATOM      3  C   UNL     1      32.045 -23.143 -16.734  0.00  0.00    +0.129 C 
ATOM      4  C   UNL     1      32.620 -23.802 -14.523  0.00  0.00    +0.043 C 
ATOM      5  C   UNL     1      33.010 -23.575 -15.839  0.00  0.00    +0.037 C 
ATOM      6  C   UNL     1      31.297 -23.592 -14.149  0.00  0.00    +0.024 C 
ATOM      7  C   UNL     1      30.409 -23.158 -15.120  0.00  0.00    +0.100 C 
ATOM      8  H   UNL     1      31.771 -22.613 -18.688  0.00  0.00    +0.149 HD
ENDROOT
BRANCH   4  10
ATOM      9  O   UNL     1      33.238 -24.511 -12.382  0.00  0.00    -0.287 OA
ATOM     10  C   UNL     1      33.593 -24.256 -13.541  0.00  0.00    +0.196 C 
BRANCH  10  11
ATOM     11  C   UNL     1      35.039 -24.435 -13.871  0.00  0.00    +0.039 C 
ATOM     12  C   UNL     1      35.522 -25.693 -14.233  0.00  0.00    -0.001 C 
ATOM     13  C   UNL     1      36.872 -25.859 -14.541  0.00  0.00    -0.022 C 
ATOM     14  C   UNL     1      35.906 -23.344 -13.818  0.00  0.00    +0.003 C 
ATOM     15  C   UNL     1      37.739 -24.768 -14.488  0.00  0.00    -0.004 C 
ATOM     16  C   UNL     1      37.256 -23.510 -14.127  0.00  0.00    -0.000 C 
ATOM     17  C   UNL     1      37.388 -27.203 -14.931  0.00  0.00    +0.031 C 
ENDBRANCH  10  11
ENDBRANCH   4  10
BRANCH   1  18
ATOM     18  C   UNL     1      33.802 -23.114 -18.505  0.00  0.00    +0.115 C 
BRANCH  18  19
ATOM     19  C   UNL     1      34.285 -21.919 -19.256  0.00  0.00    -0.003 C 
ATOM     20  C   UNL     1      33.371 -21.079 -19.893  0.00  0.00    -0.003 C 
ATOM     21  C   UNL     1      35.651 -21.641 -19.323  0.00  0.00    -0.003 C 
ATOM     22  C   UNL     1      35.188 -19.686 -20.663  0.00  0.00    +0.031 C 
ATOM     23  C   UNL     1      33.823 -19.963 -20.597  0.00  0.00    +0.002 C 
ATOM     24  C   UNL     1      36.102 -20.525 -20.026  0.00  0.00    +0.002 C 
BRANCH  22  27
ATOM     25  N   UNL     1      36.468 -18.652 -22.523  0.00  0.00    -0.343 N 
ATOM     26  N   UNL     1      35.317 -17.310 -20.995  0.00  0.00    -0.285 NA
ATOM     27  C   UNL     1      35.657 -18.521 -21.397  0.00  0.00    +0.117 C 
ATOM     28  H   UNL     1      36.774 -17.850 -23.005  0.00  0.00    +0.144 HD
ATOM     29  H   UNL     1      36.735 -19.547 -22.836  0.00  0.00    +0.144 HD
ATOM     30  H   UNL     1      35.633 -16.520 -21.490  0.00  0.00    +0.188 HD
ENDBRANCH  22  27
ENDBRANCH  18  19
ENDBRANCH   1  18
TORSDOF 5
ENDMDL
MODEL 5
REMARK VINA RESULT:     -11.4      5.462      9.329
REMARK  Name = 17758361
REMARK  5 active torsions:
REMARK  status: ('A' for Active; 'I' for Inactive)
REMARK    1  A    between atoms: N_1  and  C_18
REMARK    2  A    between atoms: C_4  and  C_10
REMARK    3  A    between atoms: C_10  and  C_11
REMARK    4  A    between atoms: C_18  and  C_19
REMARK    5  A    between atoms: C_22  and  C_27
REMARK                            x       y       z     vdW  Elec       q    Type
REMARK                         _______ _______ _______ _____ _____    ______ ____
ROOT
ATOM      1  N   UNL     1      34.411 -15.849 -23.979  0.00  0.00    -0.314 N 
ATOM      2  N   UNL     1      33.975 -18.068 -24.631  0.00  0.00    -0.229 NA
ATOM      3  C   UNL     1      34.542 -17.209 -23.755  0.00  0.00    +0.129 C 
ATOM      4  C   UNL     1      35.392 -18.964 -22.395  0.00  0.00    +0.043 C 
ATOM      5  C   UNL     1      35.254 -17.601 -22.633  0.00  0.00    +0.037 C 
ATOM      6  C   UNL     1      34.823 -19.879 -23.274  0.00  0.00    +0.024 C 
ATOM      7  C   UNL     1      34.130 -19.384 -24.367  0.00  0.00    +0.100 C 
ATOM      8  H   UNL     1      33.909 -15.555 -24.773  0.00  0.00    +0.149 HD
ENDROOT
BRANCH   4  10
ATOM      9  O   UNL     1      37.285 -19.038 -21.023  0.00  0.00    -0.287 OA
ATOM     10  C   UNL     1      36.129 -19.432 -21.231  0.00  0.00    +0.196 C 
BRANCH  10  11
ATOM     11  C   UNL     1      35.544 -20.392 -20.246  0.00  0.00    +0.039 C 
ATOM     12  C   UNL     1      36.351 -20.953 -19.255  0.00  0.00    -0.001 C 
ATOM     13  C   UNL     1      35.804 -21.847 -18.336  0.00  0.00    -0.022 C 
ATOM     14  C   UNL     1      34.192 -20.725 -20.317  0.00  0.00    +0.003 C 
ATOM     15  C   UNL     1      34.451 -22.181 -18.406  0.00  0.00    -0.004 C 
ATOM     16  C   UNL     1      33.646 -21.620 -19.396  0.00  0.00    -0.000 C 
ATOM     17  C   UNL     1      36.665 -22.445 -17.274  0.00  0.00    +0.031 C 
ENDBRANCH  10  11
ENDBRANCH   4  10
BRANCH   1  18
ATOM     18  C   UNL     1      34.973 -14.837 -23.111  0.00  0.00    +0.115 C 
BRANCH  18  19
ATOM     19  C   UNL     1      33.954 -13.803 -22.767  0.00  0.00    -0.003 C 
ATOM     20  C   UNL     1      33.834 -12.655 -23.550  0.00  0.00    -0.003 C 
ATOM     21  C   UNL     1      33.123 -13.983 -21.661  0.00  0.00    -0.003 C 
ATOM     22  C   UNL     1      32.051 -11.868 -22.123  0.00  0.00    +0.031 C 
ATOM     23  C   UNL     1      32.883 -11.688 -23.228  0.00  0.00    +0.002 C 
ATOM     24  C   UNL     1      32.171 -13.016 -21.339  0.00  0.00    +0.002 C 
BRANCH  22  27
ATOM     25  N   UNL     1      31.083  -9.595 -22.375  0.00  0.00    -0.343 N 
ATOM     26  N   UNL     1      30.114 -11.133 -20.906  0.00  0.00    -0.285 NA
ATOM     27  C   UNL     1      31.060 -10.859 -21.787  0.00  0.00    +0.117 C 
ATOM     28  H   UNL     1      30.402  -8.927 -22.133  0.00  0.00    +0.144 HD
ATOM     29  H   UNL     1      31.782  -9.371 -23.032  0.00  0.00    +0.144 HD
ATOM     30  H   UNL     1      29.441 -10.451 -20.678  0.00  0.00    +0.188 HD
ENDBRANCH  22  27
ENDBRANCH  18  19
ENDBRANCH   1  18
TORSDOF 5
ENDMDL
MODEL 6
REMARK VINA RESULT:     -11.3      1.092      2.021
REMARK  Name = 17758361
REMARK  5 active torsions:
REMARK  status: ('A' for Active; 'I' for Inactive)
REMARK    1  A    between atoms: N_1  and  C_18
REMARK    2  A    between atoms: C_4  and  C_10
REMARK    3  A    between atoms: C_10  and  C_11
REMARK    4  A    between atoms: C_18  and  C_19
REMARK    5  A    between atoms: C_22  and  C_27
REMARK                            x       y       z     vdW  Elec       q    Type
REMARK                         _______ _______ _______ _____ _____    ______ ____
ROOT
ATOM      1  N   UNL     1      35.885 -22.590 -17.177  0.00  0.00    -0.314 N 
ATOM      2  N   UNL     1      37.193 -22.993 -15.262  0.00  0.00    -0.229 NA
ATOM      3  C   UNL     1      35.983 -23.018 -15.864  0.00  0.00    +0.129 C 
ATOM      4  C   UNL     1      34.903 -23.886 -13.932  0.00  0.00    +0.043 C 
ATOM      5  C   UNL     1      34.819 -23.451 -15.250  0.00  0.00    +0.037 C 
ATOM      6  C   UNL     1      36.130 -23.874 -13.278  0.00  0.00    +0.024 C 
ATOM      7  C   UNL     1      37.235 -23.423 -13.981  0.00  0.00    +0.100 C 
ATOM      8  H   UNL     1      36.704 -22.279 -17.627  0.00  0.00    +0.149 HD
ENDROOT
BRANCH   4  10
ATOM      9  O   UNL     1      33.811 -24.957 -12.162  0.00  0.00    -0.287 OA
ATOM     10  C   UNL     1      33.712 -24.352 -13.238  0.00  0.00    +0.196 C 
BRANCH  10  11
ATOM     11  C   UNL     1      32.335 -24.130 -13.775  0.00  0.00    +0.039 C 
ATOM     12  C   UNL     1      31.411 -25.176 -13.780  0.00  0.00    -0.001 C 
ATOM     13  C   UNL     1      30.126 -24.968 -14.279  0.00  0.00    -0.022 C 
ATOM     14  C   UNL     1      31.973 -22.877 -14.269  0.00  0.00    +0.003 C 
ATOM     15  C   UNL     1      29.763 -23.715 -14.774  0.00  0.00    -0.004 C 
ATOM     16  C   UNL     1      30.687 -22.670 -14.769  0.00  0.00    -0.000 C 
ATOM     17  C   UNL     1      29.137 -26.084 -14.282  0.00  0.00    +0.031 C 
ENDBRANCH  10  11
ENDBRANCH   4  10
BRANCH   1  18
ATOM     18  C   UNL     1      34.646 -22.574 -17.924  0.00  0.00    +0.115 C 
BRANCH  18  19
ATOM     19  C   UNL     1      34.731 -21.635 -19.080  0.00  0.00    -0.003 C 
ATOM     20  C   UNL     1      35.977 -21.239 -19.565  0.00  0.00    -0.003 C 
ATOM     21  C   UNL     1      33.565 -21.152 -19.674  0.00  0.00    -0.003 C 
ATOM     22  C   UNL     1      34.892 -19.877 -21.239  0.00  0.00    +0.031 C 
ATOM     23  C   UNL     1      36.057 -20.360 -20.645  0.00  0.00    +0.002 C 
ATOM     24  C   UNL     1      33.646 -20.273 -20.754  0.00  0.00    +0.002 C 
BRANCH  22  27
ATOM     25  N   UNL     1      34.188 -19.132 -23.501  0.00  0.00    -0.343 N 
ATOM     26  N   UNL     1      35.818 -17.943 -22.323  0.00  0.00    -0.285 NA
ATOM     27  C   UNL     1      34.977 -18.961 -22.365  0.00  0.00    +0.117 C 
ATOM     28  H   UNL     1      34.261 -18.499 -24.252  0.00  0.00    +0.144 HD
ATOM     29  H   UNL     1      33.557 -19.886 -23.553  0.00  0.00    +0.144 HD
ATOM     30  H   UNL     1      35.877 -17.321 -23.084  0.00  0.00    +0.188 HD
ENDBRANCH  22  27
ENDBRANCH  18  19
ENDBRANCH   1  18
TORSDOF 5
ENDMDL
MODEL 7
REMARK VINA RESULT:     -11.2      2.374      3.896
REMARK  Name = 17758361
REMARK  5 active torsions:
REMARK  status: ('A' for Active; 'I' for Inactive)
REMARK    1  A    between atoms: N_1  and  C_18
REMARK    2  A    between atoms: C_4  and  C_10
REMARK    3  A    between atoms: C_10  and  C_11
REMARK    4  A    between atoms: C_18  and  C_19
REMARK    5  A    between atoms: C_22  and  C_27
REMARK                            x       y       z     vdW  Elec       q    Type
REMARK                         _______ _______ _______ _____ _____    ______ ____
ROOT
ATOM      1  N   UNL     1      36.103 -20.520 -20.119  0.00  0.00    -0.314 N 
ATOM      2  N   UNL     1      36.979 -21.005 -17.989  0.00  0.00    -0.229 NA
ATOM      3  C   UNL     1      36.018 -21.205 -18.919  0.00  0.00    +0.129 C 
ATOM      4  C   UNL     1      34.845 -22.756 -17.551  0.00  0.00    +0.043 C 
ATOM      5  C   UNL     1      34.942 -22.061 -18.751  0.00  0.00    +0.037 C 
ATOM      6  C   UNL     1      35.814 -22.577 -16.569  0.00  0.00    +0.024 C 
ATOM      7  C   UNL     1      36.852 -21.698 -16.836  0.00  0.00    +0.100 C 
ATOM      8  H   UNL     1      36.862 -19.908 -20.253  0.00  0.00    +0.149 HD
ENDROOT
BRANCH   4  10
ATOM      9  O   UNL     1      33.488 -24.569 -18.136  0.00  0.00    -0.287 OA
ATOM     10  C   UNL     1      33.736 -23.668 -17.321  0.00  0.00    +0.196 C 
BRANCH  10  11
ATOM     11  C   UNL     1      32.855 -23.570 -16.118  0.00  0.00    +0.039 C 
ATOM     12  C   UNL     1      31.500 -23.269 -16.267  0.00  0.00    -0.001 C 
ATOM     13  C   UNL     1      30.678 -23.179 -15.145  0.00  0.00    -0.022 C 
ATOM     14  C   UNL     1      33.386 -23.782 -14.847  0.00  0.00    +0.003 C 
ATOM     15  C   UNL     1      31.210 -23.391 -13.872  0.00  0.00    -0.004 C 
ATOM     16  C   UNL     1      32.563 -23.692 -13.723  0.00  0.00    -0.000 C 
ATOM     17  C   UNL     1      29.230 -22.860 -15.304  0.00  0.00    +0.031 C 
ENDBRANCH  10  11
ENDBRANCH   4  10
BRANCH   1  18
ATOM     18  C   UNL     1      35.136 -20.655 -21.187  0.00  0.00    +0.115 C 
BRANCH  18  19
ATOM     19  C   UNL     1      34.973 -19.369 -21.925  0.00  0.00    -0.003 C 
ATOM     20  C   UNL     1      35.316 -18.164 -21.311  0.00  0.00    -0.003 C 
ATOM     21  C   UNL     1      34.477 -19.370 -23.229  0.00  0.00    -0.003 C 
ATOM     22  C   UNL     1      34.667 -16.963 -23.303  0.00  0.00    +0.031 C 
ATOM     23  C   UNL     1      35.163 -16.962 -22.000  0.00  0.00    +0.002 C 
ATOM     24  C   UNL     1      34.325 -18.167 -23.918  0.00  0.00    +0.002 C 
BRANCH  22  27
ATOM     25  N   UNL     1      34.577 -14.482 -23.363  0.00  0.00    -0.343 N 
ATOM     26  N   UNL     1      34.288 -15.719 -25.324  0.00  0.00    -0.285 NA
ATOM     27  C   UNL     1      34.508 -15.708 -24.021  0.00  0.00    +0.117 C 
ATOM     28  H   UNL     1      34.467 -13.644 -23.868  0.00  0.00    +0.144 HD
ATOM     29  H   UNL     1      34.737 -14.453 -22.391  0.00  0.00    +0.144 HD
ATOM     30  H   UNL     1      34.180 -14.871 -25.812  0.00  0.00    +0.188 HD
ENDBRANCH  22  27
ENDBRANCH  18  19
ENDBRANCH   1  18
TORSDOF 5
ENDMDL
MODEL 8
REMARK VINA RESULT:     -11.1      3.079      5.007
REMARK  Name = 17758361
REMARK  5 active torsions:
REMARK  status: ('A' for Active; 'I' for Inactive)
REMARK    1  A    between atoms: N_1  and  C_18
REMARK    2  A    between atoms: C_4  and  C_10
REMARK    3  A    between atoms: C_10  and  C_11
REMARK    4  A    between atoms: C_18  and  C_19
REMARK    5  A    between atoms: C_22  and  C_27
REMARK                            x       y       z     vdW  Elec       q    Type
REMARK                         _______ _______ _______ _____ _____    ______ ____
ROOT
ATOM      1  N   UNL     1      34.727 -21.867 -19.183  0.00  0.00    -0.314 N 
ATOM      2  N   UNL     1      33.402 -23.062 -17.647  0.00  0.00    -0.229 NA
ATOM      3  C   UNL     1      34.594 -22.508 -17.962  0.00  0.00    +0.129 C 
ATOM      4  C   UNL     1      35.587 -23.175 -15.907  0.00  0.00    +0.043 C 
ATOM      5  C   UNL     1      35.706 -22.536 -17.136  0.00  0.00    +0.037 C 
ATOM      6  C   UNL     1      34.377 -23.757 -15.547  0.00  0.00    +0.024 C 
ATOM      7  C   UNL     1      33.324 -23.674 -16.444  0.00  0.00    +0.100 C 
ATOM      8  H   UNL     1      33.944 -21.840 -19.780  0.00  0.00    +0.149 HD
ENDROOT
BRANCH   4  10
ATOM      9  O   UNL     1      37.658 -22.429 -15.117  0.00  0.00    -0.287 OA
ATOM     10  C   UNL     1      36.723 -23.234 -15.001  0.00  0.00    +0.196 C 
BRANCH  10  11
ATOM     11  C   UNL     1      36.821 -24.245 -13.905  0.00  0.00    +0.039 C 
ATOM     12  C   UNL     1      36.341 -23.942 -12.630  0.00  0.00    -0.001 C 
ATOM     13  C   UNL     1      36.432 -24.887 -11.608  0.00  0.00    -0.022 C 
ATOM     14  C   UNL     1      37.391 -25.493 -14.157  0.00  0.00    +0.003 C 
ATOM     15  C   UNL     1      37.002 -26.135 -11.861  0.00  0.00    -0.004 C 
ATOM     16  C   UNL     1      37.481 -26.438 -13.135  0.00  0.00    -0.000 C 
ATOM     17  C   UNL     1      35.917 -24.565 -10.246  0.00  0.00    +0.031 C 
ENDBRANCH  10  11
ENDBRANCH   4  10
BRANCH   1  18
ATOM     18  C   UNL     1      35.950 -21.238 -19.627  0.00  0.00    +0.115 C 
BRANCH  18  19
ATOM     19  C   UNL     1      35.674 -20.218 -20.680  0.00  0.00    -0.003 C 
ATOM     20  C   UNL     1      34.471 -20.252 -21.385  0.00  0.00    -0.003 C 
ATOM     21  C   UNL     1      36.619 -19.231 -20.962  0.00  0.00    -0.003 C 
ATOM     22  C   UNL     1      35.157 -18.313 -22.652  0.00  0.00    +0.031 C 
ATOM     23  C   UNL     1      34.213 -19.300 -22.371  0.00  0.00    +0.002 C 
ATOM     24  C   UNL     1      36.361 -18.279 -21.947  0.00  0.00    +0.002 C 
BRANCH  22  27
ATOM     25  N   UNL     1      35.267 -15.990 -23.521  0.00  0.00    -0.343 N 
ATOM     26  N   UNL     1      34.266 -17.677 -24.790  0.00  0.00    -0.285 NA
ATOM     27  C   UNL     1      34.887 -17.321 -23.680  0.00  0.00    +0.117 C 
ATOM     28  H   UNL     1      35.075 -15.334 -24.230  0.00  0.00    +0.144 HD
ATOM     29  H   UNL     1      35.729 -15.704 -22.699  0.00  0.00    +0.144 HD
ATOM     30  H   UNL     1      34.082 -17.007 -25.488  0.00  0.00    +0.188 HD
ENDBRANCH  22  27
ENDBRANCH  18  19
ENDBRANCH   1  18
TORSDOF 5
ENDMDL
MODEL 9
REMARK VINA RESULT:     -10.9      3.817      7.109
REMARK  Name = 17758361
REMARK  5 active torsions:
REMARK  status: ('A' for Active; 'I' for Inactive)
REMARK    1  A    between atoms: N_1  and  C_18
REMARK    2  A    between atoms: C_4  and  C_10
REMARK    3  A    between atoms: C_10  and  C_11
REMARK    4  A    between atoms: C_18  and  C_19
REMARK    5  A    between atoms: C_22  and  C_27
REMARK                            x       y       z     vdW  Elec       q    Type
REMARK                         _______ _______ _______ _____ _____    ______ ____
ROOT
ATOM      1  N   UNL     1      34.217 -24.296 -12.703  0.00  0.00    -0.314 N 
ATOM      2  N   UNL     1      32.135 -25.359 -12.979  0.00  0.00    -0.229 NA
ATOM      3  C   UNL     1      33.047 -24.465 -13.423  0.00  0.00    +0.129 C 
ATOM      4  C   UNL     1      31.719 -23.858 -15.300  0.00  0.00    +0.043 C 
ATOM      5  C   UNL     1      32.889 -23.697 -14.566  0.00  0.00    +0.037 C 
ATOM      6  C   UNL     1      30.757 -24.768 -14.875  0.00  0.00    +0.024 C 
ATOM      7  C   UNL     1      31.011 -25.488 -13.718  0.00  0.00    +0.100 C 
ATOM      8  H   UNL     1      34.343 -24.834 -11.888  0.00  0.00    +0.149 HD
ENDROOT
BRANCH   4  10
ATOM      9  O   UNL     1      30.358 -22.713 -16.819  0.00  0.00    -0.287 OA
ATOM     10  C   UNL     1      31.501 -23.078 -16.508  0.00  0.00    +0.196 C 
BRANCH  10  11
ATOM     11  C   UNL     1      32.619 -22.683 -17.419  0.00  0.00    +0.039 C 
ATOM     12  C   UNL     1      32.375 -21.825 -18.492  0.00  0.00    -0.001 C 
ATOM     13  C   UNL     1      33.418 -21.457 -19.341  0.00  0.00    -0.022 C 
ATOM     14  C   UNL     1      33.905 -23.172 -17.195  0.00  0.00    +0.003 C 
ATOM     15  C   UNL     1      34.705 -21.945 -19.116  0.00  0.00    -0.004 C 
ATOM     16  C   UNL     1      34.949 -22.802 -18.044  0.00  0.00    -0.000 C 
ATOM     17  C   UNL     1      33.159 -20.537 -20.486  0.00  0.00    +0.031 C 
ENDBRANCH  10  11
ENDBRANCH   4  10
BRANCH   1  18
ATOM     18  C   UNL     1      35.264 -23.372 -13.081  0.00  0.00    +0.115 C 
BRANCH  18  19
ATOM     19  C   UNL     1      36.518 -24.099 -13.433  0.00  0.00    -0.003 C 
ATOM     20  C   UNL     1      37.172 -23.819 -14.632  0.00  0.00    -0.003 C 
ATOM     21  C   UNL     1      37.034 -25.061 -12.564  0.00  0.00    -0.003 C 
ATOM     22  C   UNL     1      38.860 -25.461 -14.094  0.00  0.00    +0.031 C 
ATOM     23  C   UNL     1      38.343 -24.501 -14.962  0.00  0.00    +0.002 C 
ATOM     24  C   UNL     1      38.206 -25.741 -12.894  0.00  0.00    +0.002 C 
BRANCH  22  27
ATOM     25  N   UNL     1      40.830 -26.841 -13.472  0.00  0.00    -0.343 N 
ATOM     26  N   UNL     1      40.503 -26.184 -15.691  0.00  0.00    -0.285 NA
ATOM     27  C   UNL     1      40.082 -26.170 -14.439  0.00  0.00    +0.117 C 
ATOM     28  H   UNL     1      41.654 -27.315 -13.728  0.00  0.00    +0.144 HD
ATOM     29  H   UNL     1      40.533 -26.840 -12.533  0.00  0.00    +0.144 HD
ATOM     30  H   UNL     1      41.330 -26.664 -15.927  0.00  0.00    +0.188 HD
ENDBRANCH  22  27
ENDBRANCH  18  19
ENDBRANCH   1  18
TORSDOF 5
ENDMDL
