MODEL 1
REMARK VINA RESULT:     -12.2      0.000      0.000
REMARK  Name = 9969613
REMARK  5 active torsions:
REMARK  status: ('A' for Active; 'I' for Inactive)
REMARK    1  A    between atoms: C_3  and  O_7
REMARK    2  A    between atoms: C_4  and  O_17
REMARK    3  A    between atoms: O_7  and  C_13
REMARK    4  A    between atoms: O_17  and  C_21
REMARK    5  A    between atoms: C_18  and  N_24
REMARK                            x       y       z     vdW  Elec       q    Type
REMARK                         _______ _______ _______ _____ _____    ______ ____
ROOT
ATOM      1  N   UNL     1      34.574 -23.461 -16.272  0.00  0.00    -0.283 NA
ATOM      2  N   UNL     1      32.219 -23.419 -16.781  0.00  0.00    -0.151 NA
ATOM      3  C   UNL     1      34.246 -23.315 -14.979  0.00  0.00    +0.296 C 
ATOM      4  C   UNL     1      33.522 -23.505 -17.112  0.00  0.00    +0.260 C 
ATOM      5  C   UNL     1      32.963 -23.214 -14.501  0.00  0.00    +0.094 C 
ATOM      6  C   UNL     1      31.974 -23.273 -15.462  0.00  0.00    +0.119 C 
ENDROOT
BRANCH   3   7
ATOM      7  O   UNL     1      35.296 -23.264 -14.077  0.00  0.00    -0.427 OA
BRANCH   7  13
ATOM      8  O   UNL     1      39.854 -24.772 -14.529  0.00  0.00    -0.435 OA
ATOM      9  O   UNL     1      39.193 -27.085 -14.393  0.00  0.00    -0.435 OA
ATOM     10  C   UNL     1      38.509 -24.917 -14.379  0.00  0.00    +0.179 C 
ATOM     11  C   UNL     1      38.131 -26.238 -14.301  0.00  0.00    +0.177 C 
ATOM     12  C   UNL     1      37.587 -23.894 -14.308  0.00  0.00    +0.078 C 
ATOM     13  C   UNL     1      36.242 -24.241 -14.152  0.00  0.00    +0.151 C 
ATOM     14  C   UNL     1      36.810 -26.608 -14.148  0.00  0.00    +0.043 C 
ATOM     15  C   UNL     1      40.280 -26.149 -14.536  0.00  0.00    +0.429 C 
ATOM     16  C   UNL     1      35.856 -25.590 -14.074  0.00  0.00    +0.041 C 
ENDBRANCH   7  13
ENDBRANCH   3   7
BRANCH   4  17
ATOM     17  O   UNL     1      33.808 -23.655 -18.449  0.00  0.00    -0.383 OA
BRANCH  17  21
ATOM     18  C   UNL     1      34.594 -20.202 -20.615  0.00  0.00    +0.057 C 
ATOM     19  C   UNL     1      33.278 -20.560 -20.327  0.00  0.00    +0.018 C 
ATOM     20  C   UNL     1      35.648 -21.005 -20.175  0.00  0.00    +0.018 C 
ATOM     21  C   UNL     1      34.069 -22.508 -19.168  0.00  0.00    +0.160 C 
ATOM     22  C   UNL     1      33.014 -21.720 -19.599  0.00  0.00    +0.040 C 
ATOM     23  C   UNL     1      35.383 -22.165 -19.447  0.00  0.00    +0.040 C 
BRANCH  18  24
ATOM     24  N   UNL     1      34.857 -19.052 -21.337  0.00  0.00    -0.246 N 
ATOM     25  N   UNL     1      35.083 -17.688 -23.085  0.00  0.00    -0.224 NA
ATOM     26  C   UNL     1      35.248 -17.840 -20.829  0.00  0.00    +0.092 C 
ATOM     27  C   UNL     1      34.773 -18.906 -22.698  0.00  0.00    +0.172 C 
ATOM     28  C   UNL     1      35.381 -17.018 -21.924  0.00  0.00    +0.117 C 
ENDBRANCH  18  24
ENDBRANCH  17  21
ENDBRANCH   4  17
TORSDOF 5
ENDMDL
MODEL 2
REMARK VINA RESULT:     -12.1      2.742      5.417
REMARK  Name = 9969613
REMARK  5 active torsions:
REMARK  status: ('A' for Active; 'I' for Inactive)
REMARK    1  A    between atoms: C_3  and  O_7
REMARK    2  A    between atoms: C_4  and  O_17
REMARK    3  A    between atoms: O_7  and  C_13
REMARK    4  A    between atoms: O_17  and  C_21
REMARK    5  A    between atoms: C_18  and  N_24
REMARK                            x       y       z     vdW  Elec       q    Type
REMARK                         _______ _______ _______ _____ _____    ______ ____
ROOT
ATOM      1  N   UNL     1      33.389 -23.713 -16.113  0.00  0.00    -0.283 NA
ATOM      2  N   UNL     1      35.618 -22.916 -16.570  0.00  0.00    -0.151 NA
ATOM      3  C   UNL     1      33.655 -23.552 -14.806  0.00  0.00    +0.296 C 
ATOM      4  C   UNL     1      34.406 -23.379 -16.931  0.00  0.00    +0.260 C 
ATOM      5  C   UNL     1      34.843 -23.090 -14.298  0.00  0.00    +0.094 C 
ATOM      6  C   UNL     1      35.803 -22.783 -15.239  0.00  0.00    +0.119 C 
ENDROOT
BRANCH   3   7
ATOM      7  O   UNL     1      32.639 -23.883 -13.925  0.00  0.00    -0.427 OA
BRANCH   7  13
ATOM      8  O   UNL     1      28.893 -22.350 -16.546  0.00  0.00    -0.435 OA
ATOM      9  O   UNL     1      27.609 -24.320 -16.021  0.00  0.00    -0.435 OA
ATOM     10  C   UNL     1      29.572 -23.209 -15.739  0.00  0.00    +0.179 C 
ATOM     11  C   UNL     1      28.840 -24.336 -15.439  0.00  0.00    +0.177 C 
ATOM     12  C   UNL     1      30.848 -23.023 -15.249  0.00  0.00    +0.078 C 
ATOM     13  C   UNL     1      31.382 -24.023 -14.431  0.00  0.00    +0.151 C 
ATOM     14  C   UNL     1      29.343 -25.337 -14.633  0.00  0.00    +0.043 C 
ATOM     15  C   UNL     1      27.650 -23.060 -16.721  0.00  0.00    +0.429 C 
ATOM     16  C   UNL     1      30.633 -25.172 -14.124  0.00  0.00    +0.041 C 
ENDBRANCH   7  13
ENDBRANCH   3   7
BRANCH   4  17
ATOM     17  O   UNL     1      34.182 -23.527 -18.280  0.00  0.00    -0.383 OA
BRANCH  17  21
ATOM     18  C   UNL     1      34.712 -20.172 -20.667  0.00  0.00    +0.057 C 
ATOM     19  C   UNL     1      33.430 -20.549 -20.269  0.00  0.00    +0.018 C 
ATOM     20  C   UNL     1      35.817 -20.922 -20.262  0.00  0.00    +0.018 C 
ATOM     21  C   UNL     1      34.358 -22.412 -19.073  0.00  0.00    +0.160 C 
ATOM     22  C   UNL     1      33.252 -21.677 -19.467  0.00  0.00    +0.040 C 
ATOM     23  C   UNL     1      35.638 -22.049 -19.460  0.00  0.00    +0.040 C 
BRANCH  18  24
ATOM     24  N   UNL     1      34.890 -19.054 -21.461  0.00  0.00    -0.246 N 
ATOM     25  N   UNL     1      34.948 -17.775 -23.286  0.00  0.00    -0.224 NA
ATOM     26  C   UNL     1      35.286 -17.809 -21.044  0.00  0.00    +0.092 C 
ATOM     27  C   UNL     1      34.699 -18.978 -22.818  0.00  0.00    +0.172 C 
ATOM     28  C   UNL     1      35.315 -17.041 -22.185  0.00  0.00    +0.117 C 
ENDBRANCH  18  24
ENDBRANCH  17  21
ENDBRANCH   4  17
TORSDOF 5
ENDMDL
MODEL 3
REMARK VINA RESULT:     -11.7      4.355      8.305
REMARK  Name = 9969613
REMARK  5 active torsions:
REMARK  status: ('A' for Active; 'I' for Inactive)
REMARK    1  A    between atoms: C_3  and  O_7
REMARK    2  A    between atoms: C_4  and  O_17
REMARK    3  A    between atoms: O_7  and  C_13
REMARK    4  A    between atoms: O_17  and  C_21
REMARK    5  A    between atoms: C_18  and  N_24
REMARK                            x       y       z     vdW  Elec       q    Type
REMARK                         _______ _______ _______ _____ _____    ______ ____
ROOT
ATOM      1  N   UNL     1      35.541 -17.737 -22.573  0.00  0.00    -0.283 NA
ATOM      2  N   UNL     1      34.193 -17.706 -24.571  0.00  0.00    -0.151 NA
ATOM      3  C   UNL     1      35.243 -19.040 -22.454  0.00  0.00    +0.296 C 
ATOM      4  C   UNL     1      34.988 -17.136 -23.645  0.00  0.00    +0.260 C 
ATOM      5  C   UNL     1      34.448 -19.747 -23.321  0.00  0.00    +0.094 C 
ATOM      6  C   UNL     1      33.942 -19.018 -24.378  0.00  0.00    +0.119 C 
ENDROOT
BRANCH   3   7
ATOM      7  O   UNL     1      35.790 -19.701 -21.366  0.00  0.00    -0.427 OA
BRANCH   7  13
ATOM      8  O   UNL     1      34.872 -23.061 -18.030  0.00  0.00    -0.435 OA
ATOM      9  O   UNL     1      32.507 -22.607 -18.101  0.00  0.00    -0.435 OA
ATOM     10  C   UNL     1      34.561 -22.078 -18.918  0.00  0.00    +0.179 C 
ATOM     11  C   UNL     1      33.209 -21.818 -18.958  0.00  0.00    +0.177 C 
ATOM     12  C   UNL     1      35.455 -21.388 -19.710  0.00  0.00    +0.078 C 
ATOM     13  C   UNL     1      34.945 -20.408 -20.565  0.00  0.00    +0.151 C 
ATOM     14  C   UNL     1      32.679 -20.855 -19.793  0.00  0.00    +0.043 C 
ATOM     15  C   UNL     1      33.567 -23.391 -17.516  0.00  0.00    +0.429 C 
ATOM     16  C   UNL     1      33.565 -20.144 -20.607  0.00  0.00    +0.041 C 
ENDBRANCH   7  13
ENDBRANCH   3   7
BRANCH   4  17
ATOM     17  O   UNL     1      35.265 -15.799 -23.811  0.00  0.00    -0.383 OA
BRANCH  17  21
ATOM     18  C   UNL     1      32.847 -13.098 -21.789  0.00  0.00    +0.057 C 
ATOM     19  C   UNL     1      32.880 -13.097 -23.183  0.00  0.00    +0.018 C 
ATOM     20  C   UNL     1      33.627 -14.007 -21.073  0.00  0.00    +0.018 C 
ATOM     21  C   UNL     1      34.462 -14.903 -23.139  0.00  0.00    +0.160 C 
ATOM     22  C   UNL     1      33.692 -14.005 -23.862  0.00  0.00    +0.040 C 
ATOM     23  C   UNL     1      34.440 -14.915 -21.753  0.00  0.00    +0.040 C 
BRANCH  18  24
ATOM     24  N   UNL     1      32.042 -12.198 -21.115  0.00  0.00    -0.246 N 
ATOM     25  N   UNL     1      31.239 -10.953 -19.450  0.00  0.00    -0.224 NA
ATOM     26  C   UNL     1      30.983 -11.499 -21.635  0.00  0.00    +0.092 C 
ATOM     27  C   UNL     1      32.153 -11.832 -19.797  0.00  0.00    +0.172 C 
ATOM     28  C   UNL     1      30.506 -10.742 -20.591  0.00  0.00    +0.117 C 
ENDBRANCH  18  24
ENDBRANCH  17  21
ENDBRANCH   4  17
TORSDOF 5
ENDMDL
MODEL 4
REMARK VINA RESULT:     -11.4      1.481      2.220
REMARK  Name = 9969613
REMARK  5 active torsions:
REMARK  status: ('A' for Active; 'I' for Inactive)
REMARK    1  A    between atoms: C_3  and  O_7
REMARK    2  A    between atoms: C_4  and  O_17
REMARK    3  A    between atoms: O_7  and  C_13
REMARK    4  A    between atoms: O_17  and  C_21
REMARK    5  A    between atoms: C_18  and  N_24
REMARK                            x       y       z     vdW  Elec       q    Type
REMARK                         _______ _______ _______ _____ _____    ______ ____
ROOT
ATOM      1  N   UNL     1      35.970 -22.458 -17.172  0.00  0.00    -0.283 NA
ATOM      2  N   UNL     1      34.403 -22.398 -19.003  0.00  0.00    -0.151 NA
ATOM      3  C   UNL     1      34.991 -22.982 -16.418  0.00  0.00    +0.296 C 
ATOM      4  C   UNL     1      35.611 -22.192 -18.443  0.00  0.00    +0.260 C 
ATOM      5  C   UNL     1      33.717 -23.244 -16.856  0.00  0.00    +0.094 C 
ATOM      6  C   UNL     1      33.475 -22.927 -18.177  0.00  0.00    +0.119 C 
ENDROOT
BRANCH   3   7
ATOM      7  O   UNL     1      35.313 -23.272 -15.102  0.00  0.00    -0.427 OA
BRANCH   7  13
ATOM      8  O   UNL     1      39.805 -24.842 -14.320  0.00  0.00    -0.435 OA
ATOM      9  O   UNL     1      39.073 -27.134 -14.193  0.00  0.00    -0.435 OA
ATOM     10  C   UNL     1      38.461 -24.966 -14.495  0.00  0.00    +0.179 C 
ATOM     11  C   UNL     1      38.042 -26.275 -14.421  0.00  0.00    +0.177 C 
ATOM     12  C   UNL     1      37.575 -23.933 -14.721  0.00  0.00    +0.078 C 
ATOM     13  C   UNL     1      36.225 -24.258 -14.877  0.00  0.00    +0.151 C 
ATOM     14  C   UNL     1      36.715 -26.623 -14.572  0.00  0.00    +0.043 C 
ATOM     15  C   UNL     1      40.186 -26.219 -14.129  0.00  0.00    +0.429 C 
ATOM     16  C   UNL     1      35.798 -25.595 -14.804  0.00  0.00    +0.041 C 
ENDBRANCH   7  13
ENDBRANCH   3   7
BRANCH   4  17
ATOM     17  O   UNL     1      36.581 -21.654 -19.256  0.00  0.00    -0.383 OA
BRANCH  17  21
ATOM     18  C   UNL     1      35.411 -18.647 -21.868  0.00  0.00    +0.057 C 
ATOM     19  C   UNL     1      36.704 -18.652 -21.343  0.00  0.00    +0.018 C 
ATOM     20  C   UNL     1      34.511 -19.654 -21.514  0.00  0.00    +0.018 C 
ATOM     21  C   UNL     1      36.192 -20.656 -20.123  0.00  0.00    +0.160 C 
ATOM     22  C   UNL     1      37.096 -19.663 -20.466  0.00  0.00    +0.040 C 
ATOM     23  C   UNL     1      34.905 -20.664 -20.636  0.00  0.00    +0.040 C 
BRANCH  18  24
ATOM     24  N   UNL     1      35.021 -17.646 -22.738  0.00  0.00    -0.246 N 
ATOM     25  N   UNL     1      34.256 -16.666 -24.587  0.00  0.00    -0.224 NA
ATOM     26  C   UNL     1      35.032 -16.297 -22.490  0.00  0.00    +0.092 C 
ATOM     27  C   UNL     1      34.545 -17.813 -24.013  0.00  0.00    +0.172 C 
ATOM     28  C   UNL     1      34.558 -15.717 -23.643  0.00  0.00    +0.117 C 
ENDBRANCH  18  24
ENDBRANCH  17  21
ENDBRANCH   4  17
TORSDOF 5
ENDMDL
MODEL 5
REMARK VINA RESULT:     -11.0      3.125      5.457
REMARK  Name = 9969613
REMARK  5 active torsions:
REMARK  status: ('A' for Active; 'I' for Inactive)
REMARK    1  A    between atoms: C_3  and  O_7
REMARK    2  A    between atoms: C_4  and  O_17
REMARK    3  A    between atoms: O_7  and  C_13
REMARK    4  A    between atoms: O_17  and  C_21
REMARK    5  A    between atoms: C_18  and  N_24
REMARK                            x       y       z     vdW  Elec       q    Type
REMARK                         _______ _______ _______ _____ _____    ______ ____
ROOT
ATOM      1  N   UNL     1      35.441 -21.364 -19.613  0.00  0.00    -0.283 NA
ATOM      2  N   UNL     1      33.694 -20.062 -20.644  0.00  0.00    -0.151 NA
ATOM      3  C   UNL     1      34.480 -22.067 -18.992  0.00  0.00    +0.296 C 
ATOM      4  C   UNL     1      34.982 -20.386 -20.417  0.00  0.00    +0.260 C 
ATOM      5  C   UNL     1      33.133 -21.847 -19.130  0.00  0.00    +0.094 C 
ATOM      6  C   UNL     1      32.792 -20.817 -19.982  0.00  0.00    +0.119 C 
ENDROOT
BRANCH   3   7
ATOM      7  O   UNL     1      34.904 -23.085 -18.153  0.00  0.00    -0.427 OA
BRANCH   7  13
ATOM      8  O   UNL     1      30.982 -23.898 -15.468  0.00  0.00    -0.435 OA
ATOM      9  O   UNL     1      32.232 -23.673 -13.421  0.00  0.00    -0.435 OA
ATOM     10  C   UNL     1      32.298 -23.633 -15.693  0.00  0.00    +0.179 C 
ATOM     11  C   UNL     1      33.013 -23.505 -14.523  0.00  0.00    +0.177 C 
ATOM     12  C   UNL     1      32.898 -23.499 -16.928  0.00  0.00    +0.078 C 
ATOM     13  C   UNL     1      34.268 -23.226 -16.957  0.00  0.00    +0.151 C 
ATOM     14  C   UNL     1      34.366 -23.235 -14.525  0.00  0.00    +0.043 C 
ATOM     15  C   UNL     1      30.948 -23.922 -14.028  0.00  0.00    +0.429 C 
ATOM     16  C   UNL     1      34.997 -23.094 -15.763  0.00  0.00    +0.041 C 
ENDBRANCH   7  13
ENDBRANCH   3   7
BRANCH   4  17
ATOM     17  O   UNL     1      35.929 -19.637 -21.076  0.00  0.00    -0.383 OA
BRANCH  17  21
ATOM     18  C   UNL     1      34.591 -16.326 -23.192  0.00  0.00    +0.057 C 
ATOM     19  C   UNL     1      34.722 -17.557 -23.834  0.00  0.00    +0.018 C 
ATOM     20  C   UNL     1      34.909 -16.207 -21.839  0.00  0.00    +0.018 C 
ATOM     21  C   UNL     1      35.484 -18.538 -21.778  0.00  0.00    +0.160 C 
ATOM     22  C   UNL     1      35.172 -18.670 -23.122  0.00  0.00    +0.040 C 
ATOM     23  C   UNL     1      35.358 -17.320 -21.128  0.00  0.00    +0.040 C 
BRANCH  18  24
ATOM     24  N   UNL     1      34.145 -15.223 -23.897  0.00  0.00    -0.246 N 
ATOM     25  N   UNL     1      33.656 -13.099 -24.363  0.00  0.00    -0.224 NA
ATOM     26  C   UNL     1      33.625 -15.219 -25.166  0.00  0.00    +0.092 C 
ATOM     27  C   UNL     1      34.142 -13.922 -23.460  0.00  0.00    +0.172 C 
ATOM     28  C   UNL     1      33.332 -13.901 -25.428  0.00  0.00    +0.117 C 
ENDBRANCH  18  24
ENDBRANCH  17  21
ENDBRANCH   4  17
TORSDOF 5
ENDMDL
MODEL 6
REMARK VINA RESULT:     -10.7      4.839      8.577
REMARK  Name = 9969613
REMARK  5 active torsions:
REMARK  status: ('A' for Active; 'I' for Inactive)
REMARK    1  A    between atoms: C_3  and  O_7
REMARK    2  A    between atoms: C_4  and  O_17
REMARK    3  A    between atoms: O_7  and  C_13
REMARK    4  A    between atoms: O_17  and  C_21
REMARK    5  A    between atoms: C_18  and  N_24
REMARK                            x       y       z     vdW  Elec       q    Type
REMARK                         _______ _______ _______ _____ _____    ______ ____
ROOT
ATOM      1  N   UNL     1      35.368 -17.228 -23.108  0.00  0.00    -0.283 NA
ATOM      2  N   UNL     1      33.852 -17.940 -24.841  0.00  0.00    -0.151 NA
ATOM      3  C   UNL     1      35.354 -18.489 -22.648  0.00  0.00    +0.296 C 
ATOM      4  C   UNL     1      34.602 -17.025 -24.197  0.00  0.00    +0.260 C 
ATOM      5  C   UNL     1      34.638 -19.520 -23.204  0.00  0.00    +0.094 C 
ATOM      6  C   UNL     1      33.894 -19.182 -24.316  0.00  0.00    +0.119 C 
ENDROOT
BRANCH   3   7
ATOM      7  O   UNL     1      36.127 -18.747 -21.528  0.00  0.00    -0.427 OA
BRANCH   7  13
ATOM      8  O   UNL     1      32.800 -21.474 -19.349  0.00  0.00    -0.435 OA
ATOM      9  O   UNL     1      34.484 -22.857 -18.320  0.00  0.00    -0.435 OA
ATOM     10  C   UNL     1      34.061 -21.083 -19.679  0.00  0.00    +0.179 C 
ATOM     11  C   UNL     1      35.024 -21.874 -19.092  0.00  0.00    +0.177 C 
ATOM     12  C   UNL     1      34.394 -20.027 -20.501  0.00  0.00    +0.078 C 
ATOM     13  C   UNL     1      35.751 -19.779 -20.723  0.00  0.00    +0.151 C 
ATOM     14  C   UNL     1      36.370 -21.650 -19.294  0.00  0.00    +0.043 C 
ATOM     15  C   UNL     1      33.075 -22.597 -18.489  0.00  0.00    +0.429 C 
ATOM     16  C   UNL     1      36.733 -20.585 -20.122  0.00  0.00    +0.041 C 
ENDBRANCH   7  13
ENDBRANCH   3   7
BRANCH   4  17
ATOM     17  O   UNL     1      34.584 -15.747 -24.706  0.00  0.00    -0.383 OA
BRANCH  17  21
ATOM     18  C   UNL     1      32.808 -12.805 -22.377  0.00  0.00    +0.057 C 
ATOM     19  C   UNL     1      32.981 -12.601 -23.746  0.00  0.00    +0.018 C 
ATOM     20  C   UNL     1      33.232 -13.998 -21.790  0.00  0.00    +0.018 C 
ATOM     21  C   UNL     1      33.994 -14.770 -23.932  0.00  0.00    +0.160 C 
ATOM     22  C   UNL     1      33.577 -13.590 -24.528  0.00  0.00    +0.040 C 
ATOM     23  C   UNL     1      33.829 -14.986 -22.573  0.00  0.00    +0.040 C 
BRANCH  18  24
ATOM     24  N   UNL     1      32.217 -11.825 -21.601  0.00  0.00    -0.246 N 
ATOM     25  N   UNL     1      31.334  -9.859 -21.032  0.00  0.00    -0.224 NA
ATOM     26  C   UNL     1      31.845 -11.938 -20.286  0.00  0.00    +0.092 C 
ATOM     27  C   UNL     1      31.886 -10.555 -22.001  0.00  0.00    +0.172 C 
ATOM     28  C   UNL     1      31.305 -10.715 -19.960  0.00  0.00    +0.117 C 
ENDBRANCH  18  24
ENDBRANCH  17  21
ENDBRANCH   4  17
TORSDOF 5
ENDMDL
MODEL 7
REMARK VINA RESULT:     -10.6      3.623     10.005
REMARK  Name = 9969613
REMARK  5 active torsions:
REMARK  status: ('A' for Active; 'I' for Inactive)
REMARK    1  A    between atoms: C_3  and  O_7
REMARK    2  A    between atoms: C_4  and  O_17
REMARK    3  A    between atoms: O_7  and  C_13
REMARK    4  A    between atoms: O_17  and  C_21
REMARK    5  A    between atoms: C_18  and  N_24
REMARK                            x       y       z     vdW  Elec       q    Type
REMARK                         _______ _______ _______ _____ _____    ______ ____
ROOT
ATOM      1  N   UNL     1      35.761 -20.551 -20.243  0.00  0.00    -0.283 NA
ATOM      2  N   UNL     1      33.607 -21.375 -19.543  0.00  0.00    -0.151 NA
ATOM      3  C   UNL     1      35.118 -19.764 -21.121  0.00  0.00    +0.296 C 
ATOM      4  C   UNL     1      34.952 -21.324 -19.493  0.00  0.00    +0.260 C 
ATOM      5  C   UNL     1      33.755 -19.714 -21.278  0.00  0.00    +0.094 C 
ATOM      6  C   UNL     1      33.039 -20.553 -20.451  0.00  0.00    +0.119 C 
ENDROOT
BRANCH   3   7
ATOM      7  O   UNL     1      35.909 -18.950 -21.915  0.00  0.00    -0.427 OA
BRANCH   7  13
ATOM      8  O   UNL     1      33.873 -16.286 -25.382  0.00  0.00    -0.435 OA
ATOM      9  O   UNL     1      33.680 -14.380 -23.922  0.00  0.00    -0.435 OA
ATOM     10  C   UNL     1      34.360 -16.538 -24.136  0.00  0.00    +0.179 C 
ATOM     11  C   UNL     1      34.249 -15.449 -23.301  0.00  0.00    +0.177 C 
ATOM     12  C   UNL     1      34.911 -17.728 -23.707  0.00  0.00    +0.078 C 
ATOM     13  C   UNL     1      35.358 -17.796 -22.384  0.00  0.00    +0.151 C 
ATOM     14  C   UNL     1      34.684 -15.490 -21.992  0.00  0.00    +0.043 C 
ATOM     15  C   UNL     1      33.444 -14.918 -25.239  0.00  0.00    +0.429 C 
ATOM     16  C   UNL     1      35.246 -16.684 -21.533  0.00  0.00    +0.041 C 
ENDBRANCH   7  13
ENDBRANCH   3   7
BRANCH   4  17
ATOM     17  O   UNL     1      35.565 -22.148 -18.578  0.00  0.00    -0.383 OA
BRANCH  17  21
ATOM     18  C   UNL     1      33.214 -23.646 -15.503  0.00  0.00    +0.057 C 
ATOM     19  C   UNL     1      34.525 -23.246 -15.247  0.00  0.00    +0.018 C 
ATOM     20  C   UNL     1      32.692 -23.543 -16.793  0.00  0.00    +0.018 C 
ATOM     21  C   UNL     1      34.784 -22.645 -17.557  0.00  0.00    +0.160 C 
ATOM     22  C   UNL     1      35.315 -22.743 -16.281  0.00  0.00    +0.040 C 
ATOM     23  C   UNL     1      33.483 -23.039 -17.827  0.00  0.00    +0.040 C 
BRANCH  18  24
ATOM     24  N   UNL     1      32.430 -24.145 -14.479  0.00  0.00    -0.246 N 
ATOM     25  N   UNL     1      31.839 -25.335 -12.690  0.00  0.00    -0.224 NA
ATOM     26  C   UNL     1      31.125 -23.817 -14.214  0.00  0.00    +0.092 C 
ATOM     27  C   UNL     1      32.811 -25.062 -13.532  0.00  0.00    +0.172 C 
ATOM     28  C   UNL     1      30.785 -24.562 -13.110  0.00  0.00    +0.117 C 
ENDBRANCH  18  24
ENDBRANCH  17  21
ENDBRANCH   4  17
TORSDOF 5
ENDMDL
MODEL 8
REMARK VINA RESULT:     -10.6      6.583     12.718
REMARK  Name = 9969613
REMARK  5 active torsions:
REMARK  status: ('A' for Active; 'I' for Inactive)
REMARK    1  A    between atoms: C_3  and  O_7
REMARK    2  A    between atoms: C_4  and  O_17
REMARK    3  A    between atoms: O_7  and  C_13
REMARK    4  A    between atoms: O_17  and  C_21
REMARK    5  A    between atoms: C_18  and  N_24
REMARK                            x       y       z     vdW  Elec       q    Type
REMARK                         _______ _______ _______ _____ _____    ______ ____
ROOT
ATOM      1  N   UNL     1      34.409 -15.147 -23.207  0.00  0.00    -0.283 NA
ATOM      2  N   UNL     1      33.913 -15.654 -25.511  0.00  0.00    -0.151 NA
ATOM      3  C   UNL     1      33.599 -14.082 -23.320  0.00  0.00    +0.296 C 
ATOM      4  C   UNL     1      34.520 -15.883 -24.330  0.00  0.00    +0.260 C 
ATOM      5  C   UNL     1      32.920 -13.730 -24.460  0.00  0.00    +0.094 C 
ATOM      6  C   UNL     1      33.117 -14.564 -25.540  0.00  0.00    +0.119 C 
ENDROOT
BRANCH   3   7
ATOM      7  O   UNL     1      33.454 -13.294 -22.190  0.00  0.00    -0.427 OA
BRANCH   7  13
ATOM      8  O   UNL     1      32.860  -8.825 -23.902  0.00  0.00    -0.435 OA
ATOM      9  O   UNL     1      30.746  -8.582 -22.773  0.00  0.00    -0.435 OA
ATOM     10  C   UNL     1      32.523  -9.936 -23.192  0.00  0.00    +0.179 C 
ATOM     11  C   UNL     1      31.314  -9.797 -22.547  0.00  0.00    +0.177 C 
ATOM     12  C   UNL     1      33.267 -11.093 -23.095  0.00  0.00    +0.078 C 
ATOM     13  C   UNL     1      32.754 -12.133 -22.315  0.00  0.00    +0.151 C 
ATOM     14  C   UNL     1      30.785 -10.808 -21.770  0.00  0.00    +0.043 C 
ATOM     15  C   UNL     1      31.730  -7.972 -23.632  0.00  0.00    +0.429 C 
ATOM     16  C   UNL     1      31.521 -11.990 -21.656  0.00  0.00    +0.041 C 
ENDBRANCH   7  13
ENDBRANCH   3   7
BRANCH   4  17
ATOM     17  O   UNL     1      35.338 -16.986 -24.263  0.00  0.00    -0.383 OA
BRANCH  17  21
ATOM     18  C   UNL     1      34.534 -19.764 -21.285  0.00  0.00    +0.057 C 
ATOM     19  C   UNL     1      33.925 -19.885 -22.534  0.00  0.00    +0.018 C 
ATOM     20  C   UNL     1      35.413 -18.710 -21.036  0.00  0.00    +0.018 C 
ATOM     21  C   UNL     1      35.071 -17.909 -23.274  0.00  0.00    +0.160 C 
ATOM     22  C   UNL     1      34.196 -18.951 -23.534  0.00  0.00    +0.040 C 
ATOM     23  C   UNL     1      35.684 -17.776 -22.037  0.00  0.00    +0.040 C 
BRANCH  18  24
ATOM     24  N   UNL     1      34.266 -20.689 -20.292  0.00  0.00    -0.246 N 
ATOM     25  N   UNL     1      33.103 -21.950 -18.869  0.00  0.00    -0.224 NA
ATOM     26  C   UNL     1      35.186 -21.436 -19.602  0.00  0.00    +0.092 C 
ATOM     27  C   UNL     1      33.029 -21.038 -19.813  0.00  0.00    +0.172 C 
ATOM     28  C   UNL     1      34.445 -22.202 -18.733  0.00  0.00    +0.117 C 
ENDBRANCH  18  24
ENDBRANCH  17  21
ENDBRANCH   4  17
TORSDOF 5
ENDMDL
MODEL 9
REMARK VINA RESULT:     -10.5      3.780     10.067
REMARK  Name = 9969613
REMARK  5 active torsions:
REMARK  status: ('A' for Active; 'I' for Inactive)
REMARK    1  A    between atoms: C_3  and  O_7
REMARK    2  A    between atoms: C_4  and  O_17
REMARK    3  A    between atoms: O_7  and  C_13
REMARK    4  A    between atoms: O_17  and  C_21
REMARK    5  A    between atoms: C_18  and  N_24
REMARK                            x       y       z     vdW  Elec       q    Type
REMARK                         _______ _______ _______ _____ _____    ______ ____
ROOT
ATOM      1  N   UNL     1      36.385 -19.870 -19.979  0.00  0.00    -0.283 NA
ATOM      2  N   UNL     1      34.678 -21.537 -19.633  0.00  0.00    -0.151 NA
ATOM      3  C   UNL     1      35.468 -19.141 -20.635  0.00  0.00    +0.296 C 
ATOM      4  C   UNL     1      35.926 -21.046 -19.508  0.00  0.00    +0.260 C 
ATOM      5  C   UNL     1      34.164 -19.517 -20.836  0.00  0.00    +0.094 C 
ATOM      6  C   UNL     1      33.818 -20.742 -20.306  0.00  0.00    +0.119 C 
ENDROOT
BRANCH   3   7
ATOM      7  O   UNL     1      35.894 -17.923 -21.138  0.00  0.00    -0.427 OA
BRANCH   7  13
ATOM      8  O   UNL     1      33.971 -14.405 -23.819  0.00  0.00    -0.435 OA
ATOM      9  O   UNL     1      33.466 -15.932 -25.613  0.00  0.00    -0.435 OA
ATOM     10  C   UNL     1      34.355 -15.680 -23.537  0.00  0.00    +0.179 C 
ATOM     11  C   UNL     1      34.068 -16.552 -24.562  0.00  0.00    +0.177 C 
ATOM     12  C   UNL     1      34.967 -16.103 -22.374  0.00  0.00    +0.078 C 
ATOM     13  C   UNL     1      35.289 -17.459 -22.267  0.00  0.00    +0.151 C 
ATOM     14  C   UNL     1      34.375 -17.895 -24.481  0.00  0.00    +0.043 C 
ATOM     15  C   UNL     1      33.409 -14.572 -25.136  0.00  0.00    +0.429 C 
ATOM     16  C   UNL     1      34.994 -18.349 -23.313  0.00  0.00    +0.041 C 
ENDBRANCH   7  13
ENDBRANCH   3   7
BRANCH   4  17
ATOM     17  O   UNL     1      36.829 -21.829 -18.827  0.00  0.00    -0.383 OA
BRANCH  17  21
ATOM     18  C   UNL     1      35.708 -23.178 -15.064  0.00  0.00    +0.057 C 
ATOM     19  C   UNL     1      37.011 -22.731 -15.286  0.00  0.00    +0.018 C 
ATOM     20  C   UNL     1      34.782 -23.171 -16.108  0.00  0.00    +0.018 C 
ATOM     21  C   UNL     1      36.456 -22.277 -17.578  0.00  0.00    +0.160 C 
ATOM     22  C   UNL     1      37.387 -22.278 -16.550  0.00  0.00    +0.040 C 
ATOM     23  C   UNL     1      35.159 -22.718 -17.372  0.00  0.00    +0.040 C 
BRANCH  18  24
ATOM     24  N   UNL     1      35.334 -23.626 -13.811  0.00  0.00    -0.246 N 
ATOM     25  N   UNL     1      34.058 -24.458 -12.184  0.00  0.00    -0.224 NA
ATOM     26  C   UNL     1      36.126 -23.681 -12.692  0.00  0.00    +0.092 C 
ATOM     27  C   UNL     1      34.101 -24.106 -13.450  0.00  0.00    +0.172 C 
ATOM     28  C   UNL     1      35.317 -24.195 -11.706  0.00  0.00    +0.117 C 
ENDBRANCH  18  24
ENDBRANCH  17  21
ENDBRANCH   4  17
TORSDOF 5
ENDMDL
