MODEL 1
REMARK VINA RESULT:     -11.9      0.000      0.000
REMARK  Name = 445770
REMARK  5 active torsions:
REMARK  status: ('A' for Active; 'I' for Inactive)
REMARK    1  A    between atoms: N_2  and  C_17
REMARK    2  A    between atoms: C_3  and  C_5
REMARK    3  A    between atoms: C_6  and  S_11
REMARK    4  A    between atoms: S_11  and  N_14
REMARK    5  A    between atoms: C_17  and  C_23
REMARK                            x       y       z     vdW  Elec       q    Type
REMARK                         _______ _______ _______ _____ _____    ______ ____
ROOT
ATOM      1  O   UNL     1      37.150 -18.742 -21.525  0.00  0.00    -0.270 OA
ATOM      2  N   UNL     1      35.034 -18.176 -22.282  0.00  0.00    -0.297 N 
ATOM      3  C   UNL     1      35.920 -18.927 -21.503  0.00  0.00    +0.246 C 
ATOM      4  H   UNL     1      34.071 -18.375 -22.217  0.00  0.00    +0.150 HD
ENDROOT
BRANCH   3   5
ATOM      5  C   UNL     1      35.345 -19.971 -20.669  0.00  0.00    +0.053 C 
ATOM      6  C   UNL     1      34.242 -21.972 -19.070  0.00  0.00    +0.122 C 
ATOM      7  C   UNL     1      36.177 -20.801 -19.919  0.00  0.00    +0.006 C 
ATOM      8  C   UNL     1      33.961 -20.141 -20.621  0.00  0.00    +0.006 C 
ATOM      9  C   UNL     1      35.625 -21.802 -19.119  0.00  0.00    +0.020 C 
ATOM     10  C   UNL     1      33.410 -21.142 -19.820  0.00  0.00    +0.020 C 
BRANCH   6  11
ATOM     11  S   UNL     1      33.551 -23.224 -18.068  0.00  0.00    +0.057 S 
ATOM     12  O   UNL     1      33.695 -24.500 -18.756  0.00  0.00    -0.153 OA
ATOM     13  O   UNL     1      32.235 -22.786 -17.627  0.00  0.00    -0.153 OA
BRANCH  11  14
ATOM     14  N   UNL     1      34.617 -23.197 -16.732  0.00  0.00    -0.203 NA
ATOM     15  H   UNL     1      34.420 -23.992 -16.125  0.00  0.00    +0.144 HD
ATOM     16  H   UNL     1      34.486 -22.330 -16.211  0.00  0.00    +0.144 HD
ENDBRANCH  11  14
ENDBRANCH   6  11
ENDBRANCH   3   5
BRANCH   2  17
ATOM     17  C   UNL     1      35.453 -17.121 -23.178  0.00  0.00    +0.121 C 
BRANCH  17  23
ATOM     18  F   UNL     1      34.141 -15.891 -25.356  0.00  0.00    -0.202 F 
ATOM     19  F   UNL     1      35.041 -15.847 -20.695  0.00  0.00    -0.202 F 
ATOM     20  F   UNL     1      33.504 -13.611 -20.426  0.00  0.00    -0.199 F 
ATOM     21  F   UNL     1      32.602 -13.658 -25.074  0.00  0.00    -0.199 F 
ATOM     22  F   UNL     1      32.282 -12.515 -22.611  0.00  0.00    -0.199 F 
ATOM     23  C   UNL     1      34.603 -15.888 -23.028  0.00  0.00    +0.057 A 
ATOM     24  C   UNL     1      33.988 -15.339 -24.145  0.00  0.00    +0.170 A 
ATOM     25  C   UNL     1      34.447 -15.316 -21.773  0.00  0.00    +0.170 A 
ATOM     26  C   UNL     1      33.660 -14.173 -21.631  0.00  0.00    +0.197 A 
ATOM     27  C   UNL     1      33.202 -14.196 -24.004  0.00  0.00    +0.197 A 
ATOM     28  C   UNL     1      33.037 -13.612 -22.747  0.00  0.00    +0.199 A 
ENDBRANCH  17  23
ENDBRANCH   2  17
TORSDOF 5
ENDMDL
MODEL 2
REMARK VINA RESULT:     -11.8      0.051      2.338
REMARK  Name = 445770
REMARK  5 active torsions:
REMARK  status: ('A' for Active; 'I' for Inactive)
REMARK    1  A    between atoms: N_2  and  C_17
REMARK    2  A    between atoms: C_3  and  C_5
REMARK    3  A    between atoms: C_6  and  S_11
REMARK    4  A    between atoms: S_11  and  N_14
REMARK    5  A    between atoms: C_17  and  C_23
REMARK                            x       y       z     vdW  Elec       q    Type
REMARK                         _______ _______ _______ _____ _____    ______ ____
ROOT
ATOM      1  O   UNL     1      37.142 -18.730 -21.547  0.00  0.00    -0.270 OA
ATOM      2  N   UNL     1      35.022 -18.168 -22.298  0.00  0.00    -0.297 N 
ATOM      3  C   UNL     1      35.913 -18.919 -21.522  0.00  0.00    +0.246 C 
ATOM      4  H   UNL     1      34.061 -18.371 -22.230  0.00  0.00    +0.150 HD
ENDROOT
BRANCH   3   5
ATOM      5  C   UNL     1      35.343 -19.967 -20.690  0.00  0.00    +0.053 C 
ATOM      6  C   UNL     1      34.251 -21.977 -19.094  0.00  0.00    +0.122 C 
ATOM      7  C   UNL     1      33.960 -20.138 -20.634  0.00  0.00    +0.006 C 
ATOM      8  C   UNL     1      36.181 -20.800 -19.948  0.00  0.00    +0.006 C 
ATOM      9  C   UNL     1      33.414 -21.143 -19.836  0.00  0.00    +0.020 C 
ATOM     10  C   UNL     1      35.634 -21.806 -19.150  0.00  0.00    +0.020 C 
BRANCH   6  11
ATOM     11  S   UNL     1      33.567 -23.236 -18.096  0.00  0.00    +0.057 S 
ATOM     12  O   UNL     1      33.697 -24.505 -18.798  0.00  0.00    -0.153 OA
ATOM     13  O   UNL     1      32.259 -22.796 -17.633  0.00  0.00    -0.153 OA
BRANCH  11  14
ATOM     14  N   UNL     1      34.650 -23.227 -16.774  0.00  0.00    -0.203 NA
ATOM     15  H   UNL     1      34.600 -22.326 -16.300  0.00  0.00    +0.144 HD
ATOM     16  H   UNL     1      35.600 -23.381 -17.112  0.00  0.00    +0.144 HD
ENDBRANCH  11  14
ENDBRANCH   6  11
ENDBRANCH   3   5
BRANCH   2  17
ATOM     17  C   UNL     1      35.436 -17.110 -23.191  0.00  0.00    +0.121 C 
BRANCH  17  23
ATOM     18  F   UNL     1      35.045 -15.878 -20.680  0.00  0.00    -0.202 F 
ATOM     19  F   UNL     1      34.138 -15.822 -25.340  0.00  0.00    -0.202 F 
ATOM     20  F   UNL     1      32.628 -13.575 -25.013  0.00  0.00    -0.199 F 
ATOM     21  F   UNL     1      33.537 -13.628 -20.366  0.00  0.00    -0.199 F 
ATOM     22  F   UNL     1      32.326 -12.475 -22.529  0.00  0.00    -0.199 F 
ATOM     23  C   UNL     1      34.604 -15.868 -23.013  0.00  0.00    +0.057 A 
ATOM     24  C   UNL     1      34.457 -15.318 -21.746  0.00  0.00    +0.170 A 
ATOM     25  C   UNL     1      33.995 -15.290 -24.118  0.00  0.00    +0.170 A 
ATOM     26  C   UNL     1      33.223 -14.140 -23.954  0.00  0.00    +0.197 A 
ATOM     27  C   UNL     1      33.685 -14.169 -21.583  0.00  0.00    +0.197 A 
ATOM     28  C   UNL     1      33.068 -13.579 -22.686  0.00  0.00    +0.199 A 
ENDBRANCH  17  23
ENDBRANCH   2  17
TORSDOF 5
ENDMDL
MODEL 3
REMARK VINA RESULT:     -10.5      6.886     10.804
REMARK  Name = 445770
REMARK  5 active torsions:
REMARK  status: ('A' for Active; 'I' for Inactive)
REMARK    1  A    between atoms: N_2  and  C_17
REMARK    2  A    between atoms: C_3  and  C_5
REMARK    3  A    between atoms: C_6  and  S_11
REMARK    4  A    between atoms: S_11  and  N_14
REMARK    5  A    between atoms: C_17  and  C_23
REMARK                            x       y       z     vdW  Elec       q    Type
REMARK                         _______ _______ _______ _____ _____    ______ ____
ROOT
ATOM      1  O   UNL     1      33.459 -24.280 -18.011  0.00  0.00    -0.270 OA
ATOM      2  N   UNL     1      34.744 -23.350 -16.321  0.00  0.00    -0.297 N 
ATOM      3  C   UNL     1      34.220 -23.378 -17.618  0.00  0.00    +0.246 C 
ATOM      4  H   UNL     1      35.342 -22.606 -16.075  0.00  0.00    +0.150 HD
ENDROOT
BRANCH   3   5
ATOM      5  C   UNL     1      34.625 -22.310 -18.517  0.00  0.00    +0.053 C 
ATOM      6  C   UNL     1      35.402 -20.260 -20.243  0.00  0.00    +0.122 C 
ATOM      7  C   UNL     1      35.972 -21.964 -18.627  0.00  0.00    +0.006 C 
ATOM      8  C   UNL     1      33.666 -21.631 -19.269  0.00  0.00    +0.006 C 
ATOM      9  C   UNL     1      36.360 -20.939 -19.490  0.00  0.00    +0.020 C 
ATOM     10  C   UNL     1      34.055 -20.606 -20.133  0.00  0.00    +0.020 C 
BRANCH   6  11
ATOM     11  S   UNL     1      35.888 -18.978 -21.324  0.00  0.00    +0.057 S 
ATOM     12  O   UNL     1      35.339 -17.723 -20.830  0.00  0.00    -0.153 OA
ATOM     13  O   UNL     1      35.612 -19.400 -22.690  0.00  0.00    -0.153 OA
BRANCH  11  14
ATOM     14  N   UNL     1      37.579 -18.972 -21.081  0.00  0.00    -0.203 NA
ATOM     15  H   UNL     1      38.051 -19.134 -21.970  0.00  0.00    +0.144 HD
ATOM     16  H   UNL     1      37.831 -19.709 -20.422  0.00  0.00    +0.144 HD
ENDBRANCH  11  14
ENDBRANCH   6  11
ENDBRANCH   3   5
BRANCH   2  17
ATOM     17  C   UNL     1      34.455 -24.352 -15.319  0.00  0.00    +0.121 C 
BRANCH  17  23
ATOM     18  F   UNL     1      35.728 -22.716 -13.401  0.00  0.00    -0.202 F 
ATOM     19  F   UNL     1      35.697 -26.852 -15.734  0.00  0.00    -0.202 F 
ATOM     20  F   UNL     1      37.944 -27.617 -14.391  0.00  0.00    -0.199 F 
ATOM     21  F   UNL     1      37.971 -23.494 -12.062  0.00  0.00    -0.199 F 
ATOM     22  F   UNL     1      39.083 -25.944 -12.555  0.00  0.00    -0.199 F 
ATOM     23  C   UNL     1      35.694 -24.778 -14.578  0.00  0.00    +0.057 A 
ATOM     24  C   UNL     1      36.265 -23.919 -13.648  0.00  0.00    +0.170 A 
ATOM     25  C   UNL     1      36.249 -26.023 -14.835  0.00  0.00    +0.170 A 
ATOM     26  C   UNL     1      37.398 -26.419 -14.150  0.00  0.00    +0.197 A 
ATOM     27  C   UNL     1      37.413 -24.314 -12.963  0.00  0.00    +0.197 A 
ATOM     28  C   UNL     1      37.980 -25.564 -13.213  0.00  0.00    +0.199 A 
ENDBRANCH  17  23
ENDBRANCH   2  17
TORSDOF 5
ENDMDL
MODEL 4
REMARK VINA RESULT:     -10.5      6.192     10.141
REMARK  Name = 445770
REMARK  5 active torsions:
REMARK  status: ('A' for Active; 'I' for Inactive)
REMARK    1  A    between atoms: N_2  and  C_17
REMARK    2  A    between atoms: C_3  and  C_5
REMARK    3  A    between atoms: C_6  and  S_11
REMARK    4  A    between atoms: S_11  and  N_14
REMARK    5  A    between atoms: C_17  and  C_23
REMARK                            x       y       z     vdW  Elec       q    Type
REMARK                         _______ _______ _______ _____ _____    ______ ____
ROOT
ATOM      1  O   UNL     1      33.722 -24.275 -18.839  0.00  0.00    -0.270 OA
ATOM      2  N   UNL     1      33.883 -22.965 -16.934  0.00  0.00    -0.297 N 
ATOM      3  C   UNL     1      33.941 -23.168 -18.317  0.00  0.00    +0.246 C 
ATOM      4  H   UNL     1      34.069 -22.061 -16.587  0.00  0.00    +0.150 HD
ENDROOT
BRANCH   3   5
ATOM      5  C   UNL     1      34.301 -22.023 -19.139  0.00  0.00    +0.053 C 
ATOM      6  C   UNL     1      34.992 -19.826 -20.713  0.00  0.00    +0.122 C 
ATOM      7  C   UNL     1      33.304 -21.252 -19.735  0.00  0.00    +0.006 C 
ATOM      8  C   UNL     1      35.644 -21.697 -19.329  0.00  0.00    +0.006 C 
ATOM      9  C   UNL     1      33.650 -20.154 -20.523  0.00  0.00    +0.020 C 
ATOM     10  C   UNL     1      35.990 -20.597 -20.116  0.00  0.00    +0.020 C 
BRANCH   6  11
ATOM     11  S   UNL     1      35.425 -18.451 -21.698  0.00  0.00    +0.057 S 
ATOM     12  O   UNL     1      35.240 -17.241 -20.909  0.00  0.00    -0.153 OA
ATOM     13  O   UNL     1      34.761 -18.582 -22.987  0.00  0.00    -0.153 OA
BRANCH  11  14
ATOM     14  N   UNL     1      37.099 -18.717 -21.911  0.00  0.00    -0.203 NA
ATOM     15  H   UNL     1      37.265 -19.121 -22.832  0.00  0.00    +0.144 HD
ATOM     16  H   UNL     1      37.435 -19.359 -21.192  0.00  0.00    +0.144 HD
ENDBRANCH  11  14
ENDBRANCH   6  11
ENDBRANCH   3   5
BRANCH   2  17
ATOM     17  C   UNL     1      33.563 -24.008 -15.985  0.00  0.00    +0.121 C 
BRANCH  17  23
ATOM     18  F   UNL     1      36.257 -23.256 -16.375  0.00  0.00    -0.202 F 
ATOM     19  F   UNL     1      32.986 -24.993 -13.405  0.00  0.00    -0.202 F 
ATOM     20  F   UNL     1      34.878 -25.202 -11.453  0.00  0.00    -0.199 F 
ATOM     21  F   UNL     1      38.140 -23.465 -14.415  0.00  0.00    -0.199 F 
ATOM     22  F   UNL     1      37.455 -24.439 -11.952  0.00  0.00    -0.199 F 
ATOM     23  C   UNL     1      34.606 -24.123 -14.906  0.00  0.00    +0.057 A 
ATOM     24  C   UNL     1      35.912 -23.733 -15.171  0.00  0.00    +0.170 A 
ATOM     25  C   UNL     1      34.247 -24.617 -13.660  0.00  0.00    +0.170 A 
ATOM     26  C   UNL     1      35.212 -24.724 -12.659  0.00  0.00    +0.197 A 
ATOM     27  C   UNL     1      36.877 -23.840 -14.171  0.00  0.00    +0.197 A 
ATOM     28  C   UNL     1      36.528 -24.335 -12.914  0.00  0.00    +0.199 A 
ENDBRANCH  17  23
ENDBRANCH   2  17
TORSDOF 5
ENDMDL
MODEL 5
REMARK VINA RESULT:     -10.5      6.036      9.435
REMARK  Name = 445770
REMARK  5 active torsions:
REMARK  status: ('A' for Active; 'I' for Inactive)
REMARK    1  A    between atoms: N_2  and  C_17
REMARK    2  A    between atoms: C_3  and  C_5
REMARK    3  A    between atoms: C_6  and  S_11
REMARK    4  A    between atoms: S_11  and  N_14
REMARK    5  A    between atoms: C_17  and  C_23
REMARK                            x       y       z     vdW  Elec       q    Type
REMARK                         _______ _______ _______ _____ _____    ______ ____
ROOT
ATOM      1  O   UNL     1      33.800 -24.292 -18.710  0.00  0.00    -0.270 OA
ATOM      2  N   UNL     1      33.809 -22.903 -16.855  0.00  0.00    -0.297 N 
ATOM      3  C   UNL     1      33.954 -23.159 -18.223  0.00  0.00    +0.246 C 
ATOM      4  H   UNL     1      33.946 -21.981 -16.536  0.00  0.00    +0.150 HD
ENDROOT
BRANCH   3   5
ATOM      5  C   UNL     1      34.326 -22.036 -19.069  0.00  0.00    +0.053 C 
ATOM      6  C   UNL     1      35.039 -19.882 -20.691  0.00  0.00    +0.122 C 
ATOM      7  C   UNL     1      35.671 -21.707 -19.241  0.00  0.00    +0.006 C 
ATOM      8  C   UNL     1      33.337 -21.287 -19.707  0.00  0.00    +0.006 C 
ATOM      9  C   UNL     1      36.027 -20.630 -20.052  0.00  0.00    +0.020 C 
ATOM     10  C   UNL     1      33.695 -20.210 -20.520  0.00  0.00    +0.020 C 
BRANCH   6  11
ATOM     11  S   UNL     1      35.485 -18.534 -21.708  0.00  0.00    +0.057 S 
ATOM     12  O   UNL     1      35.260 -17.301 -20.967  0.00  0.00    -0.153 OA
ATOM     13  O   UNL     1      34.865 -18.717 -23.013  0.00  0.00    -0.153 OA
BRANCH  11  14
ATOM     14  N   UNL     1      37.169 -18.784 -21.859  0.00  0.00    -0.203 NA
ATOM     15  H   UNL     1      37.583 -18.879 -20.932  0.00  0.00    +0.144 HD
ATOM     16  H   UNL     1      37.589 -17.988 -22.339  0.00  0.00    +0.144 HD
ENDBRANCH  11  14
ENDBRANCH   6  11
ENDBRANCH   3   5
BRANCH   2  17
ATOM     17  C   UNL     1      33.466 -23.918 -15.883  0.00  0.00    +0.121 C 
BRANCH  17  23
ATOM     18  F   UNL     1      31.606 -22.326 -17.291  0.00  0.00    -0.202 F 
ATOM     19  F   UNL     1      32.331 -25.545 -13.877  0.00  0.00    -0.202 F 
ATOM     20  F   UNL     1      29.658 -25.572 -13.344  0.00  0.00    -0.199 F 
ATOM     21  F   UNL     1      28.934 -22.364 -16.751  0.00  0.00    -0.199 F 
ATOM     22  F   UNL     1      27.956 -23.985 -14.778  0.00  0.00    -0.199 F 
ATOM     23  C   UNL     1      31.990 -23.935 -15.588  0.00  0.00    +0.057 A 
ATOM     24  C   UNL     1      31.135 -23.124 -16.323  0.00  0.00    +0.170 A 
ATOM     25  C   UNL     1      31.505 -24.763 -14.585  0.00  0.00    +0.170 A 
ATOM     26  C   UNL     1      30.137 -24.780 -14.311  0.00  0.00    +0.197 A 
ATOM     27  C   UNL     1      29.769 -23.141 -16.048  0.00  0.00    +0.197 A 
ATOM     28  C   UNL     1      29.268 -23.969 -15.042  0.00  0.00    +0.199 A 
ENDBRANCH  17  23
ENDBRANCH   2  17
TORSDOF 5
ENDMDL
MODEL 6
REMARK VINA RESULT:     -10.5      6.185     10.245
REMARK  Name = 445770
REMARK  5 active torsions:
REMARK  status: ('A' for Active; 'I' for Inactive)
REMARK    1  A    between atoms: N_2  and  C_17
REMARK    2  A    between atoms: C_3  and  C_5
REMARK    3  A    between atoms: C_6  and  S_11
REMARK    4  A    between atoms: S_11  and  N_14
REMARK    5  A    between atoms: C_17  and  C_23
REMARK                            x       y       z     vdW  Elec       q    Type
REMARK                         _______ _______ _______ _____ _____    ______ ____
ROOT
ATOM      1  O   UNL     1      33.736 -24.282 -18.834  0.00  0.00    -0.270 OA
ATOM      2  N   UNL     1      33.886 -22.966 -16.932  0.00  0.00    -0.297 N 
ATOM      3  C   UNL     1      33.951 -23.173 -18.315  0.00  0.00    +0.246 C 
ATOM      4  H   UNL     1      34.068 -22.062 -16.587  0.00  0.00    +0.150 HD
ENDROOT
BRANCH   3   5
ATOM      5  C   UNL     1      34.311 -22.029 -19.138  0.00  0.00    +0.053 C 
ATOM      6  C   UNL     1      35.002 -19.835 -20.715  0.00  0.00    +0.122 C 
ATOM      7  C   UNL     1      33.314 -21.253 -19.728  0.00  0.00    +0.006 C 
ATOM      8  C   UNL     1      35.654 -21.709 -19.336  0.00  0.00    +0.006 C 
ATOM      9  C   UNL     1      33.660 -20.156 -20.517  0.00  0.00    +0.020 C 
ATOM     10  C   UNL     1      36.000 -20.611 -20.125  0.00  0.00    +0.020 C 
BRANCH   6  11
ATOM     11  S   UNL     1      35.435 -18.461 -21.702  0.00  0.00    +0.057 S 
ATOM     12  O   UNL     1      35.217 -17.248 -20.927  0.00  0.00    -0.153 OA
ATOM     13  O   UNL     1      34.801 -18.612 -23.004  0.00  0.00    -0.153 OA
BRANCH  11  14
ATOM     14  N   UNL     1      37.118 -18.704 -21.877  0.00  0.00    -0.203 NA
ATOM     15  H   UNL     1      37.577 -17.806 -22.024  0.00  0.00    +0.144 HD
ATOM     16  H   UNL     1      37.292 -19.310 -22.679  0.00  0.00    +0.144 HD
ENDBRANCH  11  14
ENDBRANCH   6  11
ENDBRANCH   3   5
BRANCH   2  17
ATOM     17  C   UNL     1      33.565 -24.008 -15.982  0.00  0.00    +0.121 C 
BRANCH  17  23
ATOM     18  F   UNL     1      32.992 -25.025 -13.410  0.00  0.00    -0.202 F 
ATOM     19  F   UNL     1      36.246 -23.210 -16.353  0.00  0.00    -0.202 F 
ATOM     20  F   UNL     1      38.124 -23.406 -14.386  0.00  0.00    -0.199 F 
ATOM     21  F   UNL     1      34.879 -25.219 -11.453  0.00  0.00    -0.199 F 
ATOM     22  F   UNL     1      37.446 -24.410 -11.936  0.00  0.00    -0.199 F 
ATOM     23  C   UNL     1      34.604 -24.116 -14.898  0.00  0.00    +0.057 A 
ATOM     24  C   UNL     1      34.248 -24.627 -13.657  0.00  0.00    +0.170 A 
ATOM     25  C   UNL     1      35.904 -23.704 -15.155  0.00  0.00    +0.170 A 
ATOM     26  C   UNL     1      36.867 -23.803 -14.151  0.00  0.00    +0.197 A 
ATOM     27  C   UNL     1      35.211 -24.726 -12.653  0.00  0.00    +0.197 A 
ATOM     28  C   UNL     1      36.521 -24.315 -12.899  0.00  0.00    +0.199 A 
ENDBRANCH  17  23
ENDBRANCH   2  17
TORSDOF 5
ENDMDL
MODEL 7
REMARK VINA RESULT:     -10.5      6.044      9.665
REMARK  Name = 445770
REMARK  5 active torsions:
REMARK  status: ('A' for Active; 'I' for Inactive)
REMARK    1  A    between atoms: N_2  and  C_17
REMARK    2  A    between atoms: C_3  and  C_5
REMARK    3  A    between atoms: C_6  and  S_11
REMARK    4  A    between atoms: S_11  and  N_14
REMARK    5  A    between atoms: C_17  and  C_23
REMARK                            x       y       z     vdW  Elec       q    Type
REMARK                         _______ _______ _______ _____ _____    ______ ____
ROOT
ATOM      1  O   UNL     1      33.780 -24.313 -18.667  0.00  0.00    -0.270 OA
ATOM      2  N   UNL     1      33.815 -22.918 -16.816  0.00  0.00    -0.297 N 
ATOM      3  C   UNL     1      33.950 -23.180 -18.184  0.00  0.00    +0.246 C 
ATOM      4  H   UNL     1      33.965 -21.997 -16.500  0.00  0.00    +0.150 HD
ENDROOT
BRANCH   3   5
ATOM      5  C   UNL     1      34.331 -22.063 -19.035  0.00  0.00    +0.053 C 
ATOM      6  C   UNL     1      35.063 -19.923 -20.668  0.00  0.00    +0.122 C 
ATOM      7  C   UNL     1      33.350 -21.320 -19.691  0.00  0.00    +0.006 C 
ATOM      8  C   UNL     1      35.678 -21.737 -19.196  0.00  0.00    +0.006 C 
ATOM      9  C   UNL     1      33.716 -20.250 -20.508  0.00  0.00    +0.020 C 
ATOM     10  C   UNL     1      36.044 -20.666 -20.012  0.00  0.00    +0.020 C 
BRANCH   6  11
ATOM     11  S   UNL     1      35.520 -18.583 -21.688  0.00  0.00    +0.057 S 
ATOM     12  O   UNL     1      35.270 -17.343 -20.965  0.00  0.00    -0.153 OA
ATOM     13  O   UNL     1      34.930 -18.784 -23.004  0.00  0.00    -0.153 OA
BRANCH  11  14
ATOM     14  N   UNL     1      37.209 -18.821 -21.801  0.00  0.00    -0.203 NA
ATOM     15  H   UNL     1      37.449 -19.110 -22.749  0.00  0.00    +0.144 HD
ATOM     16  H   UNL     1      37.494 -19.545 -21.142  0.00  0.00    +0.144 HD
ENDBRANCH  11  14
ENDBRANCH   6  11
ENDBRANCH   3   5
BRANCH   2  17
ATOM     17  C   UNL     1      33.465 -23.926 -15.840  0.00  0.00    +0.121 C 
BRANCH  17  23
ATOM     18  F   UNL     1      32.302 -25.579 -13.867  0.00  0.00    -0.202 F 
ATOM     19  F   UNL     1      31.625 -22.321 -17.254  0.00  0.00    -0.202 F 
ATOM     20  F   UNL     1      28.945 -22.367 -16.754  0.00  0.00    -0.199 F 
ATOM     21  F   UNL     1      29.621 -25.614 -13.373  0.00  0.00    -0.199 F 
ATOM     22  F   UNL     1      27.939 -24.010 -14.815  0.00  0.00    -0.199 F 
ATOM     23  C   UNL     1      31.985 -23.949 -15.564  0.00  0.00    +0.057 A 
ATOM     24  C   UNL     1      31.486 -24.788 -14.577  0.00  0.00    +0.170 A 
ATOM     25  C   UNL     1      31.141 -23.130 -16.301  0.00  0.00    +0.170 A 
ATOM     26  C   UNL     1      29.770 -23.151 -16.047  0.00  0.00    +0.197 A 
ATOM     27  C   UNL     1      30.115 -24.809 -14.324  0.00  0.00    +0.197 A 
ATOM     28  C   UNL     1      29.256 -23.991 -15.058  0.00  0.00    +0.199 A 
ENDBRANCH  17  23
ENDBRANCH   2  17
TORSDOF 5
ENDMDL
MODEL 8
REMARK VINA RESULT:     -10.4      5.018      7.666
REMARK  Name = 445770
REMARK  5 active torsions:
REMARK  status: ('A' for Active; 'I' for Inactive)
REMARK    1  A    between atoms: N_2  and  C_17
REMARK    2  A    between atoms: C_3  and  C_5
REMARK    3  A    between atoms: C_6  and  S_11
REMARK    4  A    between atoms: S_11  and  N_14
REMARK    5  A    between atoms: C_17  and  C_23
REMARK                            x       y       z     vdW  Elec       q    Type
REMARK                         _______ _______ _______ _____ _____    ______ ____
ROOT
ATOM      1  O   UNL     1      32.140 -23.645 -15.962  0.00  0.00    -0.270 OA
ATOM      2  N   UNL     1      34.043 -23.005 -17.121  0.00  0.00    -0.297 N 
ATOM      3  C   UNL     1      33.370 -23.465 -15.983  0.00  0.00    +0.246 C 
ATOM      4  H   UNL     1      35.019 -22.884 -17.069  0.00  0.00    +0.150 HD
ENDROOT
BRANCH   3   5
ATOM      5  C   UNL     1      34.173 -23.703 -14.793  0.00  0.00    +0.053 C 
ATOM      6  C   UNL     1      35.712 -24.160 -12.512  0.00  0.00    +0.122 C 
ATOM      7  C   UNL     1      33.624 -24.385 -13.707  0.00  0.00    +0.006 C 
ATOM      8  C   UNL     1      35.491 -23.249 -14.739  0.00  0.00    +0.006 C 
ATOM      9  C   UNL     1      34.394 -24.613 -12.567  0.00  0.00    +0.020 C 
ATOM     10  C   UNL     1      36.261 -23.479 -13.598  0.00  0.00    +0.020 C 
BRANCH   6  11
ATOM     11  S   UNL     1      36.676 -24.447 -11.085  0.00  0.00    +0.057 S 
ATOM     12  O   UNL     1      37.111 -23.163 -10.555  0.00  0.00    -0.153 OA
ATOM     13  O   UNL     1      37.661 -25.473 -11.395  0.00  0.00    -0.153 OA
BRANCH  11  14
ATOM     14  N   UNL     1      35.505 -25.109 -10.030  0.00  0.00    -0.203 NA
ATOM     15  H   UNL     1      34.842 -25.668 -10.566  0.00  0.00    +0.144 HD
ATOM     16  H   UNL     1      35.009 -24.354  -9.556  0.00  0.00    +0.144 HD
ENDBRANCH  11  14
ENDBRANCH   6  11
ENDBRANCH   3   5
BRANCH   2  17
ATOM     17  C   UNL     1      33.383 -22.701 -18.371  0.00  0.00    +0.121 C 
BRANCH  17  23
ATOM     18  F   UNL     1      36.181 -22.421 -18.106  0.00  0.00    -0.202 F 
ATOM     19  F   UNL     1      32.225 -21.053 -20.347  0.00  0.00    -0.202 F 
ATOM     20  F   UNL     1      33.691 -19.332 -21.871  0.00  0.00    -0.199 F 
ATOM     21  F   UNL     1      37.637 -20.700 -19.639  0.00  0.00    -0.199 F 
ATOM     22  F   UNL     1      36.396 -19.153 -21.521  0.00  0.00    -0.199 F 
ATOM     23  C   UNL     1      34.191 -21.751 -19.214  0.00  0.00    +0.057 A 
ATOM     24  C   UNL     1      35.564 -21.668 -19.028  0.00  0.00    +0.170 A 
ATOM     25  C   UNL     1      33.551 -20.971 -20.168  0.00  0.00    +0.170 A 
ATOM     26  C   UNL     1      34.298 -20.091 -20.950  0.00  0.00    +0.197 A 
ATOM     27  C   UNL     1      36.311 -20.787 -19.809  0.00  0.00    +0.197 A 
ATOM     28  C   UNL     1      35.679 -19.998 -20.771  0.00  0.00    +0.199 A 
ENDBRANCH  17  23
ENDBRANCH   2  17
TORSDOF 5
ENDMDL
MODEL 9
REMARK VINA RESULT:     -10.4      5.022      7.458
REMARK  Name = 445770
REMARK  5 active torsions:
REMARK  status: ('A' for Active; 'I' for Inactive)
REMARK    1  A    between atoms: N_2  and  C_17
REMARK    2  A    between atoms: C_3  and  C_5
REMARK    3  A    between atoms: C_6  and  S_11
REMARK    4  A    between atoms: S_11  and  N_14
REMARK    5  A    between atoms: C_17  and  C_23
REMARK                            x       y       z     vdW  Elec       q    Type
REMARK                         _______ _______ _______ _____ _____    ______ ____
ROOT
ATOM      1  O   UNL     1      32.124 -23.577 -15.931  0.00  0.00    -0.270 OA
ATOM      2  N   UNL     1      34.035 -23.017 -17.117  0.00  0.00    -0.297 N 
ATOM      3  C   UNL     1      33.359 -23.439 -15.967  0.00  0.00    +0.246 C 
ATOM      4  H   UNL     1      35.016 -22.928 -17.075  0.00  0.00    +0.150 HD
ENDROOT
BRANCH   3   5
ATOM      5  C   UNL     1      34.165 -23.688 -14.781  0.00  0.00    +0.053 C 
ATOM      6  C   UNL     1      35.709 -24.167 -12.508  0.00  0.00    +0.122 C 
ATOM      7  C   UNL     1      35.482 -23.232 -14.725  0.00  0.00    +0.006 C 
ATOM      8  C   UNL     1      33.619 -24.384 -13.702  0.00  0.00    +0.006 C 
ATOM      9  C   UNL     1      36.254 -23.472 -13.588  0.00  0.00    +0.020 C 
ATOM     10  C   UNL     1      34.392 -24.623 -12.565  0.00  0.00    +0.020 C 
BRANCH   6  11
ATOM     11  S   UNL     1      36.675 -24.466 -11.085  0.00  0.00    +0.057 S 
ATOM     12  O   UNL     1      37.114 -23.186 -10.546  0.00  0.00    -0.153 OA
ATOM     13  O   UNL     1      37.658 -25.492 -11.403  0.00  0.00    -0.153 OA
BRANCH  11  14
ATOM     14  N   UNL     1      35.506 -25.132 -10.032  0.00  0.00    -0.203 NA
ATOM     15  H   UNL     1      35.379 -26.121 -10.246  0.00  0.00    +0.144 HD
ATOM     16  H   UNL     1      34.620 -24.641 -10.154  0.00  0.00    +0.144 HD
ENDBRANCH  11  14
ENDBRANCH   6  11
ENDBRANCH   3   5
BRANCH   2  17
ATOM     17  C   UNL     1      33.374 -22.707 -18.365  0.00  0.00    +0.121 C 
BRANCH  17  23
ATOM     18  F   UNL     1      32.221 -21.054 -20.343  0.00  0.00    -0.202 F 
ATOM     19  F   UNL     1      36.169 -22.433 -18.096  0.00  0.00    -0.202 F 
ATOM     20  F   UNL     1      37.632 -20.713 -19.624  0.00  0.00    -0.199 F 
ATOM     21  F   UNL     1      33.693 -19.334 -21.862  0.00  0.00    -0.199 F 
ATOM     22  F   UNL     1      36.399 -19.162 -21.507  0.00  0.00    -0.199 F 
ATOM     23  C   UNL     1      34.183 -21.757 -19.207  0.00  0.00    +0.057 A 
ATOM     24  C   UNL     1      33.546 -20.974 -20.161  0.00  0.00    +0.170 A 
ATOM     25  C   UNL     1      35.555 -21.677 -19.017  0.00  0.00    +0.170 A 
ATOM     26  C   UNL     1      36.306 -20.797 -19.796  0.00  0.00    +0.197 A 
ATOM     27  C   UNL     1      34.297 -20.096 -20.940  0.00  0.00    +0.197 A 
ATOM     28  C   UNL     1      35.677 -20.006 -20.759  0.00  0.00    +0.199 A 
ENDBRANCH  17  23
ENDBRANCH   2  17
TORSDOF 5
ENDMDL
