MODEL 1
REMARK VINA RESULT:     -12.0      0.000      0.000
REMARK  Name = 6918388
REMARK  5 active torsions:
REMARK  status: ('A' for Active; 'I' for Inactive)
REMARK    1  A    between atoms: N_1  and  C_4
REMARK    2  A    between atoms: N_1  and  C_15
REMARK    3  A    between atoms: C_4  and  C_6
REMARK    4  A    between atoms: C_15  and  C_17
REMARK    5  A    between atoms: C_19  and  C_23
REMARK                            x       y       z     vdW  Elec       q    Type
REMARK                         _______ _______ _______ _____ _____    ______ ____
ROOT
ATOM      1  N   UNL     1      33.246 -13.660 -21.873  0.00  0.00    +0.389 N 
ATOM      2  H   UNL     1      32.973 -14.565 -21.492  0.00  0.00    -0.084 HD
ATOM      3  H   UNL     1      33.587 -13.049 -21.130  0.00  0.00    -0.084 HD
ENDROOT
BRANCH   1   4
ATOM      4  C   UNL     1      32.087 -13.033 -22.493  0.00  0.00    -0.037 C 
BRANCH   4   6
ATOM      5  O   UNL     1      32.486 -10.691 -22.299  0.00  0.00    -0.482 OA
ATOM      6  C   UNL     1      31.696 -11.759 -21.755  0.00  0.00    +0.145 C 
ATOM      7  C   UNL     1      31.924 -11.909 -20.252  0.00  0.00    +0.046 C 
ATOM      8  C   UNL     1      31.470 -10.636 -19.548  0.00  0.00    +0.033 C 
ATOM      9  C   UNL     1      31.980  -9.424 -20.274  0.00  0.00    +0.012 C 
ATOM     10  C   UNL     1      32.442  -9.517 -21.593  0.00  0.00    +0.134 C 
ATOM     11  C   UNL     1      31.972  -8.175 -19.640  0.00  0.00    -0.001 C 
ATOM     12  C   UNL     1      32.926  -8.383 -22.251  0.00  0.00    +0.037 C 
ATOM     13  C   UNL     1      32.443  -7.042 -20.303  0.00  0.00    -0.000 C 
ATOM     14  C   UNL     1      32.924  -7.148 -21.607  0.00  0.00    +0.003 C 
ENDBRANCH   4   6
ENDBRANCH   1   4
BRANCH   1  15
ATOM     15  C   UNL     1      34.316 -13.853 -22.842  0.00  0.00    -0.053 C 
BRANCH  15  17
ATOM     16  N   UNL     1      34.260 -16.967 -24.963  0.00  0.00    -0.243 NA
ATOM     17  C   UNL     1      34.452 -15.296 -23.248  0.00  0.00    -0.025 C 
ATOM     18  C   UNL     1      34.871 -16.242 -22.333  0.00  0.00    -0.003 C 
ATOM     19  C   UNL     1      34.988 -17.567 -22.737  0.00  0.00    +0.019 C 
ATOM     20  C   UNL     1      34.159 -15.689 -24.534  0.00  0.00    +0.092 C 
ATOM     21  C   UNL     1      34.673 -17.875 -24.051  0.00  0.00    +0.099 C 
BRANCH  19  23
ATOM     22  F   UNL     1      36.671 -21.525 -19.188  0.00  0.00    -0.204 F 
ATOM     23  C   UNL     1      35.422 -18.592 -21.817  0.00  0.00    +0.002 C 
ATOM     24  C   UNL     1      36.746 -18.618 -21.373  0.00  0.00    +0.002 C 
ATOM     25  C   UNL     1      34.523 -19.561 -21.370  0.00  0.00    +0.002 C 
ATOM     26  C   UNL     1      37.168 -19.608 -20.486  0.00  0.00    +0.030 C 
ATOM     27  C   UNL     1      34.944 -20.551 -20.482  0.00  0.00    +0.030 C 
ATOM     28  C   UNL     1      36.267 -20.574 -20.041  0.00  0.00    +0.140 C 
ENDBRANCH  19  23
ENDBRANCH  15  17
ENDBRANCH   1  15
TORSDOF 5
ENDMDL
MODEL 2
REMARK VINA RESULT:     -11.7      1.306      2.020
REMARK  Name = 6918388
REMARK  5 active torsions:
REMARK  status: ('A' for Active; 'I' for Inactive)
REMARK    1  A    between atoms: N_1  and  C_4
REMARK    2  A    between atoms: N_1  and  C_15
REMARK    3  A    between atoms: C_4  and  C_6
REMARK    4  A    between atoms: C_15  and  C_17
REMARK    5  A    between atoms: C_19  and  C_23
REMARK                            x       y       z     vdW  Elec       q    Type
REMARK                         _______ _______ _______ _____ _____    ______ ____
ROOT
ATOM      1  N   UNL     1      33.730 -13.290 -23.585  0.00  0.00    +0.389 N 
ATOM      2  H   UNL     1      34.278 -12.540 -24.004  0.00  0.00    -0.084 HD
ATOM      3  H   UNL     1      33.370 -13.915 -24.306  0.00  0.00    -0.084 HD
ENDROOT
BRANCH   1   4
ATOM      4  C   UNL     1      32.602 -12.713 -22.867  0.00  0.00    -0.037 C 
BRANCH   4   6
ATOM      5  O   UNL     1      33.824 -10.703 -23.246  0.00  0.00    -0.482 OA
ATOM      6  C   UNL     1      32.489 -11.218 -23.139  0.00  0.00    +0.145 C 
ATOM      7  C   UNL     1      31.712 -10.520 -22.024  0.00  0.00    +0.046 C 
ATOM      8  C   UNL     1      31.576  -9.040 -22.361  0.00  0.00    +0.033 C 
ATOM      9  C   UNL     1      32.891  -8.485 -22.830  0.00  0.00    +0.012 C 
ATOM     10  C   UNL     1      33.922  -9.335 -23.251  0.00  0.00    +0.134 C 
ATOM     11  C   UNL     1      33.088  -7.099 -22.876  0.00  0.00    -0.001 C 
ATOM     12  C   UNL     1      35.144  -8.805 -23.672  0.00  0.00    +0.037 C 
ATOM     13  C   UNL     1      34.304  -6.571 -23.310  0.00  0.00    -0.000 C 
ATOM     14  C   UNL     1      35.333  -7.425 -23.703  0.00  0.00    +0.003 C 
ENDBRANCH   4   6
ENDBRANCH   1   4
BRANCH   1  15
ATOM     15  C   UNL     1      34.581 -14.059 -22.687  0.00  0.00    -0.053 C 
BRANCH  15  17
ATOM     16  N   UNL     1      34.288 -17.209 -24.733  0.00  0.00    -0.243 NA
ATOM     17  C   UNL     1      34.623 -15.516 -23.063  0.00  0.00    -0.025 C 
ATOM     18  C   UNL     1      35.015 -16.464 -22.139  0.00  0.00    -0.003 C 
ATOM     19  C   UNL     1      35.045 -17.802 -22.515  0.00  0.00    +0.019 C 
ATOM     20  C   UNL     1      34.272 -15.918 -24.331  0.00  0.00    +0.092 C 
ATOM     21  C   UNL     1      34.675 -18.120 -23.813  0.00  0.00    +0.099 C 
BRANCH  19  23
ATOM     22  F   UNL     1      36.597 -21.769 -18.916  0.00  0.00    -0.204 F 
ATOM     23  C   UNL     1      35.448 -18.830 -21.584  0.00  0.00    +0.002 C 
ATOM     24  C   UNL     1      34.525 -19.785 -21.154  0.00  0.00    +0.002 C 
ATOM     25  C   UNL     1      36.760 -18.870 -21.109  0.00  0.00    +0.002 C 
ATOM     26  C   UNL     1      34.913 -20.777 -20.253  0.00  0.00    +0.030 C 
ATOM     27  C   UNL     1      37.148 -19.863 -20.209  0.00  0.00    +0.030 C 
ATOM     28  C   UNL     1      36.225 -20.815 -19.781  0.00  0.00    +0.140 C 
ENDBRANCH  19  23
ENDBRANCH  15  17
ENDBRANCH   1  15
TORSDOF 5
ENDMDL
MODEL 3
REMARK VINA RESULT:     -11.7      3.869      9.721
REMARK  Name = 6918388
REMARK  5 active torsions:
REMARK  status: ('A' for Active; 'I' for Inactive)
REMARK    1  A    between atoms: N_1  and  C_4
REMARK    2  A    between atoms: N_1  and  C_15
REMARK    3  A    between atoms: C_4  and  C_6
REMARK    4  A    between atoms: C_15  and  C_17
REMARK    5  A    between atoms: C_19  and  C_23
REMARK                            x       y       z     vdW  Elec       q    Type
REMARK                         _______ _______ _______ _____ _____    ______ ____
ROOT
ATOM      1  N   UNL     1      35.720 -17.888 -22.869  0.00  0.00    +0.389 N 
ATOM      2  H   UNL     1      34.893 -18.351 -23.243  0.00  0.00    -0.084 HD
ATOM      3  H   UNL     1      36.362 -17.638 -23.621  0.00  0.00    -0.084 HD
ENDROOT
BRANCH   1   4
ATOM      4  C   UNL     1      36.404 -18.796 -21.958  0.00  0.00    -0.037 C 
BRANCH   4   6
ATOM      5  O   UNL     1      36.146 -20.384 -20.200  0.00  0.00    -0.482 OA
ATOM      6  C   UNL     1      35.432 -19.384 -20.943  0.00  0.00    +0.145 C 
ATOM      7  C   UNL     1      34.210 -19.979 -21.641  0.00  0.00    +0.046 C 
ATOM      8  C   UNL     1      33.242 -20.507 -20.590  0.00  0.00    +0.033 C 
ATOM      9  C   UNL     1      33.979 -21.299 -19.548  0.00  0.00    +0.012 C 
ATOM     10  C   UNL     1      35.368 -21.186 -19.407  0.00  0.00    +0.134 C 
ATOM     11  C   UNL     1      33.271 -22.146 -18.685  0.00  0.00    -0.001 C 
ATOM     12  C   UNL     1      36.041 -21.940 -18.442  0.00  0.00    +0.037 C 
ATOM     13  C   UNL     1      33.944 -22.887 -17.713  0.00  0.00    -0.000 C 
ATOM     14  C   UNL     1      35.328 -22.787 -17.595  0.00  0.00    +0.003 C 
ENDBRANCH   4   6
ENDBRANCH   1   4
BRANCH   1  15
ATOM     15  C   UNL     1      35.315 -16.668 -22.182  0.00  0.00    -0.053 C 
BRANCH  15  17
ATOM     16  N   UNL     1      33.679 -15.278 -25.279  0.00  0.00    -0.243 NA
ATOM     17  C   UNL     1      34.549 -15.742 -23.089  0.00  0.00    -0.025 C 
ATOM     18  C   UNL     1      34.031 -14.558 -22.601  0.00  0.00    -0.003 C 
ATOM     19  C   UNL     1      33.328 -13.723 -23.461  0.00  0.00    +0.019 C 
ATOM     20  C   UNL     1      34.357 -16.064 -24.413  0.00  0.00    +0.092 C 
ATOM     21  C   UNL     1      33.181 -14.125 -24.780  0.00  0.00    +0.099 C 
BRANCH  19  23
ATOM     22  F   UNL     1      31.159  -8.908 -21.671  0.00  0.00    -0.204 F 
ATOM     23  C   UNL     1      32.768 -12.476 -22.997  0.00  0.00    +0.002 C 
ATOM     24  C   UNL     1      31.859 -12.468 -21.937  0.00  0.00    +0.002 C 
ATOM     25  C   UNL     1      33.131 -11.274 -23.607  0.00  0.00    +0.002 C 
ATOM     26  C   UNL     1      31.316 -11.264 -21.490  0.00  0.00    +0.030 C 
ATOM     27  C   UNL     1      32.588 -10.069 -23.160  0.00  0.00    +0.030 C 
ATOM     28  C   UNL     1      31.680 -10.065 -22.101  0.00  0.00    +0.140 C 
ENDBRANCH  19  23
ENDBRANCH  15  17
ENDBRANCH   1  15
TORSDOF 5
ENDMDL
MODEL 4
REMARK VINA RESULT:     -11.5      6.598     11.402
REMARK  Name = 6918388
REMARK  5 active torsions:
REMARK  status: ('A' for Active; 'I' for Inactive)
REMARK    1  A    between atoms: N_1  and  C_4
REMARK    2  A    between atoms: N_1  and  C_15
REMARK    3  A    between atoms: C_4  and  C_6
REMARK    4  A    between atoms: C_15  and  C_17
REMARK    5  A    between atoms: C_19  and  C_23
REMARK                            x       y       z     vdW  Elec       q    Type
REMARK                         _______ _______ _______ _____ _____    ______ ____
ROOT
ATOM      1  N   UNL     1      36.468 -21.816 -16.693  0.00  0.00    +0.389 N 
ATOM      2  H   UNL     1      36.953 -20.945 -16.480  0.00  0.00    -0.084 HD
ATOM      3  H   UNL     1      35.473 -21.730 -16.486  0.00  0.00    -0.084 HD
ENDROOT
BRANCH   1   4
ATOM      4  C   UNL     1      37.022 -22.884 -15.874  0.00  0.00    -0.037 C 
BRANCH   4   6
ATOM      5  O   UNL     1      34.665 -23.201 -15.723  0.00  0.00    -0.482 OA
ATOM      6  C   UNL     1      35.916 -23.728 -15.255  0.00  0.00    +0.145 C 
ATOM      7  C   UNL     1      35.995 -23.695 -13.729  0.00  0.00    +0.046 C 
ATOM      8  C   UNL     1      34.908 -24.591 -13.152  0.00  0.00    +0.033 C 
ATOM      9  C   UNL     1      33.599 -24.344 -13.848  0.00  0.00    +0.012 C 
ATOM     10  C   UNL     1      33.554 -23.682 -15.081  0.00  0.00    +0.134 C 
ATOM     11  C   UNL     1      32.406 -24.802 -13.274  0.00  0.00    -0.001 C 
ATOM     12  C   UNL     1      32.328 -23.447 -15.710  0.00  0.00    +0.037 C 
ATOM     13  C   UNL     1      31.184 -24.578 -13.909  0.00  0.00    -0.000 C 
ATOM     14  C   UNL     1      31.146 -23.897 -15.124  0.00  0.00    +0.003 C 
ENDBRANCH   4   6
ENDBRANCH   1   4
BRANCH   1  15
ATOM     15  C   UNL     1      36.621 -22.112 -18.111  0.00  0.00    -0.053 C 
BRANCH  15  17
ATOM     16  N   UNL     1      33.089 -21.721 -19.364  0.00  0.00    -0.243 NA
ATOM     17  C   UNL     1      35.447 -21.624 -18.918  0.00  0.00    -0.025 C 
ATOM     18  C   UNL     1      35.625 -20.678 -19.908  0.00  0.00    -0.003 C 
ATOM     19  C   UNL     1      34.523 -20.246 -20.635  0.00  0.00    +0.019 C 
ATOM     20  C   UNL     1      34.185 -22.116 -18.677  0.00  0.00    +0.092 C 
ATOM     21  C   UNL     1      33.287 -20.794 -20.327  0.00  0.00    +0.099 C 
BRANCH  19  23
ATOM     22  F   UNL     1      35.052 -16.435 -24.671  0.00  0.00    -0.204 F 
ATOM     23  C   UNL     1      34.659 -19.258 -21.680  0.00  0.00    +0.002 C 
ATOM     24  C   UNL     1      34.243 -19.552 -22.980  0.00  0.00    +0.002 C 
ATOM     25  C   UNL     1      35.209 -18.007 -21.395  0.00  0.00    +0.002 C 
ATOM     26  C   UNL     1      34.375 -18.599 -23.990  0.00  0.00    +0.030 C 
ATOM     27  C   UNL     1      35.341 -17.054 -22.404  0.00  0.00    +0.030 C 
ATOM     28  C   UNL     1      34.925 -17.350 -23.702  0.00  0.00    +0.140 C 
ENDBRANCH  19  23
ENDBRANCH  15  17
ENDBRANCH   1  15
TORSDOF 5
ENDMDL
MODEL 5
REMARK VINA RESULT:     -11.5      6.447     11.903
REMARK  Name = 6918388
REMARK  5 active torsions:
REMARK  status: ('A' for Active; 'I' for Inactive)
REMARK    1  A    between atoms: N_1  and  C_4
REMARK    2  A    between atoms: N_1  and  C_15
REMARK    3  A    between atoms: C_4  and  C_6
REMARK    4  A    between atoms: C_15  and  C_17
REMARK    5  A    between atoms: C_19  and  C_23
REMARK                            x       y       z     vdW  Elec       q    Type
REMARK                         _______ _______ _______ _____ _____    ______ ____
ROOT
ATOM      1  N   UNL     1      33.866 -23.195 -18.032  0.00  0.00    +0.389 N 
ATOM      2  H   UNL     1      34.060 -24.060 -18.536  0.00  0.00    -0.084 HD
ATOM      3  H   UNL     1      34.721 -22.828 -17.612  0.00  0.00    -0.084 HD
ENDROOT
BRANCH   1   4
ATOM      4  C   UNL     1      32.908 -23.466 -16.970  0.00  0.00    -0.037 C 
BRANCH   4   6
ATOM      5  O   UNL     1      34.705 -24.433 -15.739  0.00  0.00    -0.482 OA
ATOM      6  C   UNL     1      33.598 -23.527 -15.613  0.00  0.00    +0.145 C 
ATOM      7  C   UNL     1      32.626 -23.987 -14.528  0.00  0.00    +0.046 C 
ATOM      8  C   UNL     1      33.340 -23.983 -13.183  0.00  0.00    +0.033 C 
ATOM      9  C   UNL     1      34.695 -24.621 -13.305  0.00  0.00    +0.012 C 
ATOM     10  C   UNL     1      35.297 -24.797 -14.558  0.00  0.00    +0.134 C 
ATOM     11  C   UNL     1      35.384 -25.023 -12.154  0.00  0.00    -0.001 C 
ATOM     12  C   UNL     1      36.551 -25.404 -14.657  0.00  0.00    +0.037 C 
ATOM     13  C   UNL     1      36.643 -25.617 -12.254  0.00  0.00    -0.000 C 
ATOM     14  C   UNL     1      37.223 -25.811 -13.506  0.00  0.00    +0.003 C 
ENDBRANCH   4   6
ENDBRANCH   1   4
BRANCH   1  15
ATOM     15  C   UNL     1      33.346 -22.205 -18.965  0.00  0.00    -0.053 C 
BRANCH  15  17
ATOM     16  N   UNL     1      36.754 -20.707 -19.543  0.00  0.00    -0.243 NA
ATOM     17  C   UNL     1      34.440 -21.350 -19.545  0.00  0.00    -0.025 C 
ATOM     18  C   UNL     1      34.164 -20.460 -20.565  0.00  0.00    -0.003 C 
ATOM     19  C   UNL     1      35.195 -19.684 -21.081  0.00  0.00    +0.019 C 
ATOM     20  C   UNL     1      35.726 -21.445 -19.066  0.00  0.00    +0.092 C 
ATOM     21  C   UNL     1      36.461 -19.843 -20.540  0.00  0.00    +0.099 C 
BRANCH  19  23
ATOM     22  F   UNL     1      34.273 -16.044 -25.204  0.00  0.00    -0.204 F 
ATOM     23  C   UNL     1      34.955 -18.740 -22.148  0.00  0.00    +0.002 C 
ATOM     24  C   UNL     1      34.380 -19.169 -23.346  0.00  0.00    +0.002 C 
ATOM     25  C   UNL     1      35.300 -17.398 -21.987  0.00  0.00    +0.002 C 
ATOM     26  C   UNL     1      34.149 -18.259 -24.377  0.00  0.00    +0.030 C 
ATOM     27  C   UNL     1      35.070 -16.487 -23.019  0.00  0.00    +0.030 C 
ATOM     28  C   UNL     1      34.495 -16.918 -24.213  0.00  0.00    +0.140 C 
ENDBRANCH  19  23
ENDBRANCH  15  17
ENDBRANCH   1  15
TORSDOF 5
ENDMDL
MODEL 6
REMARK VINA RESULT:     -11.5      5.147      8.333
REMARK  Name = 6918388
REMARK  5 active torsions:
REMARK  status: ('A' for Active; 'I' for Inactive)
REMARK    1  A    between atoms: N_1  and  C_4
REMARK    2  A    between atoms: N_1  and  C_15
REMARK    3  A    between atoms: C_4  and  C_6
REMARK    4  A    between atoms: C_15  and  C_17
REMARK    5  A    between atoms: C_19  and  C_23
REMARK                            x       y       z     vdW  Elec       q    Type
REMARK                         _______ _______ _______ _____ _____    ______ ____
ROOT
ATOM      1  N   UNL     1      35.022 -20.300 -20.109  0.00  0.00    +0.389 N 
ATOM      2  H   UNL     1      34.273 -20.029 -20.746  0.00  0.00    -0.084 HD
ATOM      3  H   UNL     1      34.870 -19.894 -19.186  0.00  0.00    -0.084 HD
ENDROOT
BRANCH   1   4
ATOM      4  C   UNL     1      36.290 -19.810 -20.629  0.00  0.00    -0.037 C 
BRANCH   4   6
ATOM      5  O   UNL     1      35.415 -17.594 -20.558  0.00  0.00    -0.482 OA
ATOM      6  C   UNL     1      36.096 -18.521 -21.417  0.00  0.00    +0.145 C 
ATOM      7  C   UNL     1      35.300 -18.780 -22.696  0.00  0.00    +0.046 C 
ATOM      8  C   UNL     1      35.174 -17.479 -23.479  0.00  0.00    +0.033 C 
ATOM      9  C   UNL     1      34.792 -16.350 -22.564  0.00  0.00    +0.012 C 
ATOM     10  C   UNL     1      34.942 -16.466 -21.177  0.00  0.00    +0.134 C 
ATOM     11  C   UNL     1      34.302 -15.152 -23.101  0.00  0.00    -0.001 C 
ATOM     12  C   UNL     1      34.569 -15.413 -20.338  0.00  0.00    +0.037 C 
ATOM     13  C   UNL     1      33.943 -14.097 -22.262  0.00  0.00    -0.000 C 
ATOM     14  C   UNL     1      34.073 -14.229 -20.881  0.00  0.00    +0.003 C 
ENDBRANCH   4   6
ENDBRANCH   1   4
BRANCH   1  15
ATOM     15  C   UNL     1      35.036 -21.751 -19.981  0.00  0.00    -0.053 C 
BRANCH  15  17
ATOM     16  N   UNL     1      36.650 -22.483 -16.656  0.00  0.00    -0.243 NA
ATOM     17  C   UNL     1      35.203 -22.186 -18.549  0.00  0.00    -0.025 C 
ATOM     18  C   UNL     1      34.123 -22.668 -17.836  0.00  0.00    -0.003 C 
ATOM     19  C   UNL     1      34.307 -23.062 -16.516  0.00  0.00    +0.019 C 
ATOM     20  C   UNL     1      36.433 -22.110 -17.937  0.00  0.00    +0.092 C 
ATOM     21  C   UNL     1      35.579 -22.951 -15.977  0.00  0.00    +0.099 C 
BRANCH  19  23
ATOM     22  F   UNL     1      30.066 -25.034 -13.479  0.00  0.00    -0.204 F 
ATOM     23  C   UNL     1      33.208 -23.571 -15.729  0.00  0.00    +0.002 C 
ATOM     24  C   UNL     1      33.457 -24.230 -14.523  0.00  0.00    +0.002 C 
ATOM     25  C   UNL     1      31.894 -23.410 -16.172  0.00  0.00    +0.002 C 
ATOM     26  C   UNL     1      32.396 -24.724 -13.764  0.00  0.00    +0.030 C 
ATOM     27  C   UNL     1      30.833 -23.903 -15.413  0.00  0.00    +0.030 C 
ATOM     28  C   UNL     1      31.085 -24.560 -14.209  0.00  0.00    +0.140 C 
ENDBRANCH  19  23
ENDBRANCH  15  17
ENDBRANCH   1  15
TORSDOF 5
ENDMDL
MODEL 7
REMARK VINA RESULT:     -11.3      4.880      8.318
REMARK  Name = 6918388
REMARK  5 active torsions:
REMARK  status: ('A' for Active; 'I' for Inactive)
REMARK    1  A    between atoms: N_1  and  C_4
REMARK    2  A    between atoms: N_1  and  C_15
REMARK    3  A    between atoms: C_4  and  C_6
REMARK    4  A    between atoms: C_15  and  C_17
REMARK    5  A    between atoms: C_19  and  C_23
REMARK                            x       y       z     vdW  Elec       q    Type
REMARK                         _______ _______ _______ _____ _____    ______ ____
ROOT
ATOM      1  N   UNL     1      35.377 -20.204 -20.321  0.00  0.00    +0.389 N 
ATOM      2  H   UNL     1      34.860 -20.551 -21.127  0.00  0.00    -0.084 HD
ATOM      3  H   UNL     1      34.757 -19.690 -19.694  0.00  0.00    -0.084 HD
ENDROOT
BRANCH   1   4
ATOM      4  C   UNL     1      36.425 -19.302 -20.777  0.00  0.00    -0.037 C 
BRANCH   4   6
ATOM      5  O   UNL     1      35.539 -17.291 -21.697  0.00  0.00    -0.482 OA
ATOM      6  C   UNL     1      36.015 -18.594 -22.062  0.00  0.00    +0.145 C 
ATOM      7  C   UNL     1      34.941 -19.390 -22.803  0.00  0.00    +0.046 C 
ATOM      8  C   UNL     1      34.599 -18.677 -24.105  0.00  0.00    +0.033 C 
ATOM      9  C   UNL     1      34.420 -17.205 -23.866  0.00  0.00    +0.012 C 
ATOM     10  C   UNL     1      34.903 -16.602 -22.697  0.00  0.00    +0.134 C 
ATOM     11  C   UNL     1      33.787 -16.412 -24.832  0.00  0.00    -0.001 C 
ATOM     12  C   UNL     1      34.718 -15.234 -22.483  0.00  0.00    +0.037 C 
ATOM     13  C   UNL     1      33.614 -15.044 -24.622  0.00  0.00    -0.000 C 
ATOM     14  C   UNL     1      34.076 -14.457 -23.446  0.00  0.00    +0.003 C 
ENDBRANCH   4   6
ENDBRANCH   1   4
BRANCH   1  15
ATOM     15  C   UNL     1      35.940 -21.332 -19.592  0.00  0.00    -0.053 C 
BRANCH  15  17
ATOM     16  N   UNL     1      32.639 -22.703 -18.399  0.00  0.00    -0.243 NA
ATOM     17  C   UNL     1      34.915 -22.005 -18.718  0.00  0.00    -0.025 C 
ATOM     18  C   UNL     1      35.276 -22.520 -17.489  0.00  0.00    -0.003 C 
ATOM     19  C   UNL     1      34.308 -23.136 -16.704  0.00  0.00    +0.019 C 
ATOM     20  C   UNL     1      33.608 -22.112 -19.134  0.00  0.00    +0.092 C 
ATOM     21  C   UNL     1      33.015 -23.201 -17.200  0.00  0.00    +0.099 C 
BRANCH  19  23
ATOM     22  F   UNL     1      35.583 -25.281 -11.717  0.00  0.00    -0.204 F 
ATOM     23  C   UNL     1      34.637 -23.690 -15.412  0.00  0.00    +0.002 C 
ATOM     24  C   UNL     1      35.967 -23.971 -15.089  0.00  0.00    +0.002 C 
ATOM     25  C   UNL     1      33.629 -23.949 -14.482  0.00  0.00    +0.002 C 
ATOM     26  C   UNL     1      36.286 -24.508 -13.842  0.00  0.00    +0.030 C 
ATOM     27  C   UNL     1      33.948 -24.486 -13.234  0.00  0.00    +0.030 C 
ATOM     28  C   UNL     1      35.277 -24.765 -12.915  0.00  0.00    +0.140 C 
ENDBRANCH  19  23
ENDBRANCH  15  17
ENDBRANCH   1  15
TORSDOF 5
ENDMDL
MODEL 8
REMARK VINA RESULT:     -11.3      6.111     11.311
REMARK  Name = 6918388
REMARK  5 active torsions:
REMARK  status: ('A' for Active; 'I' for Inactive)
REMARK    1  A    between atoms: N_1  and  C_4
REMARK    2  A    between atoms: N_1  and  C_15
REMARK    3  A    between atoms: C_4  and  C_6
REMARK    4  A    between atoms: C_15  and  C_17
REMARK    5  A    between atoms: C_19  and  C_23
REMARK                            x       y       z     vdW  Elec       q    Type
REMARK                         _______ _______ _______ _____ _____    ______ ____
ROOT
ATOM      1  N   UNL     1      34.343 -22.971 -18.636  0.00  0.00    +0.389 N 
ATOM      2  H   UNL     1      33.715 -23.772 -18.682  0.00  0.00    -0.084 HD
ATOM      3  H   UNL     1      35.220 -23.177 -19.113  0.00  0.00    -0.084 HD
ENDROOT
BRANCH   1   4
ATOM      4  C   UNL     1      34.633 -22.671 -17.241  0.00  0.00    -0.037 C 
BRANCH   4   6
ATOM      5  O   UNL     1      32.531 -23.364 -16.357  0.00  0.00    -0.482 OA
ATOM      6  C   UNL     1      33.935 -23.659 -16.314  0.00  0.00    +0.145 C 
ATOM      7  C   UNL     1      34.482 -23.550 -14.892  0.00  0.00    +0.046 C 
ATOM      8  C   UNL     1      33.798 -24.589 -14.012  0.00  0.00    +0.033 C 
ATOM      9  C   UNL     1      32.316 -24.588 -14.255  0.00  0.00    +0.012 C 
ATOM     10  C   UNL     1      31.775 -23.994 -15.403  0.00  0.00    +0.134 C 
ATOM     11  C   UNL     1      31.458 -25.212 -13.340  0.00  0.00    -0.001 C 
ATOM     12  C   UNL     1      30.393 -23.989 -15.609  0.00  0.00    +0.037 C 
ATOM     13  C   UNL     1      30.079 -25.217 -13.554  0.00  0.00    -0.000 C 
ATOM     14  C   UNL     1      29.547 -24.603 -14.686  0.00  0.00    +0.003 C 
ENDBRANCH   4   6
ENDBRANCH   1   4
BRANCH   1  15
ATOM     15  C   UNL     1      33.714 -21.833 -19.294  0.00  0.00    -0.053 C 
BRANCH  15  17
ATOM     16  N   UNL     1      36.999 -20.114 -19.964  0.00  0.00    -0.243 NA
ATOM     17  C   UNL     1      34.731 -20.900 -19.895  0.00  0.00    -0.025 C 
ATOM     18  C   UNL     1      34.362 -20.009 -20.884  0.00  0.00    -0.003 C 
ATOM     19  C   UNL     1      35.322 -19.160 -21.421  0.00  0.00    +0.019 C 
ATOM     20  C   UNL     1      36.038 -20.923 -19.466  0.00  0.00    +0.092 C 
ATOM     21  C   UNL     1      36.615 -19.251 -20.931  0.00  0.00    +0.099 C 
BRANCH  19  23
ATOM     22  F   UNL     1      34.014 -15.498 -25.418  0.00  0.00    -0.204 F 
ATOM     23  C   UNL     1      34.984 -18.213 -22.457  0.00  0.00    +0.002 C 
ATOM     24  C   UNL     1      35.220 -16.850 -22.263  0.00  0.00    +0.002 C 
ATOM     25  C   UNL     1      34.418 -18.654 -23.654  0.00  0.00    +0.002 C 
ATOM     26  C   UNL     1      34.892 -15.934 -23.263  0.00  0.00    +0.030 C 
ATOM     27  C   UNL     1      34.091 -17.738 -24.654  0.00  0.00    +0.030 C 
ATOM     28  C   UNL     1      34.328 -16.378 -24.458  0.00  0.00    +0.140 C 
ENDBRANCH  19  23
ENDBRANCH  15  17
ENDBRANCH   1  15
TORSDOF 5
ENDMDL
MODEL 9
REMARK VINA RESULT:     -11.2      7.592     11.350
REMARK  Name = 6918388
REMARK  5 active torsions:
REMARK  status: ('A' for Active; 'I' for Inactive)
REMARK    1  A    between atoms: N_1  and  C_4
REMARK    2  A    between atoms: N_1  and  C_15
REMARK    3  A    between atoms: C_4  and  C_6
REMARK    4  A    between atoms: C_15  and  C_17
REMARK    5  A    between atoms: C_19  and  C_23
REMARK                            x       y       z     vdW  Elec       q    Type
REMARK                         _______ _______ _______ _____ _____    ______ ____
ROOT
ATOM      1  N   UNL     1      35.944 -22.282 -16.223  0.00  0.00    +0.389 N 
ATOM      2  H   UNL     1      35.049 -22.559 -16.626  0.00  0.00    -0.084 HD
ATOM      3  H   UNL     1      35.865 -21.370 -15.773  0.00  0.00    -0.084 HD
ENDROOT
BRANCH   1   4
ATOM      4  C   UNL     1      36.937 -22.192 -17.284  0.00  0.00    -0.037 C 
BRANCH   4   6
ATOM      5  O   UNL     1      36.824 -20.652 -19.099  0.00  0.00    -0.482 OA
ATOM      6  C   UNL     1      36.278 -21.891 -18.624  0.00  0.00    +0.145 C 
ATOM      7  C   UNL     1      34.759 -21.808 -18.477  0.00  0.00    +0.046 C 
ATOM      8  C   UNL     1      34.138 -21.560 -19.846  0.00  0.00    +0.033 C 
ATOM      9  C   UNL     1      34.888 -20.483 -20.576  0.00  0.00    +0.012 C 
ATOM     10  C   UNL     1      36.175 -20.103 -20.174  0.00  0.00    +0.134 C 
ATOM     11  C   UNL     1      34.310 -19.863 -21.692  0.00  0.00    -0.001 C 
ATOM     12  C   UNL     1      36.855 -19.090 -20.855  0.00  0.00    +0.037 C 
ATOM     13  C   UNL     1      34.997 -18.861 -22.379  0.00  0.00    -0.000 C 
ATOM     14  C   UNL     1      36.266 -18.472 -21.957  0.00  0.00    +0.003 C 
ENDBRANCH   4   6
ENDBRANCH   1   4
BRANCH   1  15
ATOM     15  C   UNL     1      36.339 -23.261 -15.220  0.00  0.00    -0.053 C 
BRANCH  15  17
ATOM     16  N   UNL     1      34.336 -24.688 -12.365  0.00  0.00    -0.243 NA
ATOM     17  C   UNL     1      35.164 -23.745 -14.413  0.00  0.00    -0.025 C 
ATOM     18  C   UNL     1      33.889 -23.701 -14.942  0.00  0.00    -0.003 C 
ATOM     19  C   UNL     1      32.823 -24.154 -14.174  0.00  0.00    +0.019 C 
ATOM     20  C   UNL     1      35.347 -24.238 -13.142  0.00  0.00    +0.092 C 
ATOM     21  C   UNL     1      33.097 -24.634 -12.902  0.00  0.00    +0.099 C 
BRANCH  19  23
ATOM     22  F   UNL     1      27.606 -24.056 -16.141  0.00  0.00    -0.204 F 
ATOM     23  C   UNL     1      31.472 -24.127 -14.683  0.00  0.00    +0.002 C 
ATOM     24  C   UNL     1      30.531 -25.051 -14.221  0.00  0.00    +0.002 C 
ATOM     25  C   UNL     1      31.102 -23.181 -15.640  0.00  0.00    +0.002 C 
ATOM     26  C   UNL     1      29.226 -25.026 -14.713  0.00  0.00    +0.030 C 
ATOM     27  C   UNL     1      29.796 -23.157 -16.132  0.00  0.00    +0.030 C 
ATOM     28  C   UNL     1      28.860 -24.080 -15.669  0.00  0.00    +0.140 C 
ENDBRANCH  19  23
ENDBRANCH  15  17
ENDBRANCH   1  15
TORSDOF 5
ENDMDL
