MODEL 1
REMARK VINA RESULT:     -11.4      0.000      0.000
REMARK  Name = 17754104
REMARK  13 active torsions:
REMARK  status: ('A' for Active; 'I' for Inactive)
REMARK    1  A    between atoms: C_1  and  C_29
REMARK    2  A    between atoms: C_3  and  N_11
REMARK    3  A    between atoms: C_4  and  O_7
REMARK    4  A    between atoms: C_5  and  O_9
REMARK    5  A    between atoms: C_13  and  C_14
REMARK    6  A    between atoms: C_13  and  C_17
REMARK    7  A    between atoms: C_14  and  C_16
REMARK    8  A    between atoms: C_17  and  O_18
REMARK    9  A    between atoms: O_18  and  C_21
REMARK   10  A    between atoms: C_29  and  CA_30
REMARK   11  A    between atoms: CA_30  and  N_31
REMARK   12  A    between atoms: CA_30  and  C_36
REMARK   13  A    between atoms: C_36  and  O_37
REMARK                            x       y       z     vdW  Elec       q    Type
REMARK                         _______ _______ _______ _____ _____    ______ ____
ROOT
ATOM      1  C   UNL     1      30.676 -24.428 -15.107  0.00  0.00    +0.012 C 
ATOM      2  C   UNL     1      31.878 -23.736 -15.260  0.00  0.00    +0.019 C 
ATOM      3  C   UNL     1      32.902 -23.906 -14.328  0.00  0.00    +0.090 C 
ATOM      4  C   UNL     1      30.499 -25.290 -14.025  0.00  0.00    +0.133 C 
ATOM      5  C   UNL     1      32.726 -24.768 -13.246  0.00  0.00    +0.152 C 
ATOM      6  C   UNL     1      31.524 -25.459 -13.095  0.00  0.00    +0.074 C 
ENDROOT
BRANCH   3   7
ATOM      7  N   UNL     1      34.101 -23.208 -14.493  0.00  0.00    -0.354 N 
ATOM      8  H   UNL     1      34.136 -22.312 -14.086  0.00  0.00    +0.166 HD
ATOM      9  C   UNL     1      35.234 -23.611 -15.148  0.00  0.00    +0.063 C 
BRANCH   9  10
ATOM     10  C   UNL     1      35.672 -24.875 -15.284  0.00  0.00    +0.115 C 
BRANCH  10  12
ATOM     11  O   UNL     1      36.372 -25.340 -13.073  0.00  0.00    -0.288 OA
ATOM     12  C   UNL     1      36.492 -25.573 -14.271  0.00  0.00    +0.213 C 
ENDBRANCH  10  12
ENDBRANCH   9  10
BRANCH   9  13
ATOM     13  C   UNL     1      36.056 -22.491 -15.743  0.00  0.00    +0.245 C 
BRANCH  13  14
ATOM     14  O   UNL     1      36.465 -22.853 -17.061  0.00  0.00    -0.469 OA
BRANCH  14  17
ATOM     15  C   UNL     1      36.181 -20.476 -19.846  0.00  0.00    +0.003 C 
ATOM     16  C   UNL     1      34.831 -20.677 -20.219  0.00  0.00    +0.000 C 
ATOM     17  C   UNL     1      35.932 -22.143 -18.093  0.00  0.00    +0.139 C 
ATOM     18  C   UNL     1      36.716 -21.218 -18.780  0.00  0.00    +0.037 C 
ATOM     19  C   UNL     1      34.055 -21.613 -19.516  0.00  0.00    +0.003 C 
ATOM     20  C   UNL     1      34.604 -22.341 -18.460  0.00  0.00    +0.037 C 
ATOM     21  C   UNL     1      36.956 -19.540 -20.549  0.00  0.00    +0.000 C 
ATOM     22  C   UNL     1      34.295 -19.935 -21.285  0.00  0.00    +0.000 C 
ATOM     23  C   UNL     1      36.408 -18.811 -21.606  0.00  0.00    +0.000 C 
ATOM     24  C   UNL     1      35.080 -19.009 -21.973  0.00  0.00    +0.000 C 
ENDBRANCH  14  17
ENDBRANCH  13  14
ENDBRANCH   9  13
ENDBRANCH   3   7
BRANCH   4  25
ATOM     25  O   UNL     1      29.333 -25.975 -13.863  0.00  0.00    -0.506 OA
ATOM     26  H   UNL     1      29.348 -26.867 -13.578  0.00  0.00    +0.292 HD
ENDBRANCH   4  25
BRANCH   5  27
ATOM     27  O   UNL     1      33.715 -24.948 -12.327  0.00  0.00    -0.504 OA
ATOM     28  H   UNL     1      34.091 -25.797 -12.203  0.00  0.00    +0.292 HD
ENDBRANCH   5  27
BRANCH   1  29
ATOM     29  C   UNL     1      29.588 -24.233 -16.112  0.00  0.00    +0.018 C 
BRANCH  29  30
ATOM     30  CA  UNL     1      28.965 -22.821 -16.079  0.00  0.00    +0.040 C 
BRANCH  30  31
ATOM     31  N   UNL     1      28.714 -22.408 -14.700  0.00  0.00    +0.389 N 
ATOM     32  H1  UNL     1      27.798 -22.746 -14.406  0.00  0.00    -0.088 HD
ATOM     33  H2  UNL     1      28.736 -21.390 -14.640  0.00  0.00    -0.088 HD
ATOM     34  H3  UNL     1      29.432 -22.801 -14.092  0.00  0.00    -0.088 HD
ENDBRANCH  30  31
BRANCH  30  36
ATOM     35  OXT UNL     1      26.900 -21.793 -16.863  0.00  0.00    -0.253 OA
ATOM     36  C   UNL     1      27.626 -22.777 -16.796  0.00  0.00    +0.293 C 
BRANCH  36  37
ATOM     37  O   UNL     1      27.325 -23.956 -17.401  0.00  0.00    -0.482 OA
ATOM     38  H   UNL     1      27.995 -24.597 -17.536  0.00  0.00    +0.295 HD
ENDBRANCH  36  37
ENDBRANCH  30  36
ENDBRANCH  29  30
ENDBRANCH   1  29
TORSDOF 13
ENDMDL
MODEL 2
REMARK VINA RESULT:     -10.8      2.419      6.387
REMARK  Name = 17754104
REMARK  13 active torsions:
REMARK  status: ('A' for Active; 'I' for Inactive)
REMARK    1  A    between atoms: C_1  and  C_29
REMARK    2  A    between atoms: C_3  and  N_11
REMARK    3  A    between atoms: C_4  and  O_7
REMARK    4  A    between atoms: C_5  and  O_9
REMARK    5  A    between atoms: C_13  and  C_14
REMARK    6  A    between atoms: C_13  and  C_17
REMARK    7  A    between atoms: C_14  and  C_16
REMARK    8  A    between atoms: C_17  and  O_18
REMARK    9  A    between atoms: O_18  and  C_21
REMARK   10  A    between atoms: C_29  and  CA_30
REMARK   11  A    between atoms: CA_30  and  N_31
REMARK   12  A    between atoms: CA_30  and  C_36
REMARK   13  A    between atoms: C_36  and  O_37
REMARK                            x       y       z     vdW  Elec       q    Type
REMARK                         _______ _______ _______ _____ _____    ______ ____
ROOT
ATOM      1  C   UNL     1      36.953 -24.769 -13.106  0.00  0.00    +0.012 C 
ATOM      2  C   UNL     1      36.121 -24.706 -14.225  0.00  0.00    +0.019 C 
ATOM      3  C   UNL     1      34.737 -24.788 -14.069  0.00  0.00    +0.090 C 
ATOM      4  C   UNL     1      36.401 -24.913 -11.833  0.00  0.00    +0.133 C 
ATOM      5  C   UNL     1      34.185 -24.932 -12.796  0.00  0.00    +0.152 C 
ATOM      6  C   UNL     1      35.018 -24.995 -11.679  0.00  0.00    +0.074 C 
ENDROOT
BRANCH   3   7
ATOM      7  N   UNL     1      33.915 -24.724 -15.197  0.00  0.00    -0.354 N 
ATOM      8  H   UNL     1      33.915 -25.521 -15.774  0.00  0.00    +0.166 HD
ATOM      9  C   UNL     1      33.111 -23.693 -15.601  0.00  0.00    +0.063 C 
BRANCH   9  10
ATOM     10  C   UNL     1      32.498 -22.796 -14.806  0.00  0.00    +0.115 C 
BRANCH  10  12
ATOM     11  O   UNL     1      30.619 -23.533 -13.572  0.00  0.00    -0.288 OA
ATOM     12  C   UNL     1      31.056 -22.837 -14.483  0.00  0.00    +0.213 C 
ENDBRANCH  10  12
ENDBRANCH   9  10
BRANCH   9  13
ATOM     13  C   UNL     1      32.898 -23.600 -17.095  0.00  0.00    +0.245 C 
BRANCH  13  14
ATOM     14  O   UNL     1      34.160 -23.472 -17.747  0.00  0.00    -0.469 OA
BRANCH  14  17
ATOM     15  C   UNL     1      35.745 -20.844 -19.764  0.00  0.00    +0.003 C 
ATOM     16  C   UNL     1      34.610 -20.290 -20.402  0.00  0.00    +0.000 C 
ATOM     17  C   UNL     1      34.307 -22.434 -18.614  0.00  0.00    +0.139 C 
ATOM     18  C   UNL     1      35.576 -21.917 -18.873  0.00  0.00    +0.037 C 
ATOM     19  C   UNL     1      33.339 -20.823 -20.130  0.00  0.00    +0.003 C 
ATOM     20  C   UNL     1      33.190 -21.888 -19.242  0.00  0.00    +0.037 C 
ATOM     21  C   UNL     1      37.015 -20.311 -20.036  0.00  0.00    +0.000 C 
ATOM     22  C   UNL     1      34.778 -19.217 -21.293  0.00  0.00    +0.000 C 
ATOM     23  C   UNL     1      37.165 -19.245 -20.924  0.00  0.00    +0.000 C 
ATOM     24  C   UNL     1      36.048 -18.700 -21.551  0.00  0.00    +0.000 C 
ENDBRANCH  14  17
ENDBRANCH  13  14
ENDBRANCH   9  13
ENDBRANCH   3   7
BRANCH   4  25
ATOM     25  O   UNL     1      37.199 -24.974 -10.731  0.00  0.00    -0.506 OA
ATOM     26  H   UNL     1      37.971 -24.445 -10.681  0.00  0.00    +0.292 HD
ENDBRANCH   4  25
BRANCH   5  27
ATOM     27  O   UNL     1      32.836 -25.013 -12.624  0.00  0.00    -0.504 OA
ATOM     28  H   UNL     1      32.302 -24.252 -12.738  0.00  0.00    +0.292 HD
ENDBRANCH   5  27
BRANCH   1  29
ATOM     29  C   UNL     1      38.432 -24.682 -13.291  0.00  0.00    +0.018 C 
BRANCH  29  30
ATOM     30  CA  UNL     1      39.002 -25.771 -14.225  0.00  0.00    +0.040 C 
BRANCH  30  31
ATOM     31  N   UNL     1      38.447 -27.079 -13.881  0.00  0.00    +0.389 N 
ATOM     32  H1  UNL     1      38.752 -27.340 -12.943  0.00  0.00    -0.088 HD
ATOM     33  H2  UNL     1      38.774 -27.774 -14.551  0.00  0.00    -0.088 HD
ATOM     34  H3  UNL     1      37.429 -27.032 -13.906  0.00  0.00    -0.088 HD
ENDBRANCH  30  31
BRANCH  30  36
ATOM     35  OXT UNL     1      41.112 -26.933 -13.864  0.00  0.00    -0.253 OA
ATOM     36  C   UNL     1      40.511 -25.892 -14.099  0.00  0.00    +0.293 C 
BRANCH  36  37
ATOM     37  O   UNL     1      41.144 -24.709 -14.311  0.00  0.00    -0.482 OA
ATOM     38  H   UNL     1      41.262 -24.392 -15.185  0.00  0.00    +0.295 HD
ENDBRANCH  36  37
ENDBRANCH  30  36
ENDBRANCH  29  30
ENDBRANCH   1  29
TORSDOF 13
ENDMDL
MODEL 3
REMARK VINA RESULT:     -10.6      3.287      5.996
REMARK  Name = 17754104
REMARK  13 active torsions:
REMARK  status: ('A' for Active; 'I' for Inactive)
REMARK    1  A    between atoms: C_1  and  C_29
REMARK    2  A    between atoms: C_3  and  N_11
REMARK    3  A    between atoms: C_4  and  O_7
REMARK    4  A    between atoms: C_5  and  O_9
REMARK    5  A    between atoms: C_13  and  C_14
REMARK    6  A    between atoms: C_13  and  C_17
REMARK    7  A    between atoms: C_14  and  C_16
REMARK    8  A    between atoms: C_17  and  O_18
REMARK    9  A    between atoms: O_18  and  C_21
REMARK   10  A    between atoms: C_29  and  CA_30
REMARK   11  A    between atoms: CA_30  and  N_31
REMARK   12  A    between atoms: CA_30  and  C_36
REMARK   13  A    between atoms: C_36  and  O_37
REMARK                            x       y       z     vdW  Elec       q    Type
REMARK                         _______ _______ _______ _____ _____    ______ ____
ROOT
ATOM      1  C   UNL     1      36.784 -26.015 -13.275  0.00  0.00    +0.012 C 
ATOM      2  C   UNL     1      35.980 -25.470 -14.277  0.00  0.00    +0.019 C 
ATOM      3  C   UNL     1      34.854 -24.721 -13.935  0.00  0.00    +0.090 C 
ATOM      4  C   UNL     1      36.462 -25.811 -11.934  0.00  0.00    +0.133 C 
ATOM      5  C   UNL     1      34.532 -24.517 -12.593  0.00  0.00    +0.152 C 
ATOM      6  C   UNL     1      35.336 -25.063 -11.593  0.00  0.00    +0.074 C 
ENDROOT
BRANCH   3   7
ATOM      7  N   UNL     1      34.057 -24.180 -14.947  0.00  0.00    -0.354 N 
ATOM      8  H   UNL     1      33.135 -24.522 -14.998  0.00  0.00    +0.166 HD
ATOM      9  C   UNL     1      34.396 -23.236 -15.879  0.00  0.00    +0.063 C 
BRANCH   9  10
ATOM     10  C   UNL     1      35.293 -22.245 -15.724  0.00  0.00    +0.115 C 
BRANCH  10  12
ATOM     11  O   UNL     1      37.479 -22.686 -14.933  0.00  0.00    -0.288 OA
ATOM     12  C   UNL     1      36.752 -22.426 -15.886  0.00  0.00    +0.213 C 
ENDBRANCH  10  12
ENDBRANCH   9  10
BRANCH   9  13
ATOM     13  C   UNL     1      33.650 -23.338 -17.189  0.00  0.00    +0.245 C 
BRANCH  13  14
ATOM     14  O   UNL     1      34.583 -23.335 -18.268  0.00  0.00    -0.469 OA
BRANCH  14  17
ATOM     15  C   UNL     1      35.860 -20.489 -20.206  0.00  0.00    +0.003 C 
ATOM     16  C   UNL     1      34.650 -19.956 -20.709  0.00  0.00    +0.000 C 
ATOM     17  C   UNL     1      34.605 -22.233 -19.066  0.00  0.00    +0.139 C 
ATOM     18  C   UNL     1      35.820 -21.629 -19.385  0.00  0.00    +0.037 C 
ATOM     19  C   UNL     1      33.435 -20.578 -20.377  0.00  0.00    +0.003 C 
ATOM     20  C   UNL     1      33.414 -21.709 -19.561  0.00  0.00    +0.037 C 
ATOM     21  C   UNL     1      37.075 -19.868 -20.538  0.00  0.00    +0.000 C 
ATOM     22  C   UNL     1      34.690 -18.817 -21.530  0.00  0.00    +0.000 C 
ATOM     23  C   UNL     1      37.097 -18.737 -21.354  0.00  0.00    +0.000 C 
ATOM     24  C   UNL     1      35.906 -18.213 -21.849  0.00  0.00    +0.000 C 
ENDBRANCH  14  17
ENDBRANCH  13  14
ENDBRANCH   9  13
ENDBRANCH   3   7
BRANCH   4  25
ATOM     25  O   UNL     1      37.238 -26.335 -10.944  0.00  0.00    -0.506 OA
ATOM     26  H   UNL     1      37.263 -25.926 -10.101  0.00  0.00    +0.292 HD
ENDBRANCH   4  25
BRANCH   5  27
ATOM     27  O   UNL     1      33.437 -23.787 -12.240  0.00  0.00    -0.504 OA
ATOM     28  H   UNL     1      32.603 -24.206 -12.152  0.00  0.00    +0.292 HD
ENDBRANCH   5  27
BRANCH   1  29
ATOM     29  C   UNL     1      37.985 -26.816 -13.658  0.00  0.00    +0.018 C 
BRANCH  29  30
ATOM     30  CA  UNL     1      39.312 -26.040 -13.523  0.00  0.00    +0.040 C 
BRANCH  30  31
ATOM     31  N   UNL     1      39.097 -24.782 -12.812  0.00  0.00    +0.389 N 
ATOM     32  H1  UNL     1      39.829 -24.657 -12.114  0.00  0.00    -0.088 HD
ATOM     33  H2  UNL     1      38.187 -24.803 -12.351  0.00  0.00    -0.088 HD
ATOM     34  H3  UNL     1      39.125 -24.008 -13.476  0.00  0.00    -0.088 HD
ENDBRANCH  30  31
BRANCH  30  36
ATOM     35  OXT UNL     1      40.634 -26.400 -15.538  0.00  0.00    -0.253 OA
ATOM     36  C   UNL     1      39.896 -25.679 -14.879  0.00  0.00    +0.293 C 
BRANCH  36  37
ATOM     37  O   UNL     1      39.478 -24.460 -15.313  0.00  0.00    -0.482 OA
ATOM     38  H   UNL     1      39.295 -23.781 -14.695  0.00  0.00    +0.295 HD
ENDBRANCH  36  37
ENDBRANCH  30  36
ENDBRANCH  29  30
ENDBRANCH   1  29
TORSDOF 13
ENDMDL
MODEL 4
REMARK VINA RESULT:     -10.1      3.016      5.682
REMARK  Name = 17754104
REMARK  13 active torsions:
REMARK  status: ('A' for Active; 'I' for Inactive)
REMARK    1  A    between atoms: C_1  and  C_29
REMARK    2  A    between atoms: C_3  and  N_11
REMARK    3  A    between atoms: C_4  and  O_7
REMARK    4  A    between atoms: C_5  and  O_9
REMARK    5  A    between atoms: C_13  and  C_14
REMARK    6  A    between atoms: C_13  and  C_17
REMARK    7  A    between atoms: C_14  and  C_16
REMARK    8  A    between atoms: C_17  and  O_18
REMARK    9  A    between atoms: O_18  and  C_21
REMARK   10  A    between atoms: C_29  and  CA_30
REMARK   11  A    between atoms: CA_30  and  N_31
REMARK   12  A    between atoms: CA_30  and  C_36
REMARK   13  A    between atoms: C_36  and  O_37
REMARK                            x       y       z     vdW  Elec       q    Type
REMARK                         _______ _______ _______ _____ _____    ______ ____
ROOT
ATOM      1  C   UNL     1      37.279 -24.995 -12.840  0.00  0.00    +0.012 C 
ATOM      2  C   UNL     1      36.300 -24.586 -13.745  0.00  0.00    +0.019 C 
ATOM      3  C   UNL     1      35.981 -25.393 -14.837  0.00  0.00    +0.090 C 
ATOM      4  C   UNL     1      37.939 -26.210 -13.027  0.00  0.00    +0.133 C 
ATOM      5  C   UNL     1      36.640 -26.608 -15.025  0.00  0.00    +0.152 C 
ATOM      6  C   UNL     1      37.620 -27.015 -14.119  0.00  0.00    +0.074 C 
ENDROOT
BRANCH   3   7
ATOM      7  N   UNL     1      34.997 -24.972 -15.736  0.00  0.00    -0.354 N 
ATOM      8  H   UNL     1      35.081 -25.313 -16.656  0.00  0.00    +0.166 HD
ATOM      9  C   UNL     1      33.932 -24.144 -15.501  0.00  0.00    +0.063 C 
BRANCH   9  10
ATOM     10  C   UNL     1      33.271 -24.002 -14.337  0.00  0.00    +0.115 C 
BRANCH  10  12
ATOM     11  O   UNL     1      32.289 -25.343 -12.654  0.00  0.00    -0.288 OA
ATOM     12  C   UNL     1      32.289 -24.983 -13.826  0.00  0.00    +0.213 C 
ENDBRANCH  10  12
ENDBRANCH   9  10
BRANCH   9  13
ATOM     13  C   UNL     1      33.471 -23.345 -16.698  0.00  0.00    +0.245 C 
BRANCH  13  14
ATOM     14  O   UNL     1      34.455 -23.424 -17.728  0.00  0.00    -0.469 OA
BRANCH  14  17
ATOM     15  C   UNL     1      35.786 -20.746 -19.861  0.00  0.00    +0.003 C 
ATOM     16  C   UNL     1      34.594 -20.280 -20.463  0.00  0.00    +0.000 C 
ATOM     17  C   UNL     1      34.500 -22.398 -18.621  0.00  0.00    +0.139 C 
ATOM     18  C   UNL     1      35.722 -21.807 -18.942  0.00  0.00    +0.037 C 
ATOM     19  C   UNL     1      33.372 -20.887 -20.129  0.00  0.00    +0.003 C 
ATOM     20  C   UNL     1      33.327 -21.940 -19.214  0.00  0.00    +0.037 C 
ATOM     21  C   UNL     1      37.007 -20.139 -20.195  0.00  0.00    +0.000 C 
ATOM     22  C   UNL     1      34.657 -19.220 -21.382  0.00  0.00    +0.000 C 
ATOM     23  C   UNL     1      37.052 -19.087 -21.110  0.00  0.00    +0.000 C 
ATOM     24  C   UNL     1      35.879 -18.628 -21.702  0.00  0.00    +0.000 C 
ENDBRANCH  14  17
ENDBRANCH  13  14
ENDBRANCH   9  13
ENDBRANCH   3   7
BRANCH   4  25
ATOM     25  O   UNL     1      38.897 -26.624 -12.151  0.00  0.00    -0.506 OA
ATOM     26  H   UNL     1      39.567 -26.031 -11.874  0.00  0.00    +0.292 HD
ENDBRANCH   4  25
BRANCH   5  27
ATOM     27  O   UNL     1      36.342 -27.409 -16.085  0.00  0.00    -0.504 OA
ATOM     28  H   UNL     1      36.532 -28.325 -16.049  0.00  0.00    +0.292 HD
ENDBRANCH   5  27
BRANCH   1  29
ATOM     29  C   UNL     1      37.610 -24.119 -11.677  0.00  0.00    +0.018 C 
BRANCH  29  30
ATOM     30  CA  UNL     1      36.367 -23.571 -10.944  0.00  0.00    +0.040 C 
BRANCH  30  31
ATOM     31  N   UNL     1      36.768 -22.693  -9.847  0.00  0.00    +0.389 N 
ATOM     32  H1  UNL     1      36.485 -23.108  -8.959  0.00  0.00    -0.088 HD
ATOM     33  H2  UNL     1      36.319 -21.784  -9.957  0.00  0.00    -0.088 HD
ATOM     34  H3  UNL     1      37.781 -22.576  -9.860  0.00  0.00    -0.088 HD
ENDBRANCH  30  31
BRANCH  30  36
ATOM     35  OXT UNL     1      35.519 -24.965  -9.135  0.00  0.00    -0.253 OA
ATOM     36  C   UNL     1      35.538 -24.686 -10.327  0.00  0.00    +0.293 C 
BRANCH  36  37
ATOM     37  O   UNL     1      34.776 -25.333 -11.247  0.00  0.00    -0.482 OA
ATOM     38  H   UNL     1      33.854 -25.173 -11.286  0.00  0.00    +0.295 HD
ENDBRANCH  36  37
ENDBRANCH  30  36
ENDBRANCH  29  30
ENDBRANCH   1  29
TORSDOF 13
ENDMDL
MODEL 5
REMARK VINA RESULT:     -10.0      8.327     12.521
REMARK  Name = 17754104
REMARK  13 active torsions:
REMARK  status: ('A' for Active; 'I' for Inactive)
REMARK    1  A    between atoms: C_1  and  C_29
REMARK    2  A    between atoms: C_3  and  N_11
REMARK    3  A    between atoms: C_4  and  O_7
REMARK    4  A    between atoms: C_5  and  O_9
REMARK    5  A    between atoms: C_13  and  C_14
REMARK    6  A    between atoms: C_13  and  C_17
REMARK    7  A    between atoms: C_14  and  C_16
REMARK    8  A    between atoms: C_17  and  O_18
REMARK    9  A    between atoms: O_18  and  C_21
REMARK   10  A    between atoms: C_29  and  CA_30
REMARK   11  A    between atoms: CA_30  and  N_31
REMARK   12  A    between atoms: CA_30  and  C_36
REMARK   13  A    between atoms: C_36  and  O_37
REMARK                            x       y       z     vdW  Elec       q    Type
REMARK                         _______ _______ _______ _____ _____    ______ ____
ROOT
ATOM      1  C   UNL     1      32.705 -11.264 -22.621  0.00  0.00    +0.012 C 
ATOM      2  C   UNL     1      33.392 -12.469 -22.768  0.00  0.00    +0.019 C 
ATOM      3  C   UNL     1      33.159 -13.517 -21.877  0.00  0.00    +0.090 C 
ATOM      4  C   UNL     1      31.784 -11.107 -21.585  0.00  0.00    +0.133 C 
ATOM      5  C   UNL     1      32.238 -13.360 -20.841  0.00  0.00    +0.152 C 
ATOM      6  C   UNL     1      31.552 -12.155 -20.695  0.00  0.00    +0.074 C 
ENDROOT
BRANCH   3   7
ATOM      7  N   UNL     1      33.853 -14.719 -22.035  0.00  0.00    -0.354 N 
ATOM      8  H   UNL     1      34.204 -15.124 -21.209  0.00  0.00    +0.166 HD
ATOM      9  C   UNL     1      34.108 -15.404 -23.192  0.00  0.00    +0.063 C 
BRANCH   9  10
ATOM     10  C   UNL     1      33.339 -15.424 -24.296  0.00  0.00    +0.115 C 
BRANCH  10  12
ATOM     11  O   UNL     1      33.132 -13.797 -26.001  0.00  0.00    -0.288 OA
ATOM     12  C   UNL     1      33.722 -14.784 -25.574  0.00  0.00    +0.213 C 
ENDBRANCH  10  12
ENDBRANCH   9  10
BRANCH   9  13
ATOM     13  C   UNL     1      35.377 -16.225 -23.179  0.00  0.00    +0.245 C 
BRANCH  13  14
ATOM     14  O   UNL     1      35.056 -17.599 -23.387  0.00  0.00    -0.469 OA
BRANCH  14  17
ATOM     15  C   UNL     1      34.665 -20.155 -20.779  0.00  0.00    +0.003 C 
ATOM     16  C   UNL     1      35.997 -20.253 -20.313  0.00  0.00    +0.000 C 
ATOM     17  C   UNL     1      35.364 -18.466 -22.384  0.00  0.00    +0.139 C 
ATOM     18  C   UNL     1      34.365 -19.256 -21.816  0.00  0.00    +0.037 C 
ATOM     19  C   UNL     1      36.991 -19.450 -20.897  0.00  0.00    +0.003 C 
ATOM     20  C   UNL     1      36.675 -18.563 -21.926  0.00  0.00    +0.037 C 
ATOM     21  C   UNL     1      33.672 -20.958 -20.195  0.00  0.00    +0.000 C 
ATOM     22  C   UNL     1      36.298 -21.152 -19.276  0.00  0.00    +0.000 C 
ATOM     23  C   UNL     1      33.988 -21.845 -19.166  0.00  0.00    +0.000 C 
ATOM     24  C   UNL     1      35.299 -21.942 -18.708  0.00  0.00    +0.000 C 
ENDBRANCH  14  17
ENDBRANCH  13  14
ENDBRANCH   9  13
ENDBRANCH   3   7
BRANCH   4  25
ATOM     25  O   UNL     1      31.104  -9.937 -21.429  0.00  0.00    -0.506 OA
ATOM     26  H   UNL     1      30.269  -9.822 -21.839  0.00  0.00    +0.292 HD
ENDBRANCH   4  25
BRANCH   5  27
ATOM     27  O   UNL     1      31.996 -14.372 -19.961  0.00  0.00    -0.504 OA
ATOM     28  H   UNL     1      31.511 -15.126 -20.235  0.00  0.00    +0.292 HD
ENDBRANCH   5  27
BRANCH   1  29
ATOM     29  C   UNL     1      32.968 -10.152 -23.582  0.00  0.00    +0.018 C 
BRANCH  29  30
ATOM     30  CA  UNL     1      33.716  -8.957 -22.952  0.00  0.00    +0.040 C 
BRANCH  30  31
ATOM     31  N   UNL     1      32.900  -7.747 -23.031  0.00  0.00    +0.389 N 
ATOM     32  H1  UNL     1      31.930  -7.977 -22.813  0.00  0.00    -0.088 HD
ATOM     33  H2  UNL     1      32.955  -7.360 -23.972  0.00  0.00    -0.088 HD
ATOM     34  H3  UNL     1      33.245  -7.061 -22.359  0.00  0.00    -0.088 HD
ENDBRANCH  30  31
BRANCH  30  36
ATOM     35  OXT UNL     1      35.321  -7.560 -24.137  0.00  0.00    -0.253 OA
ATOM     36  C   UNL     1      35.014  -8.654 -23.681  0.00  0.00    +0.293 C 
BRANCH  36  37
ATOM     37  O   UNL     1      35.834  -9.735 -23.747  0.00  0.00    -0.482 OA
ATOM     38  H   UNL     1      36.287 -10.026 -22.981  0.00  0.00    +0.295 HD
ENDBRANCH  36  37
ENDBRANCH  30  36
ENDBRANCH  29  30
ENDBRANCH   1  29
TORSDOF 13
ENDMDL
MODEL 6
REMARK VINA RESULT:      -9.8      2.539      5.810
REMARK  Name = 17754104
REMARK  13 active torsions:
REMARK  status: ('A' for Active; 'I' for Inactive)
REMARK    1  A    between atoms: C_1  and  C_29
REMARK    2  A    between atoms: C_3  and  N_11
REMARK    3  A    between atoms: C_4  and  O_7
REMARK    4  A    between atoms: C_5  and  O_9
REMARK    5  A    between atoms: C_13  and  C_14
REMARK    6  A    between atoms: C_13  and  C_17
REMARK    7  A    between atoms: C_14  and  C_16
REMARK    8  A    between atoms: C_17  and  O_18
REMARK    9  A    between atoms: O_18  and  C_21
REMARK   10  A    between atoms: C_29  and  CA_30
REMARK   11  A    between atoms: CA_30  and  N_31
REMARK   12  A    between atoms: CA_30  and  C_36
REMARK   13  A    between atoms: C_36  and  O_37
REMARK                            x       y       z     vdW  Elec       q    Type
REMARK                         _______ _______ _______ _____ _____    ______ ____
ROOT
ATOM      1  C   UNL     1      36.427 -24.827 -13.528  0.00  0.00    +0.012 C 
ATOM      2  C   UNL     1      35.295 -24.735 -14.339  0.00  0.00    +0.019 C 
ATOM      3  C   UNL     1      35.341 -23.986 -15.515  0.00  0.00    +0.090 C 
ATOM      4  C   UNL     1      37.602 -24.172 -13.893  0.00  0.00    +0.133 C 
ATOM      5  C   UNL     1      36.516 -23.331 -15.880  0.00  0.00    +0.152 C 
ATOM      6  C   UNL     1      37.646 -23.423 -15.068  0.00  0.00    +0.074 C 
ENDROOT
BRANCH   3   7
ATOM      7  N   UNL     1      34.200 -23.902 -16.318  0.00  0.00    -0.354 N 
ATOM      8  H   UNL     1      34.263 -24.336 -17.199  0.00  0.00    +0.166 HD
ATOM      9  C   UNL     1      33.008 -23.293 -16.035  0.00  0.00    +0.063 C 
BRANCH   9  10
ATOM     10  C   UNL     1      32.456 -23.141 -14.817  0.00  0.00    +0.115 C 
BRANCH  10  12
ATOM     11  O   UNL     1      31.802 -24.303 -12.862  0.00  0.00    -0.288 OA
ATOM     12  C   UNL     1      31.769 -24.229 -14.087  0.00  0.00    +0.213 C 
ENDBRANCH  10  12
ENDBRANCH   9  10
BRANCH   9  13
ATOM     13  C   UNL     1      32.258 -22.771 -17.239  0.00  0.00    +0.245 C 
BRANCH  13  14
ATOM     14  O   UNL     1      32.982 -23.096 -18.425  0.00  0.00    -0.469 OA
BRANCH  14  17
ATOM     15  C   UNL     1      35.354 -20.750 -19.961  0.00  0.00    +0.003 C 
ATOM     16  C   UNL     1      34.464 -19.913 -20.673  0.00  0.00    +0.000 C 
ATOM     17  C   UNL     1      33.466 -22.057 -19.160  0.00  0.00    +0.139 C 
ATOM     18  C   UNL     1      34.839 -21.819 -19.209  0.00  0.00    +0.037 C 
ATOM     19  C   UNL     1      33.083 -20.167 -20.612  0.00  0.00    +0.003 C 
ATOM     20  C   UNL     1      32.589 -21.233 -19.860  0.00  0.00    +0.037 C 
ATOM     21  C   UNL     1      36.734 -20.496 -20.022  0.00  0.00    +0.000 C 
ATOM     22  C   UNL     1      34.978 -18.843 -21.425  0.00  0.00    +0.000 C 
ATOM     23  C   UNL     1      37.229 -19.430 -20.774  0.00  0.00    +0.000 C 
ATOM     24  C   UNL     1      36.352 -18.606 -21.474  0.00  0.00    +0.000 C 
ENDBRANCH  14  17
ENDBRANCH  13  14
ENDBRANCH   9  13
ENDBRANCH   3   7
BRANCH   4  25
ATOM     25  O   UNL     1      38.717 -24.253 -13.113  0.00  0.00    -0.506 OA
ATOM     26  H   UNL     1      38.768 -24.898 -12.435  0.00  0.00    +0.292 HD
ENDBRANCH   4  25
BRANCH   5  27
ATOM     27  O   UNL     1      36.580 -22.595 -17.025  0.00  0.00    -0.504 OA
ATOM     28  H   UNL     1      36.373 -22.990 -17.849  0.00  0.00    +0.292 HD
ENDBRANCH   5  27
BRANCH   1  29
ATOM     29  C   UNL     1      36.361 -25.631 -12.271  0.00  0.00    +0.018 C 
BRANCH  29  30
ATOM     30  CA  UNL     1      35.584 -24.934 -11.133  0.00  0.00    +0.040 C 
BRANCH  30  31
ATOM     31  N   UNL     1      34.641 -23.963 -11.682  0.00  0.00    +0.389 N 
ATOM     32  H1  UNL     1      34.907 -23.025 -11.382  0.00  0.00    -0.088 HD
ATOM     33  H2  UNL     1      33.701 -24.174 -11.348  0.00  0.00    -0.088 HD
ATOM     34  H3  UNL     1      34.659 -24.010 -12.701  0.00  0.00    -0.088 HD
ENDBRANCH  30  31
BRANCH  30  36
ATOM     35  OXT UNL     1      37.381 -23.388 -10.573  0.00  0.00    -0.253 OA
ATOM     36  C   UNL     1      36.509 -24.166 -10.205  0.00  0.00    +0.293 C 
BRANCH  36  37
ATOM     37  O   UNL     1      36.244 -24.407  -8.895  0.00  0.00    -0.482 OA
ATOM     38  H   UNL     1      35.395 -24.707  -8.637  0.00  0.00    +0.295 HD
ENDBRANCH  36  37
ENDBRANCH  30  36
ENDBRANCH  29  30
ENDBRANCH   1  29
TORSDOF 13
ENDMDL
MODEL 7
REMARK VINA RESULT:      -9.6      9.398     13.588
REMARK  Name = 17754104
REMARK  13 active torsions:
REMARK  status: ('A' for Active; 'I' for Inactive)
REMARK    1  A    between atoms: C_1  and  C_29
REMARK    2  A    between atoms: C_3  and  N_11
REMARK    3  A    between atoms: C_4  and  O_7
REMARK    4  A    between atoms: C_5  and  O_9
REMARK    5  A    between atoms: C_13  and  C_14
REMARK    6  A    between atoms: C_13  and  C_17
REMARK    7  A    between atoms: C_14  and  C_16
REMARK    8  A    between atoms: C_17  and  O_18
REMARK    9  A    between atoms: O_18  and  C_21
REMARK   10  A    between atoms: C_29  and  CA_30
REMARK   11  A    between atoms: CA_30  and  N_31
REMARK   12  A    between atoms: CA_30  and  C_36
REMARK   13  A    between atoms: C_36  and  O_37
REMARK                            x       y       z     vdW  Elec       q    Type
REMARK                         _______ _______ _______ _____ _____    ______ ____
ROOT
ATOM      1  C   UNL     1      34.863 -16.755 -22.531  0.00  0.00    +0.012 C 
ATOM      2  C   UNL     1      34.579 -15.392 -22.625  0.00  0.00    +0.019 C 
ATOM      3  C   UNL     1      34.074 -14.866 -23.814  0.00  0.00    +0.090 C 
ATOM      4  C   UNL     1      34.641 -17.590 -23.625  0.00  0.00    +0.133 C 
ATOM      5  C   UNL     1      33.853 -15.702 -24.908  0.00  0.00    +0.152 C 
ATOM      6  C   UNL     1      34.137 -17.064 -24.814  0.00  0.00    +0.074 C 
ENDROOT
BRANCH   3   7
ATOM      7  N   UNL     1      33.794 -13.499 -23.895  0.00  0.00    -0.354 N 
ATOM      8  H   UNL     1      34.178 -13.027 -24.668  0.00  0.00    +0.166 HD
ATOM      9  C   UNL     1      33.054 -12.734 -23.034  0.00  0.00    +0.063 C 
BRANCH   9  10
ATOM     10  C   UNL     1      32.016 -13.148 -22.285  0.00  0.00    +0.115 C 
BRANCH  10  12
ATOM     11  O   UNL     1      32.303 -14.160 -20.166  0.00  0.00    -0.288 OA
ATOM     12  C   UNL     1      32.021 -13.152 -20.806  0.00  0.00    +0.213 C 
ENDBRANCH  10  12
ENDBRANCH   9  10
BRANCH   9  13
ATOM     13  C   UNL     1      33.463 -11.281 -22.964  0.00  0.00    +0.245 C 
BRANCH  13  14
ATOM     14  O   UNL     1      32.398 -10.465 -23.449  0.00  0.00    -0.469 OA
BRANCH  14  17
ATOM     15  C   UNL     1      31.862  -6.833 -23.331  0.00  0.00    +0.003 C 
ATOM     16  C   UNL     1      32.167  -6.572 -21.975  0.00  0.00    +0.000 C 
ATOM     17  C   UNL     1      32.321  -9.194 -22.967  0.00  0.00    +0.139 C 
ATOM     18  C   UNL     1      31.944  -8.151 -23.812  0.00  0.00    +0.037 C 
ATOM     19  C   UNL     1      32.546  -7.635 -21.138  0.00  0.00    +0.003 C 
ATOM     20  C   UNL     1      32.622  -8.937 -21.632  0.00  0.00    +0.037 C 
ATOM     21  C   UNL     1      31.483  -5.771 -24.167  0.00  0.00    +0.000 C 
ATOM     22  C   UNL     1      32.085  -5.255 -21.493  0.00  0.00    +0.000 C 
ATOM     23  C   UNL     1      31.407  -4.468 -23.673  0.00  0.00    +0.000 C 
ATOM     24  C   UNL     1      31.707  -4.211 -22.338  0.00  0.00    +0.000 C 
ENDBRANCH  14  17
ENDBRANCH  13  14
ENDBRANCH   9  13
ENDBRANCH   3   7
BRANCH   4  25
ATOM     25  O   UNL     1      34.912 -18.924 -23.549  0.00  0.00    -0.506 OA
ATOM     26  H   UNL     1      35.540 -19.309 -24.129  0.00  0.00    +0.292 HD
ENDBRANCH   4  25
BRANCH   5  27
ATOM     27  O   UNL     1      33.360 -15.206 -26.078  0.00  0.00    -0.504 OA
ATOM     28  H   UNL     1      33.828 -14.537 -26.538  0.00  0.00    +0.292 HD
ENDBRANCH   5  27
BRANCH   1  29
ATOM     29  C   UNL     1      35.405 -17.301 -21.251  0.00  0.00    +0.018 C 
BRANCH  29  30
ATOM     30  CA  UNL     1      35.830 -18.782 -21.345  0.00  0.00    +0.040 C 
BRANCH  30  31
ATOM     31  N   UNL     1      34.941 -19.619 -20.542  0.00  0.00    +0.389 N 
ATOM     32  H1  UNL     1      34.915 -19.268 -19.585  0.00  0.00    -0.088 HD
ATOM     33  H2  UNL     1      35.283 -20.580 -20.544  0.00  0.00    -0.088 HD
ATOM     34  H3  UNL     1      34.001 -19.592 -20.939  0.00  0.00    -0.088 HD
ENDBRANCH  30  31
BRANCH  30  36
ATOM     35  OXT UNL     1      37.499 -19.359 -19.667  0.00  0.00    -0.253 OA
ATOM     36  C   UNL     1      37.234 -19.002 -20.808  0.00  0.00    +0.293 C 
BRANCH  36  37
ATOM     37  O   UNL     1      38.188 -18.792 -21.753  0.00  0.00    -0.482 OA
ATOM     38  H   UNL     1      39.038 -18.491 -21.501  0.00  0.00    +0.295 HD
ENDBRANCH  36  37
ENDBRANCH  30  36
ENDBRANCH  29  30
ENDBRANCH   1  29
TORSDOF 13
ENDMDL
MODEL 8
REMARK VINA RESULT:      -9.6      2.724      6.984
REMARK  Name = 17754104
REMARK  13 active torsions:
REMARK  status: ('A' for Active; 'I' for Inactive)
REMARK    1  A    between atoms: C_1  and  C_29
REMARK    2  A    between atoms: C_3  and  N_11
REMARK    3  A    between atoms: C_4  and  O_7
REMARK    4  A    between atoms: C_5  and  O_9
REMARK    5  A    between atoms: C_13  and  C_14
REMARK    6  A    between atoms: C_13  and  C_17
REMARK    7  A    between atoms: C_14  and  C_16
REMARK    8  A    between atoms: C_17  and  O_18
REMARK    9  A    between atoms: O_18  and  C_21
REMARK   10  A    between atoms: C_29  and  CA_30
REMARK   11  A    between atoms: CA_30  and  N_31
REMARK   12  A    between atoms: CA_30  and  C_36
REMARK   13  A    between atoms: C_36  and  O_37
REMARK                            x       y       z     vdW  Elec       q    Type
REMARK                         _______ _______ _______ _____ _____    ______ ____
ROOT
ATOM      1  C   UNL     1      35.191 -22.273 -18.329  0.00  0.00    +0.012 C 
ATOM      2  C   UNL     1      34.557 -22.817 -17.212  0.00  0.00    +0.019 C 
ATOM      3  C   UNL     1      35.251 -22.938 -16.008  0.00  0.00    +0.090 C 
ATOM      4  C   UNL     1      36.518 -21.850 -18.242  0.00  0.00    +0.133 C 
ATOM      5  C   UNL     1      36.577 -22.515 -15.920  0.00  0.00    +0.152 C 
ATOM      6  C   UNL     1      37.210 -21.972 -17.038  0.00  0.00    +0.074 C 
ENDROOT
BRANCH   3   7
ATOM      7  N   UNL     1      34.604 -23.484 -14.896  0.00  0.00    -0.354 N 
ATOM      8  H   UNL     1      33.855 -22.959 -14.533  0.00  0.00    +0.166 HD
ATOM      9  C   UNL     1      34.880 -24.658 -14.248  0.00  0.00    +0.063 C 
BRANCH   9  10
ATOM     10  C   UNL     1      35.399 -25.772 -14.796  0.00  0.00    +0.115 C 
BRANCH  10  12
ATOM     11  O   UNL     1      37.715 -25.459 -14.426  0.00  0.00    -0.288 OA
ATOM     12  C   UNL     1      36.779 -26.243 -14.546  0.00  0.00    +0.213 C 
ENDBRANCH  10  12
ENDBRANCH   9  10
BRANCH   9  13
ATOM     13  C   UNL     1      34.532 -24.669 -12.777  0.00  0.00    +0.245 C 
BRANCH  13  14
ATOM     14  O   UNL     1      33.395 -23.837 -12.553  0.00  0.00    -0.469 OA
BRANCH  14  17
ATOM     15  C   UNL     1      30.453 -23.464 -14.719  0.00  0.00    +0.003 C 
ATOM     16  C   UNL     1      29.913 -24.770 -14.646  0.00  0.00    +0.000 C 
ATOM     17  C   UNL     1      32.259 -24.142 -13.237  0.00  0.00    +0.139 C 
ATOM     18  C   UNL     1      31.628 -23.167 -14.008  0.00  0.00    +0.037 C 
ATOM     19  C   UNL     1      30.561 -25.740 -13.865  0.00  0.00    +0.003 C 
ATOM     20  C   UNL     1      31.727 -25.427 -13.165  0.00  0.00    +0.037 C 
ATOM     21  C   UNL     1      29.804 -22.495 -15.500  0.00  0.00    +0.000 C 
ATOM     22  C   UNL     1      28.738 -25.068 -15.356  0.00  0.00    +0.000 C 
ATOM     23  C   UNL     1      28.638 -22.807 -16.200  0.00  0.00    +0.000 C 
ATOM     24  C   UNL     1      28.106 -24.092 -16.128  0.00  0.00    +0.000 C 
ENDBRANCH  14  17
ENDBRANCH  13  14
ENDBRANCH   9  13
ENDBRANCH   3   7
BRANCH   4  25
ATOM     25  O   UNL     1      37.151 -21.315 -19.323  0.00  0.00    -0.506 OA
ATOM     26  H   UNL     1      37.830 -21.796 -19.754  0.00  0.00    +0.292 HD
ENDBRANCH   4  25
BRANCH   5  27
ATOM     27  O   UNL     1      37.271 -22.625 -14.753  0.00  0.00    -0.504 OA
ATOM     28  H   UNL     1      38.132 -22.264 -14.683  0.00  0.00    +0.292 HD
ENDBRANCH   5  27
BRANCH   1  29
ATOM     29  C   UNL     1      34.435 -22.152 -19.611  0.00  0.00    +0.018 C 
BRANCH  29  30
ATOM     30  CA  UNL     1      33.781 -20.768 -19.813  0.00  0.00    +0.040 C 
BRANCH  30  31
ATOM     31  N   UNL     1      32.378 -20.919 -20.194  0.00  0.00    +0.389 N 
ATOM     32  H1  UNL     1      32.137 -21.910 -20.216  0.00  0.00    -0.088 HD
ATOM     33  H2  UNL     1      32.230 -20.512 -21.117  0.00  0.00    -0.088 HD
ATOM     34  H3  UNL     1      31.789 -20.441 -19.512  0.00  0.00    -0.088 HD
ENDBRANCH  30  31
BRANCH  30  36
ATOM     35  OXT UNL     1      34.020 -19.881 -22.069  0.00  0.00    -0.253 OA
ATOM     36  C   UNL     1      34.452 -19.983 -20.928  0.00  0.00    +0.293 C 
BRANCH  36  37
ATOM     37  O   UNL     1      35.587 -19.362 -20.512  0.00  0.00    -0.482 OA
ATOM     38  H   UNL     1      35.614 -18.428 -20.453  0.00  0.00    +0.295 HD
ENDBRANCH  36  37
ENDBRANCH  30  36
ENDBRANCH  29  30
ENDBRANCH   1  29
TORSDOF 13
ENDMDL
MODEL 9
REMARK VINA RESULT:      -9.5      2.495      5.927
REMARK  Name = 17754104
REMARK  13 active torsions:
REMARK  status: ('A' for Active; 'I' for Inactive)
REMARK    1  A    between atoms: C_1  and  C_29
REMARK    2  A    between atoms: C_3  and  N_11
REMARK    3  A    between atoms: C_4  and  O_7
REMARK    4  A    between atoms: C_5  and  O_9
REMARK    5  A    between atoms: C_13  and  C_14
REMARK    6  A    between atoms: C_13  and  C_17
REMARK    7  A    between atoms: C_14  and  C_16
REMARK    8  A    between atoms: C_17  and  O_18
REMARK    9  A    between atoms: O_18  and  C_21
REMARK   10  A    between atoms: C_29  and  CA_30
REMARK   11  A    between atoms: CA_30  and  N_31
REMARK   12  A    between atoms: CA_30  and  C_36
REMARK   13  A    between atoms: C_36  and  O_37
REMARK                            x       y       z     vdW  Elec       q    Type
REMARK                         _______ _______ _______ _____ _____    ______ ____
ROOT
ATOM      1  C   UNL     1      36.250 -24.642 -13.308  0.00  0.00    +0.012 C 
ATOM      2  C   UNL     1      35.195 -24.654 -14.221  0.00  0.00    +0.019 C 
ATOM      3  C   UNL     1      35.179 -23.746 -15.279  0.00  0.00    +0.090 C 
ATOM      4  C   UNL     1      37.289 -23.723 -13.454  0.00  0.00    +0.133 C 
ATOM      5  C   UNL     1      36.218 -22.827 -15.425  0.00  0.00    +0.152 C 
ATOM      6  C   UNL     1      37.272 -22.815 -14.512  0.00  0.00    +0.074 C 
ENDROOT
BRANCH   3   7
ATOM      7  N   UNL     1      34.117 -23.769 -16.186  0.00  0.00    -0.354 N 
ATOM      8  H   UNL     1      34.307 -24.177 -17.061  0.00  0.00    +0.166 HD
ATOM      9  C   UNL     1      32.844 -23.294 -16.012  0.00  0.00    +0.063 C 
BRANCH   9  10
ATOM     10  C   UNL     1      32.168 -23.224 -14.851  0.00  0.00    +0.115 C 
BRANCH  10  12
ATOM     11  O   UNL     1      31.890 -24.727 -13.045  0.00  0.00    -0.288 OA
ATOM     12  C   UNL     1      31.564 -24.396 -14.181  0.00  0.00    +0.213 C 
ENDBRANCH  10  12
ENDBRANCH   9  10
BRANCH   9  13
ATOM     13  C   UNL     1      32.159 -22.834 -17.278  0.00  0.00    +0.245 C 
BRANCH  13  14
ATOM     14  O   UNL     1      32.974 -23.158 -18.403  0.00  0.00    -0.469 OA
BRANCH  14  17
ATOM     15  C   UNL     1      35.365 -20.814 -19.913  0.00  0.00    +0.003 C 
ATOM     16  C   UNL     1      34.483 -19.974 -20.632  0.00  0.00    +0.000 C 
ATOM     17  C   UNL     1      33.467 -22.119 -19.132  0.00  0.00    +0.139 C 
ATOM     18  C   UNL     1      34.840 -21.883 -19.167  0.00  0.00    +0.037 C 
ATOM     19  C   UNL     1      33.102 -20.226 -20.586  0.00  0.00    +0.003 C 
ATOM     20  C   UNL     1      32.599 -21.293 -19.840  0.00  0.00    +0.037 C 
ATOM     21  C   UNL     1      36.746 -20.562 -19.960  0.00  0.00    +0.000 C 
ATOM     22  C   UNL     1      35.007 -18.905 -21.378  0.00  0.00    +0.000 C 
ATOM     23  C   UNL     1      37.250 -19.496 -20.705  0.00  0.00    +0.000 C 
ATOM     24  C   UNL     1      36.382 -18.669 -21.413  0.00  0.00    +0.000 C 
ENDBRANCH  14  17
ENDBRANCH  13  14
ENDBRANCH   9  13
ENDBRANCH   3   7
BRANCH   4  25
ATOM     25  O   UNL     1      38.327 -23.699 -12.573  0.00  0.00    -0.506 OA
ATOM     26  H   UNL     1      38.924 -22.976 -12.570  0.00  0.00    +0.292 HD
ENDBRANCH   4  25
BRANCH   5  27
ATOM     27  O   UNL     1      36.220 -21.932 -16.453  0.00  0.00    -0.504 OA
ATOM     28  H   UNL     1      36.197 -22.235 -17.339  0.00  0.00    +0.292 HD
ENDBRANCH   5  27
BRANCH   1  29
ATOM     29  C   UNL     1      36.251 -25.620 -12.179  0.00  0.00    +0.018 C 
BRANCH  29  30
ATOM     30  CA  UNL     1      37.230 -26.796 -12.383  0.00  0.00    +0.040 C 
BRANCH  30  31
ATOM     31  N   UNL     1      38.573 -26.422 -11.945  0.00  0.00    +0.389 N 
ATOM     32  H1  UNL     1      38.720 -26.745 -10.989  0.00  0.00    -0.088 HD
ATOM     33  H2  UNL     1      38.673 -25.408 -11.982  0.00  0.00    -0.088 HD
ATOM     34  H3  UNL     1      39.263 -26.856 -12.559  0.00  0.00    -0.088 HD
ENDBRANCH  30  31
BRANCH  30  36
ATOM     35  OXT UNL     1      38.367 -27.110 -14.514  0.00  0.00    -0.253 OA
ATOM     36  C   UNL     1      37.344 -27.190 -13.846  0.00  0.00    +0.293 C 
BRANCH  36  37
ATOM     37  O   UNL     1      36.179 -27.683 -14.341  0.00  0.00    -0.482 OA
ATOM     38  H   UNL     1      35.381 -27.562 -13.867  0.00  0.00    +0.295 HD
ENDBRANCH  36  37
ENDBRANCH  30  36
ENDBRANCH  29  30
ENDBRANCH   1  29
TORSDOF 13
ENDMDL
