MODEL 1
REMARK VINA RESULT:     -12.7      0.000      0.000
REMARK  Name = 22479942
REMARK  4 active torsions:
REMARK  status: ('A' for Active; 'I' for Inactive)
REMARK    1  A    between atoms: C_4  and  C_17
REMARK    2  A    between atoms: C_7  and  C_14
REMARK    3  A    between atoms: C_20  and  N_24
REMARK    4  A    between atoms: C_25  and  C_28
REMARK                            x       y       z     vdW  Elec       q    Type
REMARK                         _______ _______ _______ _____ _____    ______ ____
ROOT
ATOM      1  N   UNL     1      31.119 -23.336 -16.705  0.00  0.00    -0.276 N 
ATOM      2  N   UNL     1      31.884 -22.773 -17.656  0.00  0.00    -0.173 NA
ATOM      3  C   UNL     1      33.142 -23.442 -15.865  0.00  0.00    +0.036 A 
ATOM      4  C   UNL     1      33.113 -22.840 -17.141  0.00  0.00    +0.102 A 
ATOM      5  C   UNL     1      31.814 -23.758 -15.603  0.00  0.00    +0.075 A 
ATOM      6  C   UNL     1      34.125 -23.753 -14.910  0.00  0.00    +0.006 C 
ATOM      7  C   UNL     1      33.727 -24.376 -13.720  0.00  0.00    +0.033 C 
ATOM      8  C   UNL     1      31.396 -24.379 -14.424  0.00  0.00    +0.019 C 
ATOM      9  C   UNL     1      32.385 -24.683 -13.484  0.00  0.00    +0.004 C 
ATOM     10  H   UNL     1      30.144 -23.436 -16.793  0.00  0.00    +0.189 HD
ENDROOT
BRANCH   7  14
ATOM     11  N   UNL     1      35.660 -25.669 -12.904  0.00  0.00    -0.218 N 
ATOM     12  N   UNL     1      34.871 -24.154 -11.541  0.00  0.00    -0.206 NA
ATOM     13  N   UNL     1      36.459 -25.775 -11.832  0.00  0.00    -0.157 NA
ATOM     14  C   UNL     1      34.719 -24.703 -12.725  0.00  0.00    +0.149 C 
ATOM     15  C   UNL     1      35.939 -24.837 -11.036  0.00  0.00    +0.218 C 
ATOM     16  H   UNL     1      35.746 -26.218 -13.717  0.00  0.00    +0.176 HD
ENDBRANCH   7  14
BRANCH   4  17
ATOM     17  C   UNL     1      34.237 -22.326 -17.884  0.00  0.00    +0.021 C 
ATOM     18  C   UNL     1      34.024 -21.603 -19.058  0.00  0.00    +0.016 C 
ATOM     19  C   UNL     1      35.535 -22.552 -17.430  0.00  0.00    +0.002 C 
ATOM     20  C   UNL     1      35.110 -21.106 -19.777  0.00  0.00    +0.051 C 
ATOM     21  C   UNL     1      36.622 -22.055 -18.150  0.00  0.00    +0.001 C 
ATOM     22  C   UNL     1      36.410 -21.332 -19.323  0.00  0.00    +0.015 C 
BRANCH  20  24
ATOM     23  O   UNL     1      36.006 -18.378 -20.513  0.00  0.00    -0.266 OA
ATOM     24  N   UNL     1      34.899 -20.381 -20.951  0.00  0.00    -0.278 N 
ATOM     25  C   UNL     1      35.340 -19.081 -21.270  0.00  0.00    +0.284 C 
ATOM     26  H   UNL     1      34.374 -20.838 -21.646  0.00  0.00    +0.155 HD
BRANCH  25  28
ATOM     27  O   UNL     1      35.166 -17.281 -22.888  0.00  0.00    -0.446 OA
ATOM     28  C   UNL     1      34.911 -18.582 -22.588  0.00  0.00    +0.199 C 
ATOM     29  C   UNL     1      34.269 -19.201 -23.634  0.00  0.00    +0.045 C 
ATOM     30  C   UNL     1      34.120 -18.219 -24.642  0.00  0.00    +0.044 C 
ATOM     31  C   UNL     1      34.682 -17.068 -24.140  0.00  0.00    +0.180 C 
ENDBRANCH  25  28
ENDBRANCH  20  24
ENDBRANCH   4  17
TORSDOF 4
ENDMDL
MODEL 2
REMARK VINA RESULT:     -12.3      2.166      3.233
REMARK  Name = 22479942
REMARK  4 active torsions:
REMARK  status: ('A' for Active; 'I' for Inactive)
REMARK    1  A    between atoms: C_4  and  C_17
REMARK    2  A    between atoms: C_7  and  C_14
REMARK    3  A    between atoms: C_20  and  N_24
REMARK    4  A    between atoms: C_25  and  C_28
REMARK                            x       y       z     vdW  Elec       q    Type
REMARK                         _______ _______ _______ _____ _____    ______ ____
ROOT
ATOM      1  N   UNL     1      32.305 -22.284 -19.035  0.00  0.00    -0.276 N 
ATOM      2  N   UNL     1      32.881 -21.425 -19.893  0.00  0.00    -0.173 NA
ATOM      3  C   UNL     1      34.352 -22.088 -18.271  0.00  0.00    +0.036 A 
ATOM      4  C   UNL     1      34.125 -21.309 -19.425  0.00  0.00    +0.102 A 
ATOM      5  C   UNL     1      33.136 -22.719 -18.037  0.00  0.00    +0.075 A 
ATOM      6  C   UNL     1      35.431 -22.331 -17.405  0.00  0.00    +0.006 C 
ATOM      7  C   UNL     1      35.241 -23.208 -16.329  0.00  0.00    +0.033 C 
ATOM      8  C   UNL     1      32.925 -23.597 -16.970  0.00  0.00    +0.019 C 
ATOM      9  C   UNL     1      34.008 -23.828 -16.118  0.00  0.00    +0.004 C 
ATOM     10  H   UNL     1      31.369 -22.575 -19.117  0.00  0.00    +0.189 HD
ENDROOT
BRANCH   7  14
ATOM     11  N   UNL     1      37.633 -23.530 -15.830  0.00  0.00    -0.218 N 
ATOM     12  N   UNL     1      36.267 -23.686 -14.132  0.00  0.00    -0.206 NA
ATOM     13  N   UNL     1      38.453 -23.789 -14.800  0.00  0.00    -0.157 NA
ATOM     14  C   UNL     1      36.336 -23.470 -15.426  0.00  0.00    +0.149 C 
ATOM     15  C   UNL     1      37.576 -23.874 -13.796  0.00  0.00    +0.218 C 
ATOM     16  H   UNL     1      37.933 -23.400 -16.759  0.00  0.00    +0.176 HD
ENDBRANCH   7  14
BRANCH   4  17
ATOM     17  C   UNL     1      35.072 -20.454 -20.096  0.00  0.00    +0.021 C 
ATOM     18  C   UNL     1      34.622 -19.475 -20.983  0.00  0.00    +0.016 C 
ATOM     19  C   UNL     1      36.437 -20.606 -19.859  0.00  0.00    +0.002 C 
ATOM     20  C   UNL     1      35.539 -18.648 -21.631  0.00  0.00    +0.051 C 
ATOM     21  C   UNL     1      37.354 -19.778 -20.508  0.00  0.00    +0.001 C 
ATOM     22  C   UNL     1      36.905 -18.799 -21.394  0.00  0.00    +0.015 C 
BRANCH  20  24
ATOM     23  O   UNL     1      34.880 -15.800 -21.140  0.00  0.00    -0.266 OA
ATOM     24  N   UNL     1      35.090 -17.667 -22.517  0.00  0.00    -0.278 N 
ATOM     25  C   UNL     1      34.785 -16.318 -22.251  0.00  0.00    +0.284 C 
ATOM     26  H   UNL     1      34.972 -17.957 -23.451  0.00  0.00    +0.155 HD
BRANCH  25  28
ATOM     27  O   UNL     1      34.105 -14.212 -23.246  0.00  0.00    -0.446 OA
ATOM     28  C   UNL     1      34.292 -15.548 -23.405  0.00  0.00    +0.199 C 
ATOM     29  C   UNL     1      33.965 -15.932 -24.685  0.00  0.00    +0.045 C 
ATOM     30  C   UNL     1      33.551 -14.756 -25.355  0.00  0.00    +0.044 C 
ATOM     31  C   UNL     1      33.654 -13.737 -24.436  0.00  0.00    +0.180 C 
ENDBRANCH  25  28
ENDBRANCH  20  24
ENDBRANCH   4  17
TORSDOF 4
ENDMDL
MODEL 3
REMARK VINA RESULT:     -11.2      3.820      8.095
REMARK  Name = 22479942
REMARK  4 active torsions:
REMARK  status: ('A' for Active; 'I' for Inactive)
REMARK    1  A    between atoms: C_4  and  C_17
REMARK    2  A    between atoms: C_7  and  C_14
REMARK    3  A    between atoms: C_20  and  N_24
REMARK    4  A    between atoms: C_25  and  C_28
REMARK                            x       y       z     vdW  Elec       q    Type
REMARK                         _______ _______ _______ _____ _____    ______ ____
ROOT
ATOM      1  N   UNL     1      36.475 -23.794 -14.680  0.00  0.00    -0.276 N 
ATOM      2  N   UNL     1      35.423 -24.265 -13.990  0.00  0.00    -0.173 NA
ATOM      3  C   UNL     1      34.754 -23.227 -15.916  0.00  0.00    +0.036 A 
ATOM      4  C   UNL     1      34.379 -23.919 -14.744  0.00  0.00    +0.102 A 
ATOM      5  C   UNL     1      36.141 -23.159 -15.846  0.00  0.00    +0.075 A 
ATOM      6  C   UNL     1      34.091 -22.656 -17.015  0.00  0.00    +0.006 C 
ATOM      7  C   UNL     1      34.858 -22.034 -18.009  0.00  0.00    +0.033 C 
ATOM      8  C   UNL     1      36.924 -22.544 -16.826  0.00  0.00    +0.019 C 
ATOM      9  C   UNL     1      36.250 -21.980 -17.914  0.00  0.00    +0.004 C 
ATOM     10  H   UNL     1      37.405 -23.896 -14.374  0.00  0.00    +0.189 HD
ENDROOT
BRANCH   7  14
ATOM     11  N   UNL     1      32.850 -21.481 -19.327  0.00  0.00    -0.218 N 
ATOM     12  N   UNL     1      34.757 -20.795 -20.144  0.00  0.00    -0.206 NA
ATOM     13  N   UNL     1      32.491 -20.858 -20.460  0.00  0.00    -0.157 NA
ATOM     14  C   UNL     1      34.197 -21.440 -19.146  0.00  0.00    +0.149 C 
ATOM     15  C   UNL     1      33.682 -20.461 -20.917  0.00  0.00    +0.218 C 
ATOM     16  H   UNL     1      32.218 -21.913 -18.707  0.00  0.00    +0.176 HD
ENDBRANCH   7  14
BRANCH   4  17
ATOM     17  C   UNL     1      33.042 -24.260 -14.328  0.00  0.00    +0.021 C 
ATOM     18  C   UNL     1      31.944 -23.667 -14.954  0.00  0.00    +0.016 C 
ATOM     19  C   UNL     1      32.845 -25.183 -13.302  0.00  0.00    +0.002 C 
ATOM     20  C   UNL     1      30.650 -23.998 -14.551  0.00  0.00    +0.051 C 
ATOM     21  C   UNL     1      31.551 -25.513 -12.899  0.00  0.00    +0.001 C 
ATOM     22  C   UNL     1      30.453 -24.921 -13.523  0.00  0.00    +0.015 C 
BRANCH  20  24
ATOM     23  O   UNL     1      28.578 -25.204 -16.293  0.00  0.00    -0.266 OA
ATOM     24  N   UNL     1      29.551 -23.407 -15.176  0.00  0.00    -0.278 N 
ATOM     25  C   UNL     1      28.582 -24.011 -16.001  0.00  0.00    +0.284 C 
ATOM     26  H   UNL     1      29.439 -22.441 -15.019  0.00  0.00    +0.155 HD
BRANCH  25  28
ATOM     27  O   UNL     1      27.314 -23.140 -17.877  0.00  0.00    -0.446 OA
ATOM     28  C   UNL     1      27.564 -23.095 -16.543  0.00  0.00    +0.199 C 
ATOM     29  C   UNL     1      26.770 -22.150 -15.935  0.00  0.00    +0.045 C 
ATOM     30  C   UNL     1      25.982 -21.578 -16.962  0.00  0.00    +0.044 C 
ATOM     31  C   UNL     1      26.350 -22.215 -18.125  0.00  0.00    +0.180 C 
ENDBRANCH  25  28
ENDBRANCH  20  24
ENDBRANCH   4  17
TORSDOF 4
ENDMDL
MODEL 4
REMARK VINA RESULT:     -10.9      4.900      6.894
REMARK  Name = 22479942
REMARK  4 active torsions:
REMARK  status: ('A' for Active; 'I' for Inactive)
REMARK    1  A    between atoms: C_4  and  C_17
REMARK    2  A    between atoms: C_7  and  C_14
REMARK    3  A    between atoms: C_20  and  N_24
REMARK    4  A    between atoms: C_25  and  C_28
REMARK                            x       y       z     vdW  Elec       q    Type
REMARK                         _______ _______ _______ _____ _____    ______ ____
ROOT
ATOM      1  N   UNL     1      34.200 -23.916 -11.317  0.00  0.00    -0.276 N 
ATOM      2  N   UNL     1      33.384 -23.612 -12.340  0.00  0.00    -0.173 NA
ATOM      3  C   UNL     1      35.439 -24.287 -13.088  0.00  0.00    +0.036 A 
ATOM      4  C   UNL     1      34.141 -23.839 -13.415  0.00  0.00    +0.102 A 
ATOM      5  C   UNL     1      35.449 -24.328 -11.699  0.00  0.00    +0.075 A 
ATOM      6  C   UNL     1      36.594 -24.658 -13.797  0.00  0.00    +0.006 C 
ATOM      7  C   UNL     1      37.723 -25.061 -13.071  0.00  0.00    +0.033 C 
ATOM      8  C   UNL     1      36.563 -24.726 -10.956  0.00  0.00    +0.019 C 
ATOM      9  C   UNL     1      37.705 -25.092 -11.675  0.00  0.00    +0.004 C 
ATOM     10  H   UNL     1      33.924 -23.849 -10.375  0.00  0.00    +0.189 HD
ENDROOT
BRANCH   7  14
ATOM     11  N   UNL     1      39.614 -26.582 -13.500  0.00  0.00    -0.218 N 
ATOM     12  N   UNL     1      39.510 -24.796 -14.755  0.00  0.00    -0.206 NA
ATOM     13  N   UNL     1      40.686 -26.705 -14.298  0.00  0.00    -0.157 NA
ATOM     14  C   UNL     1      38.920 -25.445 -13.778  0.00  0.00    +0.149 C 
ATOM     15  C   UNL     1      40.578 -25.599 -15.038  0.00  0.00    +0.218 C 
ATOM     16  H   UNL     1      39.362 -27.231 -12.804  0.00  0.00    +0.176 HD
ENDBRANCH   7  14
BRANCH   4  17
ATOM     17  C   UNL     1      33.604 -23.623 -14.736  0.00  0.00    +0.021 C 
ATOM     18  C   UNL     1      32.254 -23.308 -14.896  0.00  0.00    +0.016 C 
ATOM     19  C   UNL     1      34.433 -23.729 -15.851  0.00  0.00    +0.002 C 
ATOM     20  C   UNL     1      31.734 -23.099 -16.173  0.00  0.00    +0.051 C 
ATOM     21  C   UNL     1      33.912 -23.520 -17.129  0.00  0.00    +0.001 C 
ATOM     22  C   UNL     1      32.564 -23.205 -17.290  0.00  0.00    +0.015 C 
BRANCH  20  24
ATOM     23  O   UNL     1      29.324 -24.766 -15.729  0.00  0.00    -0.266 OA
ATOM     24  N   UNL     1      30.385 -22.782 -16.335  0.00  0.00    -0.278 N 
ATOM     25  C   UNL     1      29.259 -23.601 -16.115  0.00  0.00    +0.284 C 
ATOM     26  H   UNL     1      30.195 -21.867 -16.644  0.00  0.00    +0.155 HD
BRANCH  25  28
ATOM     27  O   UNL     1      27.586 -22.894 -17.724  0.00  0.00    -0.446 OA
ATOM     28  C   UNL     1      27.962 -22.975 -16.420  0.00  0.00    +0.199 C 
ATOM     29  C   UNL     1      26.999 -22.425 -15.606  0.00  0.00    +0.045 C 
ATOM     30  C   UNL     1      25.966 -21.978 -16.464  0.00  0.00    +0.044 C 
ATOM     31  C   UNL     1      26.371 -22.287 -17.743  0.00  0.00    +0.180 C 
ENDBRANCH  25  28
ENDBRANCH  20  24
ENDBRANCH   4  17
TORSDOF 4
ENDMDL
MODEL 5
REMARK VINA RESULT:     -10.5      7.304     13.521
REMARK  Name = 22479942
REMARK  4 active torsions:
REMARK  status: ('A' for Active; 'I' for Inactive)
REMARK    1  A    between atoms: C_4  and  C_17
REMARK    2  A    between atoms: C_7  and  C_14
REMARK    3  A    between atoms: C_20  and  N_24
REMARK    4  A    between atoms: C_25  and  C_28
REMARK                            x       y       z     vdW  Elec       q    Type
REMARK                         _______ _______ _______ _____ _____    ______ ____
ROOT
ATOM      1  N   UNL     1      31.177 -11.380 -20.641  0.00  0.00    -0.276 N 
ATOM      2  N   UNL     1      31.573 -12.573 -21.117  0.00  0.00    -0.173 NA
ATOM      3  C   UNL     1      32.534 -10.855 -22.282  0.00  0.00    +0.036 A 
ATOM      4  C   UNL     1      32.398 -12.249 -22.114  0.00  0.00    +0.102 A 
ATOM      5  C   UNL     1      31.718 -10.308 -21.298  0.00  0.00    +0.075 A 
ATOM      6  C   UNL     1      33.244 -10.000 -23.141  0.00  0.00    +0.006 C 
ATOM      7  C   UNL     1      33.103  -8.616 -22.974  0.00  0.00    +0.033 C 
ATOM      8  C   UNL     1      31.563  -8.932 -21.114  0.00  0.00    +0.019 C 
ATOM      9  C   UNL     1      32.276  -8.094 -21.977  0.00  0.00    +0.004 C 
ATOM     10  H   UNL     1      30.552 -11.286 -19.887  0.00  0.00    +0.189 HD
ENDROOT
BRANCH   7  14
ATOM     11  N   UNL     1      35.006  -7.142 -23.506  0.00  0.00    -0.218 N 
ATOM     12  N   UNL     1      33.472  -7.330 -25.051  0.00  0.00    -0.206 NA
ATOM     13  N   UNL     1      35.464  -6.353 -24.490  0.00  0.00    -0.157 NA
ATOM     14  C   UNL     1      33.823  -7.719 -23.846  0.00  0.00    +0.149 C 
ATOM     15  C   UNL     1      34.499  -6.502 -25.402  0.00  0.00    +0.218 C 
ATOM     16  H   UNL     1      35.468  -7.285 -22.648  0.00  0.00    +0.176 HD
ENDBRANCH   7  14
BRANCH   4  17
ATOM     17  C   UNL     1      33.041 -13.284 -22.884  0.00  0.00    +0.021 C 
ATOM     18  C   UNL     1      33.669 -14.348 -22.235  0.00  0.00    +0.016 C 
ATOM     19  C   UNL     1      33.035 -13.222 -24.276  0.00  0.00    +0.002 C 
ATOM     20  C   UNL     1      34.291 -15.349 -22.981  0.00  0.00    +0.051 C 
ATOM     21  C   UNL     1      33.658 -14.223 -25.022  0.00  0.00    +0.001 C 
ATOM     22  C   UNL     1      34.286 -15.287 -24.375  0.00  0.00    +0.015 C 
BRANCH  20  24
ATOM     23  O   UNL     1      34.371 -18.225 -23.695  0.00  0.00    -0.266 OA
ATOM     24  N   UNL     1      34.918 -16.415 -22.334  0.00  0.00    -0.278 N 
ATOM     25  C   UNL     1      34.937 -17.775 -22.701  0.00  0.00    +0.284 C 
ATOM     26  H   UNL     1      35.413 -16.185 -21.514  0.00  0.00    +0.155 HD
BRANCH  25  28
ATOM     27  O   UNL     1      34.957 -19.641 -21.149  0.00  0.00    -0.446 OA
ATOM     28  C   UNL     1      35.662 -18.662 -21.776  0.00  0.00    +0.199 C 
ATOM     29  C   UNL     1      36.984 -18.702 -21.397  0.00  0.00    +0.045 C 
ATOM     30  C   UNL     1      37.098 -19.774 -20.479  0.00  0.00    +0.044 C 
ATOM     31  C   UNL     1      35.838 -20.313 -20.363  0.00  0.00    +0.180 C 
ENDBRANCH  25  28
ENDBRANCH  20  24
ENDBRANCH   4  17
TORSDOF 4
ENDMDL
MODEL 6
REMARK VINA RESULT:     -10.4      6.849     11.322
REMARK  Name = 22479942
REMARK  4 active torsions:
REMARK  status: ('A' for Active; 'I' for Inactive)
REMARK    1  A    between atoms: C_4  and  C_17
REMARK    2  A    between atoms: C_7  and  C_14
REMARK    3  A    between atoms: C_20  and  N_24
REMARK    4  A    between atoms: C_25  and  C_28
REMARK                            x       y       z     vdW  Elec       q    Type
REMARK                         _______ _______ _______ _____ _____    ______ ____
ROOT
ATOM      1  N   UNL     1      33.204 -14.699 -25.302  0.00  0.00    -0.276 N 
ATOM      2  N   UNL     1      32.716 -13.720 -24.521  0.00  0.00    -0.173 NA
ATOM      3  C   UNL     1      33.815 -15.300 -23.283  0.00  0.00    +0.036 A 
ATOM      4  C   UNL     1      33.090 -14.089 -23.295  0.00  0.00    +0.102 A 
ATOM      5  C   UNL     1      33.874 -15.679 -24.619  0.00  0.00    +0.075 A 
ATOM      6  C   UNL     1      34.421 -16.112 -22.310  0.00  0.00    +0.006 C 
ATOM      7  C   UNL     1      35.069 -17.283 -22.725  0.00  0.00    +0.033 C 
ATOM      8  C   UNL     1      34.514 -16.842 -25.054  0.00  0.00    +0.019 C 
ATOM      9  C   UNL     1      35.113 -17.639 -24.074  0.00  0.00    +0.004 C 
ATOM     10  H   UNL     1      33.089 -14.711 -26.279  0.00  0.00    +0.189 HD
ENDROOT
BRANCH   7  14
ATOM     11  N   UNL     1      37.046 -18.229 -21.599  0.00  0.00    -0.218 N 
ATOM     12  N   UNL     1      35.103 -18.913 -20.869  0.00  0.00    -0.206 NA
ATOM     13  N   UNL     1      37.371 -19.085 -20.617  0.00  0.00    -0.157 NA
ATOM     14  C   UNL     1      35.697 -18.132 -21.742  0.00  0.00    +0.149 C 
ATOM     15  C   UNL     1      36.160 -19.471 -20.208  0.00  0.00    +0.218 C 
ATOM     16  H   UNL     1      37.701 -17.735 -22.144  0.00  0.00    +0.176 HD
ENDBRANCH   7  14
BRANCH   4  17
ATOM     17  C   UNL     1      32.747 -13.272 -22.158  0.00  0.00    +0.021 C 
ATOM     18  C   UNL     1      32.451 -11.920 -22.336  0.00  0.00    +0.016 C 
ATOM     19  C   UNL     1      32.710 -13.832 -20.882  0.00  0.00    +0.002 C 
ATOM     20  C   UNL     1      32.118 -11.129 -21.236  0.00  0.00    +0.051 C 
ATOM     21  C   UNL     1      32.377 -13.041 -19.782  0.00  0.00    +0.001 C 
ATOM     22  C   UNL     1      32.081 -11.689 -19.959  0.00  0.00    +0.015 C 
BRANCH  20  24
ATOM     23  O   UNL     1      33.575  -9.044 -22.758  0.00  0.00    -0.266 OA
ATOM     24  N   UNL     1      31.821  -9.777 -21.412  0.00  0.00    -0.278 N 
ATOM     25  C   UNL     1      32.537  -8.809 -22.145  0.00  0.00    +0.284 C 
ATOM     26  H   UNL     1      31.003  -9.458 -20.966  0.00  0.00    +0.155 HD
BRANCH  25  28
ATOM     27  O   UNL     1      31.903  -6.751 -23.263  0.00  0.00    -0.446 OA
ATOM     28  C   UNL     1      31.975  -7.449 -22.099  0.00  0.00    +0.199 C 
ATOM     29  C   UNL     1      31.481  -6.700 -21.057  0.00  0.00    +0.045 C 
ATOM     30  C   UNL     1      31.079  -5.463 -21.616  0.00  0.00    +0.044 C 
ATOM     31  C   UNL     1      31.356  -5.545 -22.961  0.00  0.00    +0.180 C 
ENDBRANCH  25  28
ENDBRANCH  20  24
ENDBRANCH   4  17
TORSDOF 4
ENDMDL
MODEL 7
REMARK VINA RESULT:     -10.0      2.143      4.857
REMARK  Name = 22479942
REMARK  4 active torsions:
REMARK  status: ('A' for Active; 'I' for Inactive)
REMARK    1  A    between atoms: C_4  and  C_17
REMARK    2  A    between atoms: C_7  and  C_14
REMARK    3  A    between atoms: C_20  and  N_24
REMARK    4  A    between atoms: C_25  and  C_28
REMARK                            x       y       z     vdW  Elec       q    Type
REMARK                         _______ _______ _______ _____ _____    ______ ____
ROOT
ATOM      1  N   UNL     1      33.893 -25.407 -12.105  0.00  0.00    -0.276 N 
ATOM      2  N   UNL     1      35.012 -24.956 -12.699  0.00  0.00    -0.173 NA
ATOM      3  C   UNL     1      33.155 -24.458 -13.940  0.00  0.00    +0.036 A 
ATOM      4  C   UNL     1      34.558 -24.380 -13.814  0.00  0.00    +0.102 A 
ATOM      5  C   UNL     1      32.744 -25.140 -12.800  0.00  0.00    +0.075 A 
ATOM      6  C   UNL     1      32.194 -24.037 -14.874  0.00  0.00    +0.006 C 
ATOM      7  C   UNL     1      30.845 -24.321 -14.621  0.00  0.00    +0.033 C 
ATOM      8  C   UNL     1      31.406 -25.434 -12.529  0.00  0.00    +0.019 C 
ATOM      9  C   UNL     1      30.461 -25.008 -13.468  0.00  0.00    +0.004 C 
ATOM     10  H   UNL     1      33.900 -25.886 -11.246  0.00  0.00    +0.189 HD
ENDROOT
BRANCH   7  14
ATOM     11  N   UNL     1      29.774 -22.634 -16.063  0.00  0.00    -0.218 N 
ATOM     12  N   UNL     1      28.876 -24.626 -16.080  0.00  0.00    -0.206 NA
ATOM     13  N   UNL     1      28.752 -22.502 -16.922  0.00  0.00    -0.157 NA
ATOM     14  C   UNL     1      29.842 -23.899 -15.568  0.00  0.00    +0.149 C 
ATOM     15  C   UNL     1      28.240 -23.735 -16.897  0.00  0.00    +0.218 C 
ATOM     16  H   UNL     1      30.396 -21.909 -15.824  0.00  0.00    +0.176 HD
ENDBRANCH   7  14
BRANCH   4  17
ATOM     17  C   UNL     1      35.480 -23.764 -14.735  0.00  0.00    +0.021 C 
ATOM     18  C   UNL     1      34.997 -23.056 -15.836  0.00  0.00    +0.016 C 
ATOM     19  C   UNL     1      36.853 -23.874 -14.525  0.00  0.00    +0.002 C 
ATOM     20  C   UNL     1      35.888 -22.460 -16.727  0.00  0.00    +0.051 C 
ATOM     21  C   UNL     1      37.746 -23.277 -15.417  0.00  0.00    +0.001 C 
ATOM     22  C   UNL     1      37.264 -22.570 -16.518  0.00  0.00    +0.015 C 
BRANCH  20  24
ATOM     23  O   UNL     1      34.350 -23.411 -19.075  0.00  0.00    -0.266 OA
ATOM     24  N   UNL     1      35.407 -21.751 -17.829  0.00  0.00    -0.278 N 
ATOM     25  C   UNL     1      34.676 -22.235 -18.932  0.00  0.00    +0.284 C 
ATOM     26  H   UNL     1      35.603 -20.786 -17.834  0.00  0.00    +0.155 HD
BRANCH  25  28
ATOM     27  O   UNL     1      35.370 -20.720 -20.696  0.00  0.00    -0.446 OA
ATOM     28  C   UNL     1      34.350 -21.228 -19.956  0.00  0.00    +0.199 C 
ATOM     29  C   UNL     1      33.152 -20.668 -20.336  0.00  0.00    +0.045 C 
ATOM     30  C   UNL     1      33.456 -19.757 -21.376  0.00  0.00    +0.044 C 
ATOM     31  C   UNL     1      34.819 -19.826 -21.558  0.00  0.00    +0.180 C 
ENDBRANCH  25  28
ENDBRANCH  20  24
ENDBRANCH   4  17
TORSDOF 4
ENDMDL
MODEL 8
REMARK VINA RESULT:      -9.9     11.173     15.394
REMARK  Name = 22479942
REMARK  4 active torsions:
REMARK  status: ('A' for Active; 'I' for Inactive)
REMARK    1  A    between atoms: C_4  and  C_17
REMARK    2  A    between atoms: C_7  and  C_14
REMARK    3  A    between atoms: C_20  and  N_24
REMARK    4  A    between atoms: C_25  and  C_28
REMARK                            x       y       z     vdW  Elec       q    Type
REMARK                         _______ _______ _______ _____ _____    ______ ____
ROOT
ATOM      1  N   UNL     1      31.604 -10.003 -20.276  0.00  0.00    -0.276 N 
ATOM      2  N   UNL     1      32.017  -8.870 -20.870  0.00  0.00    -0.173 NA
ATOM      3  C   UNL     1      32.555 -10.708 -22.123  0.00  0.00    +0.036 A 
ATOM      4  C   UNL     1      32.594  -9.303 -21.993  0.00  0.00    +0.102 A 
ATOM      5  C   UNL     1      31.897 -11.142 -20.978  0.00  0.00    +0.075 A 
ATOM      6  C   UNL     1      32.994 -11.654 -23.065  0.00  0.00    +0.006 C 
ATOM      7  C   UNL     1      32.750 -13.010 -22.813  0.00  0.00    +0.033 C 
ATOM      8  C   UNL     1      31.644 -12.489 -20.708  0.00  0.00    +0.019 C 
ATOM      9  C   UNL     1      32.087 -13.418 -21.654  0.00  0.00    +0.004 C 
ATOM     10  H   UNL     1      31.132 -10.012 -19.413  0.00  0.00    +0.189 HD
ENDROOT
BRANCH   7  14
ATOM     11  N   UNL     1      32.996 -13.879 -25.107  0.00  0.00    -0.218 N 
ATOM     12  N   UNL     1      33.827 -15.121 -23.513  0.00  0.00    -0.206 NA
ATOM     13  N   UNL     1      33.501 -14.931 -25.769  0.00  0.00    -0.157 NA
ATOM     14  C   UNL     1      33.194 -13.999 -23.767  0.00  0.00    +0.149 C 
ATOM     15  C   UNL     1      33.992 -15.653 -24.759  0.00  0.00    +0.218 C 
ATOM     16  H   UNL     1      32.541 -13.118 -25.536  0.00  0.00    +0.176 HD
ENDBRANCH   7  14
BRANCH   4  17
ATOM     17  C   UNL     1      33.170  -8.361 -22.919  0.00  0.00    +0.021 C 
ATOM     18  C   UNL     1      32.411  -7.285 -23.381  0.00  0.00    +0.016 C 
ATOM     19  C   UNL     1      34.485  -8.525 -23.352  0.00  0.00    +0.002 C 
ATOM     20  C   UNL     1      32.968  -6.374 -24.277  0.00  0.00    +0.051 C 
ATOM     21  C   UNL     1      35.042  -7.612 -24.249  0.00  0.00    +0.001 C 
ATOM     22  C   UNL     1      34.284  -6.537 -24.712  0.00  0.00    +0.015 C 
BRANCH  20  24
ATOM     23  O   UNL     1      32.246  -3.838 -22.924  0.00  0.00    -0.266 OA
ATOM     24  N   UNL     1      32.211  -5.296 -24.740  0.00  0.00    -0.278 N 
ATOM     25  C   UNL     1      31.885  -4.101 -24.069  0.00  0.00    +0.284 C 
ATOM     26  H   UNL     1      31.860  -5.383 -25.656  0.00  0.00    +0.155 HD
BRANCH  25  28
ATOM     27  O   UNL     1      29.851  -2.792 -24.262  0.00  0.00    -0.446 OA
ATOM     28  C   UNL     1      31.027  -3.173 -24.825  0.00  0.00    +0.199 C 
ATOM     29  C   UNL     1      31.186  -2.581 -26.057  0.00  0.00    +0.045 C 
ATOM     30  C   UNL     1      30.034  -1.786 -26.263  0.00  0.00    +0.044 C 
ATOM     31  C   UNL     1      29.253  -1.948 -25.142  0.00  0.00    +0.180 C 
ENDBRANCH  25  28
ENDBRANCH  20  24
ENDBRANCH   4  17
TORSDOF 4
ENDMDL
