MODEL 1
REMARK VINA RESULT:     -12.1      0.000      0.000
REMARK  Name = 5288607
REMARK  4 active torsions:
REMARK  status: ('A' for Active; 'I' for Inactive)
REMARK    1  A    between atoms: N_2  and  C_19
REMARK    2  A    between atoms: C_3  and  C_6
REMARK    3  A    between atoms: C_5  and  C_16
REMARK    4  A    between atoms: C_19  and  C_21
REMARK                            x       y       z     vdW  Elec       q    Type
REMARK                         _______ _______ _______ _____ _____    ______ ____
ROOT
ATOM      1  O   UNL     1      33.349 -16.882 -25.477  0.00  0.00    -0.270 OA
ATOM      2  N   UNL     1      34.002 -14.784 -24.719  0.00  0.00    -0.270 N 
ATOM      3  C   UNL     1      33.924 -16.178 -24.647  0.00  0.00    +0.249 C 
ATOM      4  C   UNL     1      33.372 -14.091 -25.835  0.00  0.00    +0.116 C 
ENDROOT
BRANCH   3   6
ATOM      5  C   UNL     1      34.515 -18.152 -23.285  0.00  0.00    +0.006 C 
ATOM      6  C   UNL     1      34.569 -16.810 -23.457  0.00  0.00    +0.058 C 
BRANCH   5  16
ATOM      7  O   UNL     1      36.708 -22.446 -17.278  0.00  0.00    -0.275 OA
ATOM      8  N   UNL     1      36.784 -20.864 -18.940  0.00  0.00    -0.270 N 
ATOM      9  N   UNL     1      36.948 -19.277 -20.687  0.00  0.00    -0.229 NA
ATOM     10  C   UNL     1      34.079 -21.450 -19.552  0.00  0.00    +0.039 C 
ATOM     11  C   UNL     1      34.885 -20.501 -20.387  0.00  0.00    +0.010 C 
ATOM     12  C   UNL     1      34.971 -22.512 -18.929  0.00  0.00    +0.090 C 
ATOM     13  C   UNL     1      36.202 -20.202 -20.038  0.00  0.00    +0.130 C 
ATOM     14  C   UNL     1      34.321 -19.815 -21.463  0.00  0.00    +0.000 C 
ATOM     15  C   UNL     1      36.209 -21.930 -18.278  0.00  0.00    +0.227 C 
ATOM     16  C   UNL     1      35.074 -18.877 -22.158  0.00  0.00    +0.019 C 
ATOM     17  C   UNL     1      36.370 -18.644 -21.732  0.00  0.00    +0.100 C 
ATOM     18  H   UNL     1      37.660 -20.544 -18.623  0.00  0.00    +0.156 HD
ENDBRANCH   5  16
ENDBRANCH   3   6
BRANCH   2  19
ATOM     19  C   UNL     1      34.649 -13.926 -23.729  0.00  0.00    +0.122 C 
BRANCH  19  21
ATOM     20  N   UNL     1      32.538 -13.871 -20.751  0.00  0.00    -0.284 N 
ATOM     21  C   UNL     1      33.704 -13.648 -22.612  0.00  0.00    +0.014 C 
ATOM     22  C   UNL     1      32.905 -12.490 -22.464  0.00  0.00    +0.013 C 
ATOM     23  C   UNL     1      32.178 -12.653 -21.283  0.00  0.00    +0.051 C 
ATOM     24  C   UNL     1      33.464 -14.482 -21.553  0.00  0.00    +0.063 C 
ATOM     25  C   UNL     1      32.722 -11.312 -23.215  0.00  0.00    +0.001 C 
ATOM     26  C   UNL     1      31.275 -11.693 -20.813  0.00  0.00    +0.015 C 
ATOM     27  C   UNL     1      32.022 -14.437 -19.523  0.00  0.00    +0.117 C 
ATOM     28  C   UNL     1      31.822 -10.343 -22.759  0.00  0.00    +0.000 C 
ATOM     29  C   UNL     1      31.111 -10.533 -21.576  0.00  0.00    +0.001 C 
ENDBRANCH  19  21
ENDBRANCH   2  19
TORSDOF 4
ENDMDL
MODEL 2
REMARK VINA RESULT:     -11.6      1.003      2.000
REMARK  Name = 5288607
REMARK  4 active torsions:
REMARK  status: ('A' for Active; 'I' for Inactive)
REMARK    1  A    between atoms: N_2  and  C_19
REMARK    2  A    between atoms: C_3  and  C_6
REMARK    3  A    between atoms: C_5  and  C_16
REMARK    4  A    between atoms: C_19  and  C_21
REMARK                            x       y       z     vdW  Elec       q    Type
REMARK                         _______ _______ _______ _____ _____    ______ ____
ROOT
ATOM      1  O   UNL     1      33.306 -17.555 -25.231  0.00  0.00    -0.270 OA
ATOM      2  N   UNL     1      34.166 -15.470 -24.669  0.00  0.00    -0.270 N 
ATOM      3  C   UNL     1      33.971 -16.841 -24.480  0.00  0.00    +0.249 C 
ATOM      4  C   UNL     1      33.556 -14.814 -25.818  0.00  0.00    +0.116 C 
ENDROOT
BRANCH   3   6
ATOM      5  C   UNL     1      34.393 -18.732 -22.948  0.00  0.00    +0.006 C 
ATOM      6  C   UNL     1      34.603 -17.432 -23.262  0.00  0.00    +0.058 C 
BRANCH   5  16
ATOM      7  O   UNL     1      36.431 -22.749 -16.699  0.00  0.00    -0.275 OA
ATOM      8  N   UNL     1      36.561 -21.263 -18.445  0.00  0.00    -0.270 N 
ATOM      9  N   UNL     1      36.780 -19.781 -20.276  0.00  0.00    -0.229 NA
ATOM     10  C   UNL     1      33.843 -21.804 -19.042  0.00  0.00    +0.039 C 
ATOM     11  C   UNL     1      34.681 -20.926 -19.922  0.00  0.00    +0.010 C 
ATOM     12  C   UNL     1      34.701 -22.856 -18.355  0.00  0.00    +0.090 C 
ATOM     13  C   UNL     1      36.003 -20.647 -19.582  0.00  0.00    +0.130 C 
ATOM     14  C   UNL     1      34.142 -20.285 -21.039  0.00  0.00    +0.000 C 
ATOM     15  C   UNL     1      35.952 -22.275 -17.730  0.00  0.00    +0.227 C 
ATOM     16  C   UNL     1      34.926 -19.409 -21.779  0.00  0.00    +0.019 C 
ATOM     17  C   UNL     1      36.226 -19.191 -21.358  0.00  0.00    +0.100 C 
ATOM     18  H   UNL     1      37.444 -20.952 -18.141  0.00  0.00    +0.156 HD
ENDBRANCH   5  16
ENDBRANCH   3   6
BRANCH   2  19
ATOM     19  C   UNL     1      34.922 -14.598 -23.774  0.00  0.00    +0.122 C 
BRANCH  19  21
ATOM     20  N   UNL     1      32.957 -11.582 -23.161  0.00  0.00    -0.284 N 
ATOM     21  C   UNL     1      34.042 -13.500 -23.283  0.00  0.00    +0.014 C 
ATOM     22  C   UNL     1      33.307 -13.498 -22.074  0.00  0.00    +0.013 C 
ATOM     23  C   UNL     1      32.630 -12.278 -22.019  0.00  0.00    +0.051 C 
ATOM     24  C   UNL     1      33.816 -12.317 -23.933  0.00  0.00    +0.063 C 
ATOM     25  C   UNL     1      33.143 -14.413 -21.015  0.00  0.00    +0.001 C 
ATOM     26  C   UNL     1      31.794 -11.925 -20.954  0.00  0.00    +0.015 C 
ATOM     27  C   UNL     1      32.472 -10.263 -23.508  0.00  0.00    +0.117 C 
ATOM     28  C   UNL     1      32.311 -14.073 -19.942  0.00  0.00    +0.000 C 
ATOM     29  C   UNL     1      31.648 -12.849 -19.914  0.00  0.00    +0.001 C 
ENDBRANCH  19  21
ENDBRANCH   2  19
TORSDOF 4
ENDMDL
MODEL 3
REMARK VINA RESULT:     -11.3      5.268     11.747
REMARK  Name = 5288607
REMARK  4 active torsions:
REMARK  status: ('A' for Active; 'I' for Inactive)
REMARK    1  A    between atoms: N_2  and  C_19
REMARK    2  A    between atoms: C_3  and  C_6
REMARK    3  A    between atoms: C_5  and  C_16
REMARK    4  A    between atoms: C_19  and  C_21
REMARK                            x       y       z     vdW  Elec       q    Type
REMARK                         _______ _______ _______ _____ _____    ______ ____
ROOT
ATOM      1  O   UNL     1      30.863 -24.723 -15.981  0.00  0.00    -0.270 OA
ATOM      2  N   UNL     1      32.223 -24.319 -14.140  0.00  0.00    -0.270 N 
ATOM      3  C   UNL     1      31.790 -24.109 -15.452  0.00  0.00    +0.249 C 
ATOM      4  C   UNL     1      31.556 -25.322 -13.319  0.00  0.00    +0.116 C 
ENDROOT
BRANCH   3   6
ATOM      5  C   UNL     1      33.428 -23.473 -17.188  0.00  0.00    +0.006 C 
ATOM      6  C   UNL     1      32.546 -23.087 -16.236  0.00  0.00    +0.058 C 
BRANCH   5  16
ATOM      7  O   UNL     1      36.981 -18.498 -21.873  0.00  0.00    -0.275 OA
ATOM      8  N   UNL     1      36.678 -20.072 -20.229  0.00  0.00    -0.270 N 
ATOM      9  N   UNL     1      36.411 -21.630 -18.469  0.00  0.00    -0.229 NA
ATOM     10  C   UNL     1      33.951 -20.256 -20.980  0.00  0.00    +0.039 C 
ATOM     11  C   UNL     1      34.489 -20.990 -19.788  0.00  0.00    +0.010 C 
ATOM     12  C   UNL     1      34.725 -18.968 -21.216  0.00  0.00    +0.090 C 
ATOM     13  C   UNL     1      35.843 -20.911 -19.467  0.00  0.00    +0.130 C 
ATOM     14  C   UNL     1      33.685 -21.847 -19.035  0.00  0.00    +0.000 C 
ATOM     15  C   UNL     1      36.225 -19.170 -21.172  0.00  0.00    +0.227 C 
ATOM     16  C   UNL     1      34.241 -22.578 -17.992  0.00  0.00    +0.019 C 
ATOM     17  C   UNL     1      35.597 -22.438 -17.754  0.00  0.00    +0.100 C 
ATOM     18  H   UNL     1      37.649 -20.131 -20.079  0.00  0.00    +0.156 HD
ENDBRANCH   5  16
ENDBRANCH   3   6
BRANCH   2  19
ATOM     19  C   UNL     1      33.341 -23.627 -13.502  0.00  0.00    +0.122 C 
BRANCH  19  21
ATOM     20  N   UNL     1      36.031 -25.945 -14.350  0.00  0.00    -0.284 N 
ATOM     21  C   UNL     1      34.578 -24.448 -13.632  0.00  0.00    +0.014 C 
ATOM     22  C   UNL     1      35.734 -24.347 -12.822  0.00  0.00    +0.013 C 
ATOM     23  C   UNL     1      36.637 -25.301 -13.295  0.00  0.00    +0.051 C 
ATOM     24  C   UNL     1      34.780 -25.433 -14.560  0.00  0.00    +0.063 C 
ATOM     25  C   UNL     1      36.111 -23.538 -11.732  0.00  0.00    +0.001 C 
ATOM     26  C   UNL     1      37.904 -25.488 -12.729  0.00  0.00    +0.015 C 
ATOM     27  C   UNL     1      36.620 -27.011 -15.133  0.00  0.00    +0.117 C 
ATOM     28  C   UNL     1      37.373 -23.715 -11.154  0.00  0.00    +0.000 C 
ATOM     29  C   UNL     1      38.254 -24.674 -11.647  0.00  0.00    +0.001 C 
ENDBRANCH  19  21
ENDBRANCH   2  19
TORSDOF 4
ENDMDL
MODEL 4
REMARK VINA RESULT:     -11.1      1.222      1.728
REMARK  Name = 5288607
REMARK  4 active torsions:
REMARK  status: ('A' for Active; 'I' for Inactive)
REMARK    1  A    between atoms: N_2  and  C_19
REMARK    2  A    between atoms: C_3  and  C_6
REMARK    3  A    between atoms: C_5  and  C_16
REMARK    4  A    between atoms: C_19  and  C_21
REMARK                            x       y       z     vdW  Elec       q    Type
REMARK                         _______ _______ _______ _____ _____    ______ ____
ROOT
ATOM      1  O   UNL     1      33.663 -18.495 -24.743  0.00  0.00    -0.270 OA
ATOM      2  N   UNL     1      34.510 -16.442 -24.056  0.00  0.00    -0.270 N 
ATOM      3  C   UNL     1      34.287 -17.816 -23.927  0.00  0.00    +0.249 C 
ATOM      4  C   UNL     1      33.984 -15.739 -25.219  0.00  0.00    +0.116 C 
ENDROOT
BRANCH   3   6
ATOM      5  C   UNL     1      34.261 -19.581 -22.200  0.00  0.00    +0.006 C 
ATOM      6  C   UNL     1      34.830 -18.455 -22.691  0.00  0.00    +0.058 C 
BRANCH   5  16
ATOM      7  O   UNL     1      35.640 -23.580 -15.763  0.00  0.00    -0.275 OA
ATOM      8  N   UNL     1      35.995 -22.193 -17.557  0.00  0.00    -0.270 N 
ATOM      9  N   UNL     1      36.439 -20.823 -19.434  0.00  0.00    -0.229 NA
ATOM     10  C   UNL     1      33.243 -22.404 -18.201  0.00  0.00    +0.039 C 
ATOM     11  C   UNL     1      34.204 -21.675 -19.091  0.00  0.00    +0.010 C 
ATOM     12  C   UNL     1      33.944 -23.529 -17.456  0.00  0.00    +0.090 C 
ATOM     13  C   UNL     1      35.544 -21.554 -18.728  0.00  0.00    +0.130 C 
ATOM     14  C   UNL     1      33.774 -21.014 -20.242  0.00  0.00    +0.000 C 
ATOM     15  C   UNL     1      35.247 -23.089 -16.821  0.00  0.00    +0.227 C 
ATOM     16  C   UNL     1      34.678 -20.275 -20.995  0.00  0.00    +0.019 C 
ATOM     17  C   UNL     1      35.987 -20.209 -20.550  0.00  0.00    +0.100 C 
ATOM     18  H   UNL     1      36.905 -21.986 -17.243  0.00  0.00    +0.156 HD
ENDBRANCH   5  16
ENDBRANCH   3   6
BRANCH   2  19
ATOM     19  C   UNL     1      35.217 -15.611 -23.085  0.00  0.00    +0.122 C 
BRANCH  19  21
ATOM     20  N   UNL     1      32.841 -14.392 -20.595  0.00  0.00    -0.284 N 
ATOM     21  C   UNL     1      34.232 -14.883 -22.237  0.00  0.00    +0.014 C 
ATOM     22  C   UNL     1      33.685 -13.605 -22.504  0.00  0.00    +0.013 C 
ATOM     23  C   UNL     1      32.811 -13.317 -21.454  0.00  0.00    +0.051 C 
ATOM     24  C   UNL     1      33.701 -15.348 -21.064  0.00  0.00    +0.063 C 
ATOM     25  C   UNL     1      33.844 -12.657 -23.533  0.00  0.00    +0.001 C 
ATOM     26  C   UNL     1      32.085 -12.123 -21.381  0.00  0.00    +0.015 C 
ATOM     27  C   UNL     1      32.080 -14.510 -19.369  0.00  0.00    +0.117 C 
ATOM     28  C   UNL     1      33.124 -11.459 -23.476  0.00  0.00    +0.000 C 
ATOM     29  C   UNL     1      32.259 -11.197 -22.415  0.00  0.00    +0.001 C 
ENDBRANCH  19  21
ENDBRANCH   2  19
TORSDOF 4
ENDMDL
MODEL 5
REMARK VINA RESULT:     -10.5      1.991      3.365
REMARK  Name = 5288607
REMARK  4 active torsions:
REMARK  status: ('A' for Active; 'I' for Inactive)
REMARK    1  A    between atoms: N_2  and  C_19
REMARK    2  A    between atoms: C_3  and  C_6
REMARK    3  A    between atoms: C_5  and  C_16
REMARK    4  A    between atoms: C_19  and  C_21
REMARK                            x       y       z     vdW  Elec       q    Type
REMARK                         _______ _______ _______ _____ _____    ______ ____
ROOT
ATOM      1  O   UNL     1      34.668 -19.746 -23.877  0.00  0.00    -0.270 OA
ATOM      2  N   UNL     1      34.870 -17.552 -23.137  0.00  0.00    -0.270 N 
ATOM      3  C   UNL     1      34.798 -18.936 -22.958  0.00  0.00    +0.249 C 
ATOM      4  C   UNL     1      34.789 -17.000 -24.484  0.00  0.00    +0.116 C 
ENDROOT
BRANCH   3   6
ATOM      5  C   UNL     1      35.107 -20.723 -21.282  0.00  0.00    +0.006 C 
ATOM      6  C   UNL     1      34.857 -19.419 -21.546  0.00  0.00    +0.058 C 
BRANCH   5  16
ATOM      7  O   UNL     1      34.518 -24.065 -14.367  0.00  0.00    -0.275 OA
ATOM      8  N   UNL     1      35.439 -22.960 -16.156  0.00  0.00    -0.270 N 
ATOM      9  N   UNL     1      36.460 -21.893 -18.005  0.00  0.00    -0.229 NA
ATOM     10  C   UNL     1      32.877 -22.891 -17.368  0.00  0.00    +0.039 C 
ATOM     11  C   UNL     1      34.099 -22.404 -18.087  0.00  0.00    +0.010 C 
ATOM     12  C   UNL     1      33.232 -24.000 -16.389  0.00  0.00    +0.090 C 
ATOM     13  C   UNL     1      35.339 -22.414 -17.451  0.00  0.00    +0.130 C 
ATOM     14  C   UNL     1      34.019 -21.836 -19.359  0.00  0.00    +0.000 C 
ATOM     15  C   UNL     1      34.428 -23.658 -15.525  0.00  0.00    +0.227 C 
ATOM     16  C   UNL     1      35.160 -21.315 -19.957  0.00  0.00    +0.019 C 
ATOM     17  C   UNL     1      36.344 -21.365 -19.243  0.00  0.00    +0.100 C 
ATOM     18  H   UNL     1      36.286 -22.836 -15.670  0.00  0.00    +0.156 HD
ENDBRANCH   5  16
ENDBRANCH   3   6
BRANCH   2  19
ATOM     19  C   UNL     1      34.991 -16.570 -22.062  0.00  0.00    +0.122 C 
BRANCH  19  21
ATOM     20  N   UNL     1      33.738 -13.554 -23.693  0.00  0.00    -0.284 N 
ATOM     21  C   UNL     1      34.351 -15.290 -22.477  0.00  0.00    +0.014 C 
ATOM     22  C   UNL     1      33.529 -14.469 -21.669  0.00  0.00    +0.013 C 
ATOM     23  C   UNL     1      33.154 -13.380 -22.459  0.00  0.00    +0.051 C 
ATOM     24  C   UNL     1      34.467 -14.712 -23.712  0.00  0.00    +0.063 C 
ATOM     25  C   UNL     1      33.061 -14.537 -20.342  0.00  0.00    +0.001 C 
ATOM     26  C   UNL     1      32.330 -12.352 -21.986  0.00  0.00    +0.015 C 
ATOM     27  C   UNL     1      33.608 -12.653 -24.819  0.00  0.00    +0.117 C 
ATOM     28  C   UNL     1      32.237 -13.517 -19.855  0.00  0.00    +0.000 C 
ATOM     29  C   UNL     1      31.879 -12.442 -20.665  0.00  0.00    +0.001 C 
ENDBRANCH  19  21
ENDBRANCH   2  19
TORSDOF 4
ENDMDL
MODEL 6
REMARK VINA RESULT:     -10.3      5.623     11.159
REMARK  Name = 5288607
REMARK  4 active torsions:
REMARK  status: ('A' for Active; 'I' for Inactive)
REMARK    1  A    between atoms: N_2  and  C_19
REMARK    2  A    between atoms: C_3  and  C_6
REMARK    3  A    between atoms: C_5  and  C_16
REMARK    4  A    between atoms: C_19  and  C_21
REMARK                            x       y       z     vdW  Elec       q    Type
REMARK                         _______ _______ _______ _____ _____    ______ ____
ROOT
ATOM      1  O   UNL     1      30.637 -25.136 -15.701  0.00  0.00    -0.270 OA
ATOM      2  N   UNL     1      32.047 -24.287 -14.060  0.00  0.00    -0.270 N 
ATOM      3  C   UNL     1      31.445 -24.288 -15.321  0.00  0.00    +0.249 C 
ATOM      4  C   UNL     1      31.719 -25.344 -13.111  0.00  0.00    +0.116 C 
ENDROOT
BRANCH   3   6
ATOM      5  C   UNL     1      32.689 -23.448 -17.283  0.00  0.00    +0.006 C 
ATOM      6  C   UNL     1      31.857 -23.190 -16.245  0.00  0.00    +0.058 C 
BRANCH   5  16
ATOM      7  O   UNL     1      36.131 -18.505 -22.083  0.00  0.00    -0.275 OA
ATOM      8  N   UNL     1      34.464 -19.597 -20.943  0.00  0.00    -0.270 N 
ATOM      9  N   UNL     1      32.703 -20.745 -19.858  0.00  0.00    -0.229 NA
ATOM     10  C   UNL     1      36.450 -20.990 -19.476  0.00  0.00    +0.039 C 
ATOM     11  C   UNL     1      34.992 -21.308 -19.323  0.00  0.00    +0.010 C 
ATOM     12  C   UNL     1      36.748 -20.483 -20.879  0.00  0.00    +0.090 C 
ATOM     13  C   UNL     1      34.036 -20.578 -20.029  0.00  0.00    +0.130 C 
ATOM     14  C   UNL     1      34.545 -22.258 -18.404  0.00  0.00    +0.000 C 
ATOM     15  C   UNL     1      35.775 -19.415 -21.335  0.00  0.00    +0.227 C 
ATOM     16  C   UNL     1      33.183 -22.462 -18.228  0.00  0.00    +0.019 C 
ATOM     17  C   UNL     1      32.311 -21.684 -18.969  0.00  0.00    +0.100 C 
ATOM     18  H   UNL     1      33.782 -19.000 -21.328  0.00  0.00    +0.156 HD
ENDBRANCH   5  16
ENDBRANCH   3   6
BRANCH   2  19
ATOM     19  C   UNL     1      33.033 -23.312 -13.600  0.00  0.00    +0.122 C 
BRANCH  19  21
ATOM     20  N   UNL     1      36.068 -25.262 -13.039  0.00  0.00    -0.284 N 
ATOM     21  C   UNL     1      34.384 -23.939 -13.572  0.00  0.00    +0.014 C 
ATOM     22  C   UNL     1      35.494 -23.563 -14.365  0.00  0.00    +0.013 C 
ATOM     23  C   UNL     1      36.544 -24.412 -14.011  0.00  0.00    +0.051 C 
ATOM     24  C   UNL     1      34.756 -24.980 -12.766  0.00  0.00    +0.063 C 
ATOM     25  C   UNL     1      35.717 -22.584 -15.354  0.00  0.00    +0.001 C 
ATOM     26  C   UNL     1      37.812 -24.331 -14.599  0.00  0.00    +0.015 C 
ATOM     27  C   UNL     1      36.831 -26.307 -12.389  0.00  0.00    +0.117 C 
ATOM     28  C   UNL     1      36.979 -22.491 -15.950  0.00  0.00    +0.000 C 
ATOM     29  C   UNL     1      38.009 -23.351 -15.577  0.00  0.00    +0.001 C 
ENDBRANCH  19  21
ENDBRANCH   2  19
TORSDOF 4
ENDMDL
MODEL 7
REMARK VINA RESULT:     -10.1      3.714      9.916
REMARK  Name = 5288607
REMARK  4 active torsions:
REMARK  status: ('A' for Active; 'I' for Inactive)
REMARK    1  A    between atoms: N_2  and  C_19
REMARK    2  A    between atoms: C_3  and  C_6
REMARK    3  A    between atoms: C_5  and  C_16
REMARK    4  A    between atoms: C_19  and  C_21
REMARK                            x       y       z     vdW  Elec       q    Type
REMARK                         _______ _______ _______ _____ _____    ______ ____
ROOT
ATOM      1  O   UNL     1      37.066 -21.885 -18.086  0.00  0.00    -0.270 OA
ATOM      2  N   UNL     1      34.973 -22.687 -17.473  0.00  0.00    -0.270 N 
ATOM      3  C   UNL     1      35.856 -21.982 -18.295  0.00  0.00    +0.249 C 
ATOM      4  C   UNL     1      35.484 -23.359 -16.285  0.00  0.00    +0.116 C 
ENDROOT
BRANCH   3   6
ATOM      5  C   UNL     1      35.942 -20.338 -20.136  0.00  0.00    +0.006 C 
ATOM      6  C   UNL     1      35.249 -21.295 -19.474  0.00  0.00    +0.058 C 
BRANCH   5  16
ATOM      7  O   UNL     1      33.578 -15.587 -25.719  0.00  0.00    -0.275 OA
ATOM      8  N   UNL     1      33.990 -17.535 -24.576  0.00  0.00    -0.270 N 
ATOM      9  N   UNL     1      34.468 -19.576 -23.480  0.00  0.00    -0.229 NA
ATOM     10  C   UNL     1      34.868 -15.994 -22.365  0.00  0.00    +0.039 C 
ATOM     11  C   UNL     1      34.974 -17.489 -22.372  0.00  0.00    +0.010 C 
ATOM     12  C   UNL     1      34.977 -15.439 -23.777  0.00  0.00    +0.090 C 
ATOM     13  C   UNL     1      34.497 -18.223 -23.457  0.00  0.00    +0.130 C 
ATOM     14  C   UNL     1      35.449 -18.192 -21.263  0.00  0.00    +0.000 C 
ATOM     15  C   UNL     1      34.091 -16.171 -24.764  0.00  0.00    +0.227 C 
ATOM     16  C   UNL     1      35.449 -19.581 -21.273  0.00  0.00    +0.019 C 
ATOM     17  C   UNL     1      34.949 -20.220 -22.394  0.00  0.00    +0.100 C 
ATOM     18  H   UNL     1      33.534 -18.062 -25.271  0.00  0.00    +0.156 HD
ENDBRANCH   5  16
ENDBRANCH   3   6
BRANCH   2  19
ATOM     19  C   UNL     1      33.530 -22.788 -17.681  0.00  0.00    +0.122 C 
BRANCH  19  21
ATOM     20  N   UNL     1      32.596 -24.300 -14.492  0.00  0.00    -0.284 N 
ATOM     21  C   UNL     1      32.883 -23.331 -16.454  0.00  0.00    +0.014 C 
ATOM     22  C   UNL     1      31.499 -23.301 -16.158  0.00  0.00    +0.013 C 
ATOM     23  C   UNL     1      31.343 -23.918 -14.915  0.00  0.00    +0.051 C 
ATOM     24  C   UNL     1      33.536 -23.948 -15.422  0.00  0.00    +0.063 C 
ATOM     25  C   UNL     1      30.357 -22.809 -16.820  0.00  0.00    +0.001 C 
ATOM     26  C   UNL     1      30.096 -24.068 -14.299  0.00  0.00    +0.015 C 
ATOM     27  C   UNL     1      32.892 -24.978 -13.247  0.00  0.00    +0.117 C 
ATOM     28  C   UNL     1      29.103 -22.954 -16.216  0.00  0.00    +0.000 C 
ATOM     29  C   UNL     1      28.976 -23.573 -14.975  0.00  0.00    +0.001 C 
ENDBRANCH  19  21
ENDBRANCH   2  19
TORSDOF 4
ENDMDL
MODEL 8
REMARK VINA RESULT:     -10.0      5.021     10.569
REMARK  Name = 5288607
REMARK  4 active torsions:
REMARK  status: ('A' for Active; 'I' for Inactive)
REMARK    1  A    between atoms: N_2  and  C_19
REMARK    2  A    between atoms: C_3  and  C_6
REMARK    3  A    between atoms: C_5  and  C_16
REMARK    4  A    between atoms: C_19  and  C_21
REMARK                            x       y       z     vdW  Elec       q    Type
REMARK                         _______ _______ _______ _____ _____    ______ ____
ROOT
ATOM      1  O   UNL     1      37.849 -22.731 -14.564  0.00  0.00    -0.270 OA
ATOM      2  N   UNL     1      36.378 -24.529 -14.497  0.00  0.00    -0.270 N 
ATOM      3  C   UNL     1      36.871 -23.329 -15.015  0.00  0.00    +0.249 C 
ATOM      4  C   UNL     1      37.039 -25.138 -13.350  0.00  0.00    +0.116 C 
ENDROOT
BRANCH   3   6
ATOM      5  C   UNL     1      36.787 -22.236 -17.228  0.00  0.00    +0.006 C 
ATOM      6  C   UNL     1      36.119 -22.755 -16.171  0.00  0.00    +0.058 C 
BRANCH   5  16
ATOM      7  O   UNL     1      34.286 -18.553 -23.515  0.00  0.00    -0.275 OA
ATOM      8  N   UNL     1      34.284 -19.936 -21.682  0.00  0.00    -0.270 N 
ATOM      9  N   UNL     1      34.256 -21.439 -19.855  0.00  0.00    -0.229 NA
ATOM     10  C   UNL     1      36.867 -18.975 -21.018  0.00  0.00    +0.039 C 
ATOM     11  C   UNL     1      36.222 -20.089 -20.249  0.00  0.00    +0.010 C 
ATOM     12  C   UNL     1      36.399 -18.977 -22.465  0.00  0.00    +0.090 C 
ATOM     13  C   UNL     1      34.934 -20.513 -20.574  0.00  0.00    +0.130 C 
ATOM     14  C   UNL     1      36.837 -20.656 -19.132  0.00  0.00    +0.000 C 
ATOM     15  C   UNL     1      34.895 -19.098 -22.594  0.00  0.00    +0.227 C 
ATOM     16  C   UNL     1      36.169 -21.624 -18.392  0.00  0.00    +0.019 C 
ATOM     17  C   UNL     1      34.891 -21.975 -18.789  0.00  0.00    +0.100 C 
ATOM     18  H   UNL     1      33.332 -20.146 -21.816  0.00  0.00    +0.156 HD
ENDBRANCH   5  16
ENDBRANCH   3   6
BRANCH   2  19
ATOM     19  C   UNL     1      35.201 -25.238 -14.993  0.00  0.00    +0.122 C 
BRANCH  19  21
ATOM     20  N   UNL     1      32.420 -23.815 -13.104  0.00  0.00    -0.284 N 
ATOM     21  C   UNL     1      33.966 -24.582 -14.479  0.00  0.00    +0.014 C 
ATOM     22  C   UNL     1      32.962 -23.964 -15.262  0.00  0.00    +0.013 C 
ATOM     23  C   UNL     1      31.998 -23.487 -14.372  0.00  0.00    +0.051 C 
ATOM     24  C   UNL     1      33.615 -24.481 -13.161  0.00  0.00    +0.063 C 
ATOM     25  C   UNL     1      32.772 -23.757 -16.643  0.00  0.00    +0.001 C 
ATOM     26  C   UNL     1      30.848 -22.811 -14.795  0.00  0.00    +0.015 C 
ATOM     27  C   UNL     1      31.715 -23.506 -11.877  0.00  0.00    +0.117 C 
ATOM     28  C   UNL     1      31.626 -23.084 -17.081  0.00  0.00    +0.000 C 
ATOM     29  C   UNL     1      30.681 -22.619 -16.171  0.00  0.00    +0.001 C 
ENDBRANCH  19  21
ENDBRANCH   2  19
TORSDOF 4
ENDMDL
MODEL 9
REMARK VINA RESULT:      -9.9      6.614     11.170
REMARK  Name = 5288607
REMARK  4 active torsions:
REMARK  status: ('A' for Active; 'I' for Inactive)
REMARK    1  A    between atoms: N_2  and  C_19
REMARK    2  A    between atoms: C_3  and  C_6
REMARK    3  A    between atoms: C_5  and  C_16
REMARK    4  A    between atoms: C_19  and  C_21
REMARK                            x       y       z     vdW  Elec       q    Type
REMARK                         _______ _______ _______ _____ _____    ______ ____
ROOT
ATOM      1  O   UNL     1      31.940  -2.919 -20.994  0.00  0.00    -0.270 OA
ATOM      2  N   UNL     1      31.465  -3.197 -23.252  0.00  0.00    -0.270 N 
ATOM      3  C   UNL     1      31.615  -3.642 -21.936  0.00  0.00    +0.249 C 
ATOM      4  C   UNL     1      31.701  -1.792 -23.562  0.00  0.00    +0.116 C 
ENDROOT
BRANCH   3   6
ATOM      5  C   UNL     1      32.291  -5.832 -21.016  0.00  0.00    +0.006 C 
ATOM      6  C   UNL     1      31.386  -5.101 -21.708  0.00  0.00    +0.058 C 
BRANCH   5  16
ATOM      7  O   UNL     1      31.751 -13.501 -20.525  0.00  0.00    -0.275 OA
ATOM      8  N   UNL     1      31.909 -11.304 -19.876  0.00  0.00    -0.270 N 
ATOM      9  N   UNL     1      32.154  -9.065 -19.153  0.00  0.00    -0.229 NA
ATOM     10  C   UNL     1      31.675 -10.536 -22.595  0.00  0.00    +0.039 C 
ATOM     11  C   UNL     1      31.946  -9.532 -21.515  0.00  0.00    +0.010 C 
ATOM     12  C   UNL     1      32.259 -11.893 -22.229  0.00  0.00    +0.090 C 
ATOM     13  C   UNL     1      32.016  -9.934 -20.183  0.00  0.00    +0.130 C 
ATOM     14  C   UNL     1      32.031  -8.167 -21.794  0.00  0.00    +0.000 C 
ATOM     15  C   UNL     1      31.916 -12.316 -20.815  0.00  0.00    +0.227 C 
ATOM     16  C   UNL     1      32.195  -7.258 -20.756  0.00  0.00    +0.019 C 
ATOM     17  C   UNL     1      32.247  -7.753 -19.465  0.00  0.00    +0.100 C 
ATOM     18  H   UNL     1      31.822 -11.557 -18.928  0.00  0.00    +0.156 HD
ENDBRANCH   5  16
ENDBRANCH   3   6
BRANCH   2  19
ATOM     19  C   UNL     1      31.114  -4.042 -24.391  0.00  0.00    +0.122 C 
BRANCH  19  21
ATOM     20  N   UNL     1      33.587  -3.829 -27.069  0.00  0.00    -0.284 N 
ATOM     21  C   UNL     1      32.274  -4.136 -25.322  0.00  0.00    +0.014 C 
ATOM     22  C   UNL     1      33.440  -4.913 -25.125  0.00  0.00    +0.013 C 
ATOM     23  C   UNL     1      34.254  -4.703 -26.240  0.00  0.00    +0.051 C 
ATOM     24  C   UNL     1      32.383  -3.481 -26.518  0.00  0.00    +0.063 C 
ATOM     25  C   UNL     1      33.893  -5.777 -24.108  0.00  0.00    +0.001 C 
ATOM     26  C   UNL     1      35.503  -5.316 -26.390  0.00  0.00    +0.015 C 
ATOM     27  C   UNL     1      34.075  -3.341 -28.342  0.00  0.00    +0.117 C 
ATOM     28  C   UNL     1      35.139  -6.398 -24.245  0.00  0.00    +0.000 C 
ATOM     29  C   UNL     1      35.930  -6.170 -25.368  0.00  0.00    +0.001 C 
ENDBRANCH  19  21
ENDBRANCH   2  19
TORSDOF 4
ENDMDL
