MODEL 1
REMARK VINA RESULT:     -12.4      0.000      0.000
REMARK  Name = 5326929
REMARK  3 active torsions:
REMARK  status: ('A' for Active; 'I' for Inactive)
REMARK    1  A    between atoms: C_7  and  C_21
REMARK    2  A    between atoms: C_21  and  C_22
REMARK    3  A    between atoms: C_22  and  C_23
REMARK                            x       y       z     vdW  Elec       q    Type
REMARK                         _______ _______ _______ _____ _____    ______ ____
ROOT
ATOM      1  O   UNL     1      34.573 -25.120 -11.679  0.00  0.00    -0.209 OA
ATOM      2  N   UNL     1      34.585 -23.192 -15.190  0.00  0.00    -0.275 N 
ATOM      3  N   UNL     1      29.772 -25.456 -13.786  0.00  0.00    -0.315 N 
ATOM      4  N   UNL     1      29.810 -24.378 -15.728  0.00  0.00    -0.316 N 
ATOM      5  N   UNL     1      35.737 -23.907 -13.234  0.00  0.00    -0.302 NA
ATOM      6  N   UNL     1      36.797 -22.659 -14.909  0.00  0.00    -0.320 N 
ATOM      7  C   UNL     1      32.234 -23.704 -15.589  0.00  0.00    +0.007 C 
ATOM      8  C   UNL     1      33.384 -23.786 -14.788  0.00  0.00    +0.060 C 
ATOM      9  C   UNL     1      31.052 -24.317 -15.138  0.00  0.00    +0.056 C 
ATOM     10  C   UNL     1      31.053 -24.985 -13.919  0.00  0.00    +0.060 C 
ATOM     11  C   UNL     1      33.347 -24.469 -13.562  0.00  0.00    +0.109 C 
ATOM     12  C   UNL     1      32.177 -25.088 -13.097  0.00  0.00    +0.029 C 
ATOM     13  C   UNL     1      34.598 -24.525 -12.752  0.00  0.00    +0.208 C 
ATOM     14  C   UNL     1      29.068 -25.068 -14.892  0.00  0.00    +0.182 C 
ATOM     15  C   UNL     1      35.696 -23.288 -14.385  0.00  0.00    +0.248 C 
ATOM     16  H   UNL     1      34.634 -22.709 -16.046  0.00  0.00    +0.156 HD
ATOM     17  H   UNL     1      29.421 -25.980 -13.030  0.00  0.00    +0.148 HD
ATOM     18  H   UNL     1      29.537 -23.990 -16.591  0.00  0.00    +0.148 HD
ATOM     19  H   UNL     1      36.735 -22.201 -15.780  0.00  0.00    +0.146 HD
ATOM     20  H   UNL     1      37.649 -22.664 -14.417  0.00  0.00    +0.146 HD
ENDROOT
BRANCH   7  21
ATOM     21  C   UNL     1      32.267 -22.977 -16.896  0.00  0.00    +0.034 C 
BRANCH  21  22
ATOM     22  C   UNL     1      33.396 -23.437 -17.836  0.00  0.00    +0.031 C 
BRANCH  22  23
ATOM     23  C   UNL     1      33.871 -22.353 -18.772  0.00  0.00    -0.022 C 
ATOM     24  C   UNL     1      32.940 -21.534 -19.394  0.00  0.00    -0.005 C 
ATOM     25  C   UNL     1      35.229 -22.193 -18.994  0.00  0.00    -0.005 C 
ATOM     26  C   UNL     1      34.744 -20.361 -20.492  0.00  0.00    -0.022 C 
ATOM     27  C   UNL     1      33.380 -20.533 -20.259  0.00  0.00    -0.005 C 
ATOM     28  C   UNL     1      35.669 -21.192 -19.859  0.00  0.00    -0.005 C 
ATOM     29  C   UNL     1      35.214 -19.290 -21.416  0.00  0.00    +0.031 C 
ENDBRANCH  22  23
ENDBRANCH  21  22
ENDBRANCH   7  21
TORSDOF 3
ENDMDL
MODEL 2
REMARK VINA RESULT:     -12.1      1.678      4.133
REMARK  Name = 5326929
REMARK  3 active torsions:
REMARK  status: ('A' for Active; 'I' for Inactive)
REMARK    1  A    between atoms: C_7  and  C_21
REMARK    2  A    between atoms: C_21  and  C_22
REMARK    3  A    between atoms: C_22  and  C_23
REMARK                            x       y       z     vdW  Elec       q    Type
REMARK                         _______ _______ _______ _____ _____    ______ ____
ROOT
ATOM      1  O   UNL     1      28.844 -25.900 -13.668  0.00  0.00    -0.209 OA
ATOM      2  N   UNL     1      29.850 -23.356 -16.594  0.00  0.00    -0.275 N 
ATOM      3  N   UNL     1      34.043 -25.152 -13.519  0.00  0.00    -0.315 N 
ATOM      4  N   UNL     1      34.569 -23.740 -15.152  0.00  0.00    -0.316 N 
ATOM      5  N   UNL     1      28.182 -24.585 -15.422  0.00  0.00    -0.302 NA
ATOM      6  N   UNL     1      27.654 -23.201 -17.237  0.00  0.00    -0.320 N 
ATOM      7  C   UNL     1      32.211 -23.448 -15.994  0.00  0.00    +0.007 C 
ATOM      8  C   UNL     1      30.880 -23.841 -15.783  0.00  0.00    +0.060 C 
ATOM      9  C   UNL     1      33.211 -23.966 -15.151  0.00  0.00    +0.056 C 
ATOM     10  C   UNL     1      32.856 -24.849 -14.137  0.00  0.00    +0.060 C 
ATOM     11  C   UNL     1      30.562 -24.735 -14.749  0.00  0.00    +0.109 C 
ATOM     12  C   UNL     1      31.545 -25.261 -13.897  0.00  0.00    +0.029 C 
ATOM     13  C   UNL     1      29.132 -25.119 -14.570  0.00  0.00    +0.208 C 
ATOM     14  C   UNL     1      35.035 -24.465 -14.162  0.00  0.00    +0.182 C 
ATOM     15  C   UNL     1      28.554 -23.758 -16.364  0.00  0.00    +0.248 C 
ATOM     16  H   UNL     1      30.050 -22.728 -17.324  0.00  0.00    +0.156 HD
ATOM     17  H   UNL     1      34.159 -25.756 -12.751  0.00  0.00    +0.148 HD
ATOM     18  H   UNL     1      35.079 -23.160 -15.762  0.00  0.00    +0.148 HD
ATOM     19  H   UNL     1      27.965 -22.580 -17.937  0.00  0.00    +0.146 HD
ATOM     20  H   UNL     1      26.697 -23.419 -17.164  0.00  0.00    +0.146 HD
ENDROOT
BRANCH   7  21
ATOM     21  C   UNL     1      32.558 -22.496 -17.095  0.00  0.00    +0.034 C 
BRANCH  21  22
ATOM     22  C   UNL     1      33.503 -23.090 -18.156  0.00  0.00    +0.031 C 
BRANCH  22  23
ATOM     23  C   UNL     1      34.176 -22.043 -19.009  0.00  0.00    -0.022 C 
ATOM     24  C   UNL     1      33.400 -21.204 -19.795  0.00  0.00    -0.005 C 
ATOM     25  C   UNL     1      35.557 -21.935 -18.991  0.00  0.00    -0.005 C 
ATOM     26  C   UNL     1      35.412 -20.118 -20.576  0.00  0.00    -0.022 C 
ATOM     27  C   UNL     1      34.022 -20.236 -20.583  0.00  0.00    -0.005 C 
ATOM     28  C   UNL     1      36.180 -20.968 -19.779  0.00  0.00    -0.005 C 
ATOM     29  C   UNL     1      36.076 -19.082 -21.417  0.00  0.00    +0.031 C 
ENDBRANCH  22  23
ENDBRANCH  21  22
ENDBRANCH   7  21
TORSDOF 3
ENDMDL
MODEL 3
REMARK VINA RESULT:     -11.8      1.218      4.047
REMARK  Name = 5326929
REMARK  3 active torsions:
REMARK  status: ('A' for Active; 'I' for Inactive)
REMARK    1  A    between atoms: C_7  and  C_21
REMARK    2  A    between atoms: C_21  and  C_22
REMARK    3  A    between atoms: C_22  and  C_23
REMARK                            x       y       z     vdW  Elec       q    Type
REMARK                         _______ _______ _______ _____ _____    ______ ____
ROOT
ATOM      1  O   UNL     1      30.621 -25.414 -12.399  0.00  0.00    -0.209 OA
ATOM      2  N   UNL     1      30.442 -23.822 -16.070  0.00  0.00    -0.275 N 
ATOM      3  N   UNL     1      35.444 -23.855 -13.781  0.00  0.00    -0.315 N 
ATOM      4  N   UNL     1      35.313 -22.979 -15.819  0.00  0.00    -0.316 N 
ATOM      5  N   UNL     1      29.354 -24.854 -14.222  0.00  0.00    -0.302 NA
ATOM      6  N   UNL     1      28.187 -24.228 -16.155  0.00  0.00    -0.320 N 
ATOM      7  C   UNL     1      32.834 -23.346 -16.085  0.00  0.00    +0.007 C 
ATOM      8  C   UNL     1      31.692 -23.854 -15.445  0.00  0.00    +0.060 C 
ATOM      9  C   UNL     1      34.068 -23.402 -15.413  0.00  0.00    +0.056 C 
ATOM     10  C   UNL     1      34.124 -23.956 -14.139  0.00  0.00    +0.060 C 
ATOM     11  C   UNL     1      31.789 -24.405 -14.157  0.00  0.00    +0.109 C 
ATOM     12  C   UNL     1      33.011 -24.469 -13.470  0.00  0.00    +0.029 C 
ATOM     13  C   UNL     1      30.545 -24.929 -13.524  0.00  0.00    +0.208 C 
ATOM     14  C   UNL     1      36.113 -23.265 -14.818  0.00  0.00    +0.182 C 
ATOM     15  C   UNL     1      29.340 -24.327 -15.419  0.00  0.00    +0.248 C 
ATOM     16  H   UNL     1      30.351 -23.440 -16.972  0.00  0.00    +0.156 HD
ATOM     17  H   UNL     1      35.839 -24.153 -12.930  0.00  0.00    +0.148 HD
ATOM     18  H   UNL     1      35.552 -22.554 -16.674  0.00  0.00    +0.148 HD
ATOM     19  H   UNL     1      28.209 -23.825 -17.054  0.00  0.00    +0.146 HD
ATOM     20  H   UNL     1      27.337 -24.558 -15.786  0.00  0.00    +0.146 HD
ENDROOT
BRANCH   7  21
ATOM     21  C   UNL     1      32.738 -22.758 -17.458  0.00  0.00    +0.034 C 
BRANCH  21  22
ATOM     22  C   UNL     1      33.882 -23.181 -18.397  0.00  0.00    +0.031 C 
BRANCH  22  23
ATOM     23  C   UNL     1      34.449 -22.036 -19.200  0.00  0.00    -0.022 C 
ATOM     24  C   UNL     1      35.821 -21.836 -19.227  0.00  0.00    -0.005 C 
ATOM     25  C   UNL     1      33.588 -21.203 -19.897  0.00  0.00    -0.005 C 
ATOM     26  C   UNL     1      35.488 -19.930 -20.674  0.00  0.00    -0.022 C 
ATOM     27  C   UNL     1      36.343 -20.777 -19.969  0.00  0.00    -0.005 C 
ATOM     28  C   UNL     1      34.110 -20.144 -20.639  0.00  0.00    -0.005 C 
ATOM     29  C   UNL     1      36.047 -18.799 -21.468  0.00  0.00    +0.031 C 
ENDBRANCH  22  23
ENDBRANCH  21  22
ENDBRANCH   7  21
TORSDOF 3
ENDMDL
MODEL 4
REMARK VINA RESULT:     -11.6      1.452      3.981
REMARK  Name = 5326929
REMARK  3 active torsions:
REMARK  status: ('A' for Active; 'I' for Inactive)
REMARK    1  A    between atoms: C_7  and  C_21
REMARK    2  A    between atoms: C_21  and  C_22
REMARK    3  A    between atoms: C_22  and  C_23
REMARK                            x       y       z     vdW  Elec       q    Type
REMARK                         _______ _______ _______ _____ _____    ______ ____
ROOT
ATOM      1  O   UNL     1      30.832 -23.891 -12.273  0.00  0.00    -0.209 OA
ATOM      2  N   UNL     1      31.436 -23.439 -16.207  0.00  0.00    -0.275 N 
ATOM      3  N   UNL     1      35.971 -24.398 -13.244  0.00  0.00    -0.315 N 
ATOM      4  N   UNL     1      36.273 -24.144 -15.431  0.00  0.00    -0.316 N 
ATOM      5  N   UNL     1      29.949 -23.503 -14.350  0.00  0.00    -0.302 NA
ATOM      6  N   UNL     1      29.188 -23.118 -16.532  0.00  0.00    -0.320 N 
ATOM      7  C   UNL     1      33.841 -23.768 -15.974  0.00  0.00    +0.007 C 
ATOM      8  C   UNL     1      32.558 -23.685 -15.410  0.00  0.00    +0.060 C 
ATOM      9  C   UNL     1      34.936 -24.018 -15.128  0.00  0.00    +0.056 C 
ATOM     10  C   UNL     1      34.721 -24.173 -13.763  0.00  0.00    +0.060 C 
ATOM     11  C   UNL     1      32.381 -23.848 -14.027  0.00  0.00    +0.109 C 
ATOM     12  C   UNL     1      33.461 -24.096 -13.167  0.00  0.00    +0.029 C 
ATOM     13  C   UNL     1      30.996 -23.749 -13.481  0.00  0.00    +0.208 C 
ATOM     14  C   UNL     1      36.863 -24.370 -14.280  0.00  0.00    +0.182 C 
ATOM     15  C   UNL     1      30.190 -23.362 -15.627  0.00  0.00    +0.248 C 
ATOM     16  H   UNL     1      31.536 -23.321 -17.178  0.00  0.00    +0.156 HD
ATOM     17  H   UNL     1      36.187 -24.551 -12.297  0.00  0.00    +0.148 HD
ATOM     18  H   UNL     1      36.695 -24.078 -16.318  0.00  0.00    +0.148 HD
ATOM     19  H   UNL     1      29.403 -23.016 -17.488  0.00  0.00    +0.146 HD
ATOM     20  H   UNL     1      28.256 -23.043 -16.226  0.00  0.00    +0.146 HD
ENDROOT
BRANCH   7  21
ATOM     21  C   UNL     1      34.037 -23.596 -17.447  0.00  0.00    +0.034 C 
BRANCH  21  22
ATOM     22  C   UNL     1      33.102 -22.550 -18.082  0.00  0.00    +0.031 C 
BRANCH  22  23
ATOM     23  C   UNL     1      33.794 -21.665 -19.089  0.00  0.00    -0.022 C 
ATOM     24  C   UNL     1      35.177 -21.691 -19.180  0.00  0.00    -0.005 C 
ATOM     25  C   UNL     1      33.035 -20.842 -19.905  0.00  0.00    -0.005 C 
ATOM     26  C   UNL     1      35.065 -20.038 -20.939  0.00  0.00    -0.022 C 
ATOM     27  C   UNL     1      35.816 -20.872 -20.111  0.00  0.00    -0.005 C 
ATOM     28  C   UNL     1      33.674 -20.023 -20.836  0.00  0.00    -0.005 C 
ATOM     29  C   UNL     1      35.748 -19.164 -21.935  0.00  0.00    +0.031 C 
ENDBRANCH  22  23
ENDBRANCH  21  22
ENDBRANCH   7  21
TORSDOF 3
ENDMDL
MODEL 5
REMARK VINA RESULT:     -10.8      2.939      5.939
REMARK  Name = 5326929
REMARK  3 active torsions:
REMARK  status: ('A' for Active; 'I' for Inactive)
REMARK    1  A    between atoms: C_7  and  C_21
REMARK    2  A    between atoms: C_21  and  C_22
REMARK    3  A    between atoms: C_22  and  C_23
REMARK                            x       y       z     vdW  Elec       q    Type
REMARK                         _______ _______ _______ _____ _____    ______ ____
ROOT
ATOM      1  O   UNL     1      37.206 -22.010 -16.707  0.00  0.00    -0.209 OA
ATOM      2  N   UNL     1      33.659 -23.794 -16.180  0.00  0.00    -0.275 N 
ATOM      3  N   UNL     1      37.111 -24.157 -11.912  0.00  0.00    -0.315 N 
ATOM      4  N   UNL     1      35.134 -25.136 -11.650  0.00  0.00    -0.316 N 
ATOM      5  N   UNL     1      35.145 -22.541 -17.553  0.00  0.00    -0.302 NA
ATOM      6  N   UNL     1      33.006 -23.156 -18.284  0.00  0.00    -0.320 N 
ATOM      7  C   UNL     1      34.251 -24.523 -13.930  0.00  0.00    +0.007 C 
ATOM      8  C   UNL     1      34.572 -23.858 -15.124  0.00  0.00    +0.060 C 
ATOM      9  C   UNL     1      35.205 -24.558 -12.897  0.00  0.00    +0.056 C 
ATOM     10  C   UNL     1      36.435 -23.937 -13.085  0.00  0.00    +0.060 C 
ATOM     11  C   UNL     1      35.825 -23.243 -15.276  0.00  0.00    +0.109 C 
ATOM     12  C   UNL     1      36.790 -23.268 -14.258  0.00  0.00    +0.029 C 
ATOM     13  C   UNL     1      36.114 -22.551 -16.565  0.00  0.00    +0.208 C 
ATOM     14  C   UNL     1      36.291 -24.877 -11.087  0.00  0.00    +0.182 C 
ATOM     15  C   UNL     1      34.001 -23.136 -17.339  0.00  0.00    +0.248 C 
ATOM     16  H   UNL     1      32.775 -24.219 -16.095  0.00  0.00    +0.156 HD
ATOM     17  H   UNL     1      38.022 -23.851 -11.701  0.00  0.00    +0.148 HD
ATOM     18  H   UNL     1      34.379 -25.636 -11.264  0.00  0.00    +0.148 HD
ATOM     19  H   UNL     1      32.154 -23.613 -18.093  0.00  0.00    +0.146 HD
ATOM     20  H   UNL     1      33.143 -22.714 -19.153  0.00  0.00    +0.146 HD
ENDROOT
BRANCH   7  21
ATOM     21  C   UNL     1      32.918 -25.181 -13.760  0.00  0.00    +0.034 C 
BRANCH  21  22
ATOM     22  C   UNL     1      31.828 -24.245 -13.204  0.00  0.00    +0.031 C 
BRANCH  22  23
ATOM     23  C   UNL     1      30.679 -24.035 -14.158  0.00  0.00    -0.022 C 
ATOM     24  C   UNL     1      30.450 -22.772 -14.682  0.00  0.00    -0.005 C 
ATOM     25  C   UNL     1      29.871 -25.110 -14.496  0.00  0.00    -0.005 C 
ATOM     26  C   UNL     1      28.565 -23.651 -15.911  0.00  0.00    -0.022 C 
ATOM     27  C   UNL     1      29.387 -22.579 -15.564  0.00  0.00    -0.005 C 
ATOM     28  C   UNL     1      28.808 -24.917 -15.378  0.00  0.00    -0.005 C 
ATOM     29  C   UNL     1      27.430 -23.446 -16.855  0.00  0.00    +0.031 C 
ENDBRANCH  22  23
ENDBRANCH  21  22
ENDBRANCH   7  21
TORSDOF 3
ENDMDL
MODEL 6
REMARK VINA RESULT:     -10.5      1.359      4.124
REMARK  Name = 5326929
REMARK  3 active torsions:
REMARK  status: ('A' for Active; 'I' for Inactive)
REMARK    1  A    between atoms: C_7  and  C_21
REMARK    2  A    between atoms: C_21  and  C_22
REMARK    3  A    between atoms: C_22  and  C_23
REMARK                            x       y       z     vdW  Elec       q    Type
REMARK                         _______ _______ _______ _____ _____    ______ ____
ROOT
ATOM      1  O   UNL     1      33.057 -24.292 -12.378  0.00  0.00    -0.209 OA
ATOM      2  N   UNL     1      31.984 -24.025 -16.227  0.00  0.00    -0.275 N 
ATOM      3  N   UNL     1      37.177 -22.568 -15.145  0.00  0.00    -0.315 N 
ATOM      4  N   UNL     1      36.552 -22.432 -17.273  0.00  0.00    -0.316 N 
ATOM      5  N   UNL     1      31.434 -24.550 -13.972  0.00  0.00    -0.302 NA
ATOM      6  N   UNL     1      29.877 -24.767 -15.709  0.00  0.00    -0.320 N 
ATOM      7  C   UNL     1      34.192 -23.229 -16.888  0.00  0.00    +0.007 C 
ATOM      8  C   UNL     1      33.295 -23.665 -15.900  0.00  0.00    +0.060 C 
ATOM      9  C   UNL     1      35.500 -22.880 -16.507  0.00  0.00    +0.056 C 
ATOM     10  C   UNL     1      35.867 -22.975 -15.169  0.00  0.00    +0.060 C 
ATOM     11  C   UNL     1      33.703 -23.748 -14.560  0.00  0.00    +0.109 C 
ATOM     12  C   UNL     1      35.003 -23.403 -14.160  0.00  0.00    +0.029 C 
ATOM     13  C   UNL     1      32.709 -24.217 -13.552  0.00  0.00    +0.208 C 
ATOM     14  C   UNL     1      37.539 -22.254 -16.426  0.00  0.00    +0.182 C 
ATOM     15  C   UNL     1      31.126 -24.448 -15.239  0.00  0.00    +0.248 C 
ATOM     16  H   UNL     1      31.676 -23.974 -17.160  0.00  0.00    +0.156 HD
ATOM     17  H   UNL     1      37.753 -22.512 -14.349  0.00  0.00    +0.148 HD
ATOM     18  H   UNL     1      36.561 -22.277 -18.245  0.00  0.00    +0.148 HD
ATOM     19  H   UNL     1      29.675 -24.679 -16.670  0.00  0.00    +0.146 HD
ATOM     20  H   UNL     1      29.182 -25.081 -15.088  0.00  0.00    +0.146 HD
ENDROOT
BRANCH   7  21
ATOM     21  C   UNL     1      33.765 -23.140 -18.319  0.00  0.00    +0.034 C 
BRANCH  21  22
ATOM     22  C   UNL     1      33.099 -21.801 -18.688  0.00  0.00    +0.031 C 
BRANCH  22  23
ATOM     23  C   UNL     1      33.884 -21.005 -19.701  0.00  0.00    -0.022 C 
ATOM     24  C   UNL     1      33.206 -20.263 -20.657  0.00  0.00    -0.005 C 
ATOM     25  C   UNL     1      35.269 -21.028 -19.659  0.00  0.00    -0.005 C 
ATOM     26  C   UNL     1      35.326 -19.543 -21.564  0.00  0.00    -0.022 C 
ATOM     27  C   UNL     1      33.932 -19.528 -21.594  0.00  0.00    -0.005 C 
ATOM     28  C   UNL     1      35.995 -20.293 -20.596  0.00  0.00    -0.005 C 
ATOM     29  C   UNL     1      36.102 -18.756 -22.564  0.00  0.00    +0.031 C 
ENDBRANCH  22  23
ENDBRANCH  21  22
ENDBRANCH   7  21
TORSDOF 3
ENDMDL
MODEL 7
REMARK VINA RESULT:     -10.2     12.035     15.395
REMARK  Name = 5326929
REMARK  3 active torsions:
REMARK  status: ('A' for Active; 'I' for Inactive)
REMARK    1  A    between atoms: C_7  and  C_21
REMARK    2  A    between atoms: C_21  and  C_22
REMARK    3  A    between atoms: C_22  and  C_23
REMARK                            x       y       z     vdW  Elec       q    Type
REMARK                         _______ _______ _______ _____ _____    ______ ____
ROOT
ATOM      1  O   UNL     1      32.590  -5.101 -21.411  0.00  0.00    -0.209 OA
ATOM      2  N   UNL     1      32.697  -8.309 -23.807  0.00  0.00    -0.275 N 
ATOM      3  N   UNL     1      31.696  -9.386 -18.506  0.00  0.00    -0.315 N 
ATOM      4  N   UNL     1      31.760 -11.146 -19.861  0.00  0.00    -0.316 N 
ATOM      5  N   UNL     1      32.869  -5.953 -23.518  0.00  0.00    -0.302 NA
ATOM      6  N   UNL     1      33.129  -6.966 -25.615  0.00  0.00    -0.320 N 
ATOM      7  C   UNL     1      32.240  -9.828 -21.954  0.00  0.00    +0.007 C 
ATOM      8  C   UNL     1      32.446  -8.530 -22.449  0.00  0.00    +0.060 C 
ATOM      9  C   UNL     1      31.991  -9.996 -20.581  0.00  0.00    +0.056 C 
ATOM     10  C   UNL     1      31.955  -8.879 -19.754  0.00  0.00    +0.060 C 
ATOM     11  C   UNL     1      32.402  -7.427 -21.582  0.00  0.00    +0.109 C 
ATOM     12  C   UNL     1      32.155  -7.575 -20.209  0.00  0.00    +0.029 C 
ATOM     13  C   UNL     1      32.627  -6.071 -22.162  0.00  0.00    +0.208 C 
ATOM     14  C   UNL     1      31.588 -10.745 -18.623  0.00  0.00    +0.182 C 
ATOM     15  C   UNL     1      32.894  -7.026 -24.264  0.00  0.00    +0.248 C 
ATOM     16  H   UNL     1      32.733  -9.068 -24.432  0.00  0.00    +0.156 HD
ATOM     17  H   UNL     1      31.604  -8.867 -17.675  0.00  0.00    +0.148 HD
ATOM     18  H   UNL     1      31.731 -12.069 -20.201  0.00  0.00    +0.148 HD
ATOM     19  H   UNL     1      33.142  -7.793 -26.150  0.00  0.00    +0.146 HD
ATOM     20  H   UNL     1      33.284  -6.097 -26.049  0.00  0.00    +0.146 HD
ENDROOT
BRANCH   7  21
ATOM     21  C   UNL     1      32.285 -11.008 -22.873  0.00  0.00    +0.034 C 
BRANCH  21  22
ATOM     22  C   UNL     1      33.709 -11.426 -23.281  0.00  0.00    +0.031 C 
BRANCH  22  23
ATOM     23  C   UNL     1      33.836 -12.900 -23.579  0.00  0.00    -0.022 C 
ATOM     24  C   UNL     1      33.388 -13.389 -24.797  0.00  0.00    -0.005 C 
ATOM     25  C   UNL     1      34.398 -13.739 -22.630  0.00  0.00    -0.005 C 
ATOM     26  C   UNL     1      34.069 -15.608 -24.125  0.00  0.00    -0.022 C 
ATOM     27  C   UNL     1      33.506 -14.752 -25.071  0.00  0.00    -0.005 C 
ATOM     28  C   UNL     1      34.516 -15.101 -22.904  0.00  0.00    -0.005 C 
ATOM     29  C   UNL     1      34.195 -17.064 -24.419  0.00  0.00    +0.031 C 
ENDBRANCH  22  23
ENDBRANCH  21  22
ENDBRANCH   7  21
TORSDOF 3
ENDMDL
MODEL 8
REMARK VINA RESULT:     -10.1      2.724      5.356
REMARK  Name = 5326929
REMARK  3 active torsions:
REMARK  status: ('A' for Active; 'I' for Inactive)
REMARK    1  A    between atoms: C_7  and  C_21
REMARK    2  A    between atoms: C_21  and  C_22
REMARK    3  A    between atoms: C_22  and  C_23
REMARK                            x       y       z     vdW  Elec       q    Type
REMARK                         _______ _______ _______ _____ _____    ______ ____
ROOT
ATOM      1  O   UNL     1      37.766 -22.812 -12.994  0.00  0.00    -0.209 OA
ATOM      2  N   UNL     1      34.518 -24.905 -11.938  0.00  0.00    -0.275 N 
ATOM      3  N   UNL     1      34.425 -22.871 -17.048  0.00  0.00    -0.315 N 
ATOM      4  N   UNL     1      32.637 -24.039 -16.433  0.00  0.00    -0.316 N 
ATOM      5  N   UNL     1      36.663 -24.027 -11.396  0.00  0.00    -0.302 NA
ATOM      6  N   UNL     1      35.419 -25.289  -9.864  0.00  0.00    -0.320 N 
ATOM      7  C   UNL     1      33.468 -24.557 -14.111  0.00  0.00    +0.007 C 
ATOM      8  C   UNL     1      34.543 -24.367 -13.228  0.00  0.00    +0.060 C 
ATOM      9  C   UNL     1      33.543 -23.995 -15.398  0.00  0.00    +0.056 C 
ATOM     10  C   UNL     1      34.673 -23.269 -15.760  0.00  0.00    +0.060 C 
ATOM     11  C   UNL     1      35.667 -23.627 -13.630  0.00  0.00    +0.109 C 
ATOM     12  C   UNL     1      35.759 -23.058 -14.909  0.00  0.00    +0.029 C 
ATOM     13  C   UNL     1      36.779 -23.456 -12.651  0.00  0.00    +0.208 C 
ATOM     14  C   UNL     1      33.196 -23.355 -17.405  0.00  0.00    +0.182 C 
ATOM     15  C   UNL     1      35.585 -24.703 -11.094  0.00  0.00    +0.248 C 
ATOM     16  H   UNL     1      33.740 -25.426 -11.635  0.00  0.00    +0.156 HD
ATOM     17  H   UNL     1      35.023 -22.333 -17.615  0.00  0.00    +0.148 HD
ATOM     18  H   UNL     1      31.760 -24.485 -16.443  0.00  0.00    +0.148 HD
ATOM     19  H   UNL     1      34.595 -25.792  -9.666  0.00  0.00    +0.146 HD
ATOM     20  H   UNL     1      36.122 -25.208  -9.180  0.00  0.00    +0.146 HD
ENDROOT
BRANCH   7  21
ATOM     21  C   UNL     1      32.268 -25.344 -13.691  0.00  0.00    +0.034 C 
BRANCH  21  22
ATOM     22  C   UNL     1      31.107 -24.478 -13.166  0.00  0.00    +0.031 C 
BRANCH  22  23
ATOM     23  C   UNL     1      30.106 -24.115 -14.234  0.00  0.00    -0.022 C 
ATOM     24  C   UNL     1      29.872 -22.778 -14.522  0.00  0.00    -0.005 C 
ATOM     25  C   UNL     1      29.436 -25.122 -14.910  0.00  0.00    -0.005 C 
ATOM     26  C   UNL     1      28.264 -23.447 -16.197  0.00  0.00    -0.022 C 
ATOM     27  C   UNL     1      28.946 -22.443 -15.509  0.00  0.00    -0.005 C 
ATOM     28  C   UNL     1      28.510 -24.787 -15.897  0.00  0.00    -0.005 C 
ATOM     29  C   UNL     1      27.275 -23.089 -17.253  0.00  0.00    +0.031 C 
ENDBRANCH  22  23
ENDBRANCH  21  22
ENDBRANCH   7  21
TORSDOF 3
ENDMDL
MODEL 9
REMARK VINA RESULT:     -10.1      2.870      5.642
REMARK  Name = 5326929
REMARK  3 active torsions:
REMARK  status: ('A' for Active; 'I' for Inactive)
REMARK    1  A    between atoms: C_7  and  C_21
REMARK    2  A    between atoms: C_21  and  C_22
REMARK    3  A    between atoms: C_22  and  C_23
REMARK                            x       y       z     vdW  Elec       q    Type
REMARK                         _______ _______ _______ _____ _____    ______ ____
ROOT
ATOM      1  O   UNL     1      38.345 -22.845 -11.824  0.00  0.00    -0.209 OA
ATOM      2  N   UNL     1      34.871 -24.785 -11.364  0.00  0.00    -0.275 N 
ATOM      3  N   UNL     1      35.731 -22.695 -16.380  0.00  0.00    -0.315 N 
ATOM      4  N   UNL     1      33.813 -23.779 -16.093  0.00  0.00    -0.316 N 
ATOM      5  N   UNL     1      36.934 -24.020 -10.456  0.00  0.00    -0.302 NA
ATOM      6  N   UNL     1      35.392 -25.235  -9.177  0.00  0.00    -0.320 N 
ATOM      7  C   UNL     1      34.218 -24.362 -13.675  0.00  0.00    +0.007 C 
ATOM      8  C   UNL     1      35.137 -24.235 -12.622  0.00  0.00    +0.060 C 
ATOM      9  C   UNL     1      34.533 -23.791 -14.921  0.00  0.00    +0.056 C 
ATOM     10  C   UNL     1      35.741 -23.119 -15.075  0.00  0.00    +0.060 C 
ATOM     11  C   UNL     1      36.346 -23.549 -12.816  0.00  0.00    +0.109 C 
ATOM     12  C   UNL     1      36.678 -22.971 -14.051  0.00  0.00    +0.029 C 
ATOM     13  C   UNL     1      37.285 -23.443 -11.663  0.00  0.00    +0.208 C 
ATOM     14  C   UNL     1      34.558 -23.114 -16.945  0.00  0.00    +0.182 C 
ATOM     15  C   UNL     1      35.790 -24.645 -10.350  0.00  0.00    +0.248 C 
ATOM     16  H   UNL     1      34.029 -25.270 -11.205  0.00  0.00    +0.156 HD
ATOM     17  H   UNL     1      36.441 -22.182 -16.828  0.00  0.00    +0.148 HD
ATOM     18  H   UNL     1      32.929 -24.181 -16.257  0.00  0.00    +0.148 HD
ATOM     19  H   UNL     1      34.524 -25.698  -9.128  0.00  0.00    +0.146 HD
ATOM     20  H   UNL     1      35.973 -25.196  -8.384  0.00  0.00    +0.146 HD
ENDROOT
BRANCH   7  21
ATOM     21  C   UNL     1      32.928 -25.093 -13.475  0.00  0.00    +0.034 C 
BRANCH  21  22
ATOM     22  C   UNL     1      31.764 -24.191 -13.024  0.00  0.00    +0.031 C 
BRANCH  22  23
ATOM     23  C   UNL     1      30.685 -24.044 -14.068  0.00  0.00    -0.022 C 
ATOM     24  C   UNL     1      29.943 -25.154 -14.443  0.00  0.00    -0.005 C 
ATOM     25  C   UNL     1      30.453 -22.800 -14.635  0.00  0.00    -0.005 C 
ATOM     26  C   UNL     1      28.703 -23.771 -15.988  0.00  0.00    -0.022 C 
ATOM     27  C   UNL     1      28.946 -25.016 -15.408  0.00  0.00    -0.005 C 
ATOM     28  C   UNL     1      29.456 -22.663 -15.600  0.00  0.00    -0.005 C 
ATOM     29  C   UNL     1      27.636 -23.625 -17.018  0.00  0.00    +0.031 C 
ENDBRANCH  22  23
ENDBRANCH  21  22
ENDBRANCH   7  21
TORSDOF 3
ENDMDL
