MODEL 1
REMARK VINA RESULT:     -13.0      0.000      0.000
REMARK  Name = 208951
REMARK  4 active torsions:
REMARK  status: ('A' for Active; 'I' for Inactive)
REMARK    1  A    between atoms: N_1  and  C_19
REMARK    2  A    between atoms: N_2  and  C_11
REMARK    3  A    between atoms: C_19  and  C_20
REMARK    4  A    between atoms: C_23  and  C_26
REMARK                            x       y       z     vdW  Elec       q    Type
REMARK                         _______ _______ _______ _____ _____    ______ ____
ROOT
ATOM      1  N   UNL     1      34.448 -22.428 -17.681  0.00  0.00    +0.392 N 
ATOM      2  N   UNL     1      35.218 -23.722 -15.254  0.00  0.00    -0.309 N 
ATOM      3  C   UNL     1      35.867 -22.620 -17.358  0.00  0.00    -0.055 C 
ATOM      4  C   UNL     1      33.661 -23.550 -17.156  0.00  0.00    -0.055 C 
ATOM      5  C   UNL     1      36.082 -22.696 -15.845  0.00  0.00    +0.068 C 
ATOM      6  C   UNL     1      33.801 -23.657 -15.636  0.00  0.00    +0.068 C 
ATOM      7  H   UNL     1      34.125 -21.565 -17.242  0.00  0.00    -0.079 HD
ENDROOT
BRANCH   2  11
ATOM      8  O   UNL     1      37.501 -25.525 -14.793  0.00  0.00    -0.406 OA
ATOM      9  O   UNL     1      39.334 -26.925 -14.613  0.00  0.00    -0.223 OA
ATOM     10  N   UNL     1      38.036 -26.418 -12.744  0.00  0.00    -0.287 N 
ATOM     11  C   UNL     1      35.536 -24.263 -14.002  0.00  0.00    +0.084 C 
ATOM     12  C   UNL     1      36.619 -25.112 -13.808  0.00  0.00    +0.179 A 
ATOM     13  C   UNL     1      34.770 -23.973 -12.855  0.00  0.00    +0.018 C 
ATOM     14  C   UNL     1      36.924 -25.637 -12.570  0.00  0.00    +0.098 A 
ATOM     15  C   UNL     1      35.091 -24.517 -11.595  0.00  0.00    +0.003 C 
ATOM     16  C   UNL     1      36.188 -25.366 -11.440  0.00  0.00    +0.020 C 
ATOM     17  C   UNL     1      38.388 -26.354 -14.082  0.00  0.00    +0.419 A 
ATOM     18  H   UNL     1      38.500 -26.931 -12.045  0.00  0.00    +0.172 HD
ENDBRANCH   2  11
BRANCH   1  19
ATOM     19  C   UNL     1      34.263 -22.302 -19.125  0.00  0.00    -0.050 C 
BRANCH  19  20
ATOM     20  C   UNL     1      35.168 -21.246 -19.698  0.00  0.00    -0.043 C 
ATOM     21  C   UNL     1      34.711 -20.440 -20.733  0.00  0.00    -0.006 C 
ATOM     22  C   UNL     1      36.449 -21.089 -19.184  0.00  0.00    -0.006 C 
ATOM     23  C   UNL     1      35.551 -19.460 -21.263  0.00  0.00    -0.000 C 
ATOM     24  C   UNL     1      37.287 -20.110 -19.714  0.00  0.00    -0.000 C 
ATOM     25  C   UNL     1      36.839 -19.296 -20.754  0.00  0.00    -0.000 C 
BRANCH  23  26
ATOM     26  C   UNL     1      35.085 -18.613 -22.340  0.00  0.00    -0.000 C 
ATOM     27  C   UNL     1      35.288 -17.235 -22.282  0.00  0.00    -0.000 C 
ATOM     28  C   UNL     1      34.433 -19.176 -23.438  0.00  0.00    -0.000 C 
ATOM     29  C   UNL     1      34.840 -16.419 -23.320  0.00  0.00    -0.000 C 
ATOM     30  C   UNL     1      33.985 -18.360 -24.476  0.00  0.00    -0.000 C 
ATOM     31  C   UNL     1      34.189 -16.981 -24.417  0.00  0.00    +0.000 C 
ENDBRANCH  23  26
ENDBRANCH  19  20
ENDBRANCH   1  19
TORSDOF 4
ENDMDL
MODEL 2
REMARK VINA RESULT:     -12.6      7.510     12.510
REMARK  Name = 208951
REMARK  4 active torsions:
REMARK  status: ('A' for Active; 'I' for Inactive)
REMARK    1  A    between atoms: N_1  and  C_19
REMARK    2  A    between atoms: N_2  and  C_11
REMARK    3  A    between atoms: C_19  and  C_20
REMARK    4  A    between atoms: C_23  and  C_26
REMARK                            x       y       z     vdW  Elec       q    Type
REMARK                         _______ _______ _______ _____ _____    ______ ____
ROOT
ATOM      1  N   UNL     1      34.190 -14.947 -22.648  0.00  0.00    +0.392 N 
ATOM      2  N   UNL     1      33.065 -12.594 -21.484  0.00  0.00    -0.309 N 
ATOM      3  C   UNL     1      34.029 -13.727 -23.447  0.00  0.00    -0.055 C 
ATOM      4  C   UNL     1      34.485 -14.596 -21.254  0.00  0.00    -0.055 C 
ATOM      5  C   UNL     1      32.881 -12.867 -22.913  0.00  0.00    +0.068 C 
ATOM      6  C   UNL     1      33.352 -13.766 -20.646  0.00  0.00    +0.068 C 
ATOM      7  H   UNL     1      33.319 -15.478 -22.677  0.00  0.00    -0.079 HD
ENDROOT
BRANCH   2  11
ATOM      8  O   UNL     1      32.493 -10.075 -22.896  0.00  0.00    -0.406 OA
ATOM      9  O   UNL     1      32.124  -8.169 -24.156  0.00  0.00    -0.223 OA
ATOM     10  N   UNL     1      31.413  -8.285 -21.939  0.00  0.00    -0.287 N 
ATOM     11  C   UNL     1      32.408 -11.509 -20.893  0.00  0.00    +0.084 C 
ATOM     12  C   UNL     1      32.148 -10.329 -21.578  0.00  0.00    +0.179 A 
ATOM     13  C   UNL     1      31.966 -11.551 -19.555  0.00  0.00    +0.018 C 
ATOM     14  C   UNL     1      31.499  -9.267 -20.986  0.00  0.00    +0.098 A 
ATOM     15  C   UNL     1      31.304 -10.458 -18.959  0.00  0.00    +0.003 C 
ATOM     16  C   UNL     1      31.061  -9.289 -19.682  0.00  0.00    +0.020 C 
ATOM     17  C   UNL     1      32.011  -8.767 -23.092  0.00  0.00    +0.419 A 
ATOM     18  H   UNL     1      31.002  -7.399 -21.824  0.00  0.00    +0.172 HD
ENDBRANCH   2  11
BRANCH   1  19
ATOM     19  C   UNL     1      35.253 -15.786 -23.201  0.00  0.00    -0.050 C 
BRANCH  19  20
ATOM     20  C   UNL     1      34.836 -17.231 -23.247  0.00  0.00    -0.043 C 
ATOM     21  C   UNL     1      35.019 -18.031 -22.127  0.00  0.00    -0.006 C 
ATOM     22  C   UNL     1      34.272 -17.744 -24.406  0.00  0.00    -0.006 C 
ATOM     23  C   UNL     1      34.631 -19.371 -22.169  0.00  0.00    -0.000 C 
ATOM     24  C   UNL     1      33.884 -19.083 -24.448  0.00  0.00    -0.000 C 
ATOM     25  C   UNL     1      34.064 -19.896 -23.330  0.00  0.00    -0.000 C 
BRANCH  23  26
ATOM     26  C   UNL     1      34.816 -20.214 -21.008  0.00  0.00    -0.000 C 
ATOM     27  C   UNL     1      33.710 -20.769 -20.365  0.00  0.00    -0.000 C 
ATOM     28  C   UNL     1      36.102 -20.474 -20.532  0.00  0.00    -0.000 C 
ATOM     29  C   UNL     1      33.888 -21.583 -19.247  0.00  0.00    -0.000 C 
ATOM     30  C   UNL     1      36.280 -21.288 -19.413  0.00  0.00    -0.000 C 
ATOM     31  C   UNL     1      35.173 -21.842 -18.771  0.00  0.00    +0.000 C 
ENDBRANCH  23  26
ENDBRANCH  19  20
ENDBRANCH   1  19
TORSDOF 4
ENDMDL
MODEL 3
REMARK VINA RESULT:     -12.4      6.867     12.055
REMARK  Name = 208951
REMARK  4 active torsions:
REMARK  status: ('A' for Active; 'I' for Inactive)
REMARK    1  A    between atoms: N_1  and  C_19
REMARK    2  A    between atoms: N_2  and  C_11
REMARK    3  A    between atoms: C_19  and  C_20
REMARK    4  A    between atoms: C_23  and  C_26
REMARK                            x       y       z     vdW  Elec       q    Type
REMARK                         _______ _______ _______ _____ _____    ______ ____
ROOT
ATOM      1  N   UNL     1      34.645 -16.414 -23.647  0.00  0.00    +0.392 N 
ATOM      2  N   UNL     1      33.324 -13.981 -22.939  0.00  0.00    -0.309 N 
ATOM      3  C   UNL     1      34.365 -16.102 -22.240  0.00  0.00    -0.055 C 
ATOM      4  C   UNL     1      33.580 -15.872 -24.500  0.00  0.00    -0.055 C 
ATOM      5  C   UNL     1      34.288 -14.590 -22.016  0.00  0.00    +0.068 C 
ATOM      6  C   UNL     1      33.477 -14.352 -24.352  0.00  0.00    +0.068 C 
ATOM      7  H   UNL     1      35.530 -15.980 -23.911  0.00  0.00    -0.079 HD
ENDROOT
BRANCH   2  11
ATOM      8  O   UNL     1      34.620 -11.432 -23.643  0.00  0.00    -0.406 OA
ATOM      9  O   UNL     1      35.775  -9.529 -24.271  0.00  0.00    -0.223 OA
ATOM     10  N   UNL     1      33.729  -9.367 -23.166  0.00  0.00    -0.287 N 
ATOM     11  C   UNL     1      32.776 -12.728 -22.645  0.00  0.00    +0.084 C 
ATOM     12  C   UNL     1      33.404 -11.537 -22.986  0.00  0.00    +0.179 A 
ATOM     13  C   UNL     1      31.539 -12.600 -21.979  0.00  0.00    +0.018 C 
ATOM     14  C   UNL     1      32.853 -10.309 -22.692  0.00  0.00    +0.098 A 
ATOM     15  C   UNL     1      30.986 -11.338 -21.682  0.00  0.00    +0.003 C 
ATOM     16  C   UNL     1      31.649 -10.163 -22.043  0.00  0.00    +0.020 C 
ATOM     17  C   UNL     1      34.796 -10.039 -23.741  0.00  0.00    +0.419 A 
ATOM     18  H   UNL     1      33.620  -8.391 -23.110  0.00  0.00    +0.172 HD
ENDBRANCH   2  11
BRANCH   1  19
ATOM     19  C   UNL     1      34.770 -17.858 -23.837  0.00  0.00    -0.050 C 
BRANCH  19  20
ATOM     20  C   UNL     1      35.463 -18.501 -22.666  0.00  0.00    -0.043 C 
ATOM     21  C   UNL     1      34.756 -19.369 -21.845  0.00  0.00    -0.006 C 
ATOM     22  C   UNL     1      36.800 -18.218 -22.423  0.00  0.00    -0.006 C 
ATOM     23  C   UNL     1      35.399 -19.966 -20.761  0.00  0.00    -0.000 C 
ATOM     24  C   UNL     1      37.443 -18.814 -21.339  0.00  0.00    -0.000 C 
ATOM     25  C   UNL     1      36.743 -19.688 -20.508  0.00  0.00    -0.000 C 
BRANCH  23  26
ATOM     26  C   UNL     1      34.674 -20.874 -19.899  0.00  0.00    -0.000 C 
ATOM     27  C   UNL     1      35.368 -21.774 -19.091  0.00  0.00    -0.000 C 
ATOM     28  C   UNL     1      33.279 -20.849 -19.875  0.00  0.00    -0.000 C 
ATOM     29  C   UNL     1      34.669 -22.648 -18.259  0.00  0.00    -0.000 C 
ATOM     30  C   UNL     1      32.580 -21.724 -19.045  0.00  0.00    -0.000 C 
ATOM     31  C   UNL     1      33.275 -22.623 -18.236  0.00  0.00    +0.000 C 
ENDBRANCH  23  26
ENDBRANCH  19  20
ENDBRANCH   1  19
TORSDOF 4
ENDMDL
MODEL 4
REMARK VINA RESULT:     -12.4      1.957      4.278
REMARK  Name = 208951
REMARK  4 active torsions:
REMARK  status: ('A' for Active; 'I' for Inactive)
REMARK    1  A    between atoms: N_1  and  C_19
REMARK    2  A    between atoms: N_2  and  C_11
REMARK    3  A    between atoms: C_19  and  C_20
REMARK    4  A    between atoms: C_23  and  C_26
REMARK                            x       y       z     vdW  Elec       q    Type
REMARK                         _______ _______ _______ _____ _____    ______ ____
ROOT
ATOM      1  N   UNL     1      35.712 -20.509 -20.657  0.00  0.00    +0.392 N 
ATOM      2  N   UNL     1      34.489 -21.858 -18.456  0.00  0.00    -0.309 N 
ATOM      3  C   UNL     1      34.341 -20.179 -20.252  0.00  0.00    -0.055 C 
ATOM      4  C   UNL     1      36.506 -20.877 -19.479  0.00  0.00    -0.055 C 
ATOM      5  C   UNL     1      33.666 -21.370 -19.568  0.00  0.00    +0.068 C 
ATOM      6  C   UNL     1      35.904 -22.093 -18.769  0.00  0.00    +0.068 C 
ATOM      7  H   UNL     1      35.684 -21.304 -21.297  0.00  0.00    -0.079 HD
ENDROOT
BRANCH   2  11
ATOM      8  O   UNL     1      36.023 -23.143 -16.296  0.00  0.00    -0.406 OA
ATOM      9  O   UNL     1      37.382 -24.079 -14.675  0.00  0.00    -0.223 OA
ATOM     10  N   UNL     1      35.075 -24.406 -14.626  0.00  0.00    -0.287 N 
ATOM     11  C   UNL     1      33.903 -22.627 -17.444  0.00  0.00    +0.084 C 
ATOM     12  C   UNL     1      34.646 -23.224 -16.433  0.00  0.00    +0.179 A 
ATOM     13  C   UNL     1      32.511 -22.840 -17.389  0.00  0.00    +0.018 C 
ATOM     14  C   UNL     1      34.059 -23.977 -15.441  0.00  0.00    +0.098 A 
ATOM     15  C   UNL     1      31.921 -23.614 -16.369  0.00  0.00    +0.003 C 
ATOM     16  C   UNL     1      32.702 -24.197 -15.371  0.00  0.00    +0.020 C 
ATOM     17  C   UNL     1      36.261 -23.905 -15.137  0.00  0.00    +0.419 A 
ATOM     18  H   UNL     1      34.978 -24.967 -13.824  0.00  0.00    +0.172 HD
ENDBRANCH   2  11
BRANCH   1  19
ATOM     19  C   UNL     1      36.326 -19.382 -21.357  0.00  0.00    -0.050 C 
BRANCH  19  20
ATOM     20  C   UNL     1      35.453 -18.905 -22.486  0.00  0.00    -0.043 C 
ATOM     21  C   UNL     1      35.215 -17.545 -22.640  0.00  0.00    -0.006 C 
ATOM     22  C   UNL     1      34.898 -19.829 -23.360  0.00  0.00    -0.006 C 
ATOM     23  C   UNL     1      34.407 -17.103 -23.687  0.00  0.00    -0.000 C 
ATOM     24  C   UNL     1      34.090 -19.388 -24.407  0.00  0.00    -0.000 C 
ATOM     25  C   UNL     1      33.844 -18.025 -24.570  0.00  0.00    -0.000 C 
BRANCH  23  26
ATOM     26  C   UNL     1      34.153 -15.689 -23.859  0.00  0.00    -0.000 C 
ATOM     27  C   UNL     1      33.610 -15.217 -25.054  0.00  0.00    -0.000 C 
ATOM     28  C   UNL     1      34.450 -14.797 -22.828  0.00  0.00    -0.000 C 
ATOM     29  C   UNL     1      33.365 -13.854 -25.219  0.00  0.00    -0.000 C 
ATOM     30  C   UNL     1      34.205 -13.434 -22.993  0.00  0.00    -0.000 C 
ATOM     31  C   UNL     1      33.662 -12.963 -24.189  0.00  0.00    +0.000 C 
ENDBRANCH  23  26
ENDBRANCH  19  20
ENDBRANCH   1  19
TORSDOF 4
ENDMDL
MODEL 5
REMARK VINA RESULT:     -12.1      9.632     14.212
REMARK  Name = 208951
REMARK  4 active torsions:
REMARK  status: ('A' for Active; 'I' for Inactive)
REMARK    1  A    between atoms: N_1  and  C_19
REMARK    2  A    between atoms: N_2  and  C_11
REMARK    3  A    between atoms: C_19  and  C_20
REMARK    4  A    between atoms: C_23  and  C_26
REMARK                            x       y       z     vdW  Elec       q    Type
REMARK                         _______ _______ _______ _____ _____    ______ ____
ROOT
ATOM      1  N   UNL     1      31.653  -9.797 -22.327  0.00  0.00    +0.392 N 
ATOM      2  N   UNL     1      32.820 -12.394 -22.098  0.00  0.00    -0.309 N 
ATOM      3  C   UNL     1      32.430 -10.363 -23.436  0.00  0.00    -0.055 C 
ATOM      4  C   UNL     1      30.946 -10.868 -21.614  0.00  0.00    -0.055 C 
ATOM      5  C   UNL     1      33.464 -11.370 -22.927  0.00  0.00    +0.068 C 
ATOM      6  C   UNL     1      31.931 -11.891 -21.043  0.00  0.00    +0.068 C 
ATOM      7  H   UNL     1      32.293  -9.337 -21.678  0.00  0.00    -0.079 HD
ENDROOT
BRANCH   2  11
ATOM      8  O   UNL     1      33.279 -14.374 -24.229  0.00  0.00    -0.406 OA
ATOM      9  O   UNL     1      33.557 -15.811 -26.021  0.00  0.00    -0.223 OA
ATOM     10  N   UNL     1      34.329 -16.392 -23.900  0.00  0.00    -0.287 N 
ATOM     11  C   UNL     1      33.460 -13.621 -21.889  0.00  0.00    +0.084 C 
ATOM     12  C   UNL     1      33.666 -14.541 -22.909  0.00  0.00    +0.179 A 
ATOM     13  C   UNL     1      33.937 -13.998 -20.617  0.00  0.00    +0.018 C 
ATOM     14  C   UNL     1      34.298 -15.746 -22.691  0.00  0.00    +0.098 A 
ATOM     15  C   UNL     1      34.582 -15.234 -20.406  0.00  0.00    +0.003 C 
ATOM     16  C   UNL     1      34.771 -16.132 -21.458  0.00  0.00    +0.020 C 
ATOM     17  C   UNL     1      33.716 -15.569 -24.830  0.00  0.00    +0.419 A 
ATOM     18  H   UNL     1      34.717 -17.279 -24.074  0.00  0.00    +0.172 HD
ENDBRANCH   2  11
BRANCH   1  19
ATOM     19  C   UNL     1      30.707  -8.798 -22.820  0.00  0.00    -0.050 C 
BRANCH  19  20
ATOM     20  C   UNL     1      31.284  -7.411 -22.727  0.00  0.00    -0.043 C 
ATOM     21  C   UNL     1      32.166  -6.970 -23.705  0.00  0.00    -0.006 C 
ATOM     22  C   UNL     1      30.927  -6.591 -21.665  0.00  0.00    -0.006 C 
ATOM     23  C   UNL     1      32.700  -5.684 -23.618  0.00  0.00    -0.000 C 
ATOM     24  C   UNL     1      31.461  -5.307 -21.579  0.00  0.00    -0.000 C 
ATOM     25  C   UNL     1      32.348  -4.853 -22.554  0.00  0.00    -0.000 C 
BRANCH  23  26
ATOM     26  C   UNL     1      33.618  -5.212 -24.632  0.00  0.00    -0.000 C 
ATOM     27  C   UNL     1      34.814  -5.891 -24.860  0.00  0.00    -0.000 C 
ATOM     28  C   UNL     1      33.306  -4.077 -25.382  0.00  0.00    -0.000 C 
ATOM     29  C   UNL     1      35.699  -5.436 -25.838  0.00  0.00    -0.000 C 
ATOM     30  C   UNL     1      34.192  -3.622 -26.358  0.00  0.00    -0.000 C 
ATOM     31  C   UNL     1      35.388  -4.302 -26.587  0.00  0.00    +0.000 C 
ENDBRANCH  23  26
ENDBRANCH  19  20
ENDBRANCH   1  19
TORSDOF 4
ENDMDL
MODEL 6
REMARK VINA RESULT:     -11.9      6.748     12.254
REMARK  Name = 208951
REMARK  4 active torsions:
REMARK  status: ('A' for Active; 'I' for Inactive)
REMARK    1  A    between atoms: N_1  and  C_19
REMARK    2  A    between atoms: N_2  and  C_11
REMARK    3  A    between atoms: C_19  and  C_20
REMARK    4  A    between atoms: C_23  and  C_26
REMARK                            x       y       z     vdW  Elec       q    Type
REMARK                         _______ _______ _______ _____ _____    ______ ____
ROOT
ATOM      1  N   UNL     1      34.631 -16.265 -23.603  0.00  0.00    +0.392 N 
ATOM      2  N   UNL     1      33.997 -13.490 -23.368  0.00  0.00    -0.309 N 
ATOM      3  C   UNL     1      34.315 -15.683 -22.293  0.00  0.00    -0.055 C 
ATOM      4  C   UNL     1      33.854 -15.591 -24.650  0.00  0.00    -0.055 C 
ATOM      5  C   UNL     1      34.651 -14.190 -22.259  0.00  0.00    +0.068 C 
ATOM      6  C   UNL     1      34.176 -14.095 -24.695  0.00  0.00    +0.068 C 
ATOM      7  H   UNL     1      35.624 -16.131 -23.792  0.00  0.00    -0.079 HD
ENDROOT
BRANCH   2  11
ATOM      8  O   UNL     1      31.753 -12.232 -21.934  0.00  0.00    -0.406 OA
ATOM      9  O   UNL     1      29.934 -11.415 -20.762  0.00  0.00    -0.223 OA
ATOM     10  N   UNL     1      31.423  -9.961 -21.810  0.00  0.00    -0.287 N 
ATOM     11  C   UNL     1      33.803 -12.105 -23.298  0.00  0.00    +0.084 C 
ATOM     12  C   UNL     1      32.737 -11.533 -22.616  0.00  0.00    +0.179 A 
ATOM     13  C   UNL     1      34.688 -11.203 -23.922  0.00  0.00    +0.018 C 
ATOM     14  C   UNL     1      32.557 -10.168 -22.553  0.00  0.00    +0.098 A 
ATOM     15  C   UNL     1      34.493  -9.808 -23.851  0.00  0.00    +0.003 C 
ATOM     16  C   UNL     1      33.409  -9.271 -23.154  0.00  0.00    +0.020 C 
ATOM     17  C   UNL     1      30.935 -11.202 -21.435  0.00  0.00    +0.419 A 
ATOM     18  H   UNL     1      31.029  -9.088 -21.585  0.00  0.00    +0.172 HD
ENDBRANCH   2  11
BRANCH   1  19
ATOM     19  C   UNL     1      34.356 -17.701 -23.605  0.00  0.00    -0.050 C 
BRANCH  19  20
ATOM     20  C   UNL     1      35.166 -18.410 -22.555  0.00  0.00    -0.043 C 
ATOM     21  C   UNL     1      34.544 -19.317 -21.706  0.00  0.00    -0.006 C 
ATOM     22  C   UNL     1      36.526 -18.150 -22.447  0.00  0.00    -0.006 C 
ATOM     23  C   UNL     1      35.297 -19.975 -20.733  0.00  0.00    -0.000 C 
ATOM     24  C   UNL     1      37.277 -18.807 -21.474  0.00  0.00    -0.000 C 
ATOM     25  C   UNL     1      36.663 -19.719 -20.617  0.00  0.00    -0.000 C 
BRANCH  23  26
ATOM     26  C   UNL     1      34.660 -20.923 -19.844  0.00  0.00    -0.000 C 
ATOM     27  C   UNL     1      33.269 -20.971 -19.757  0.00  0.00    -0.000 C 
ATOM     28  C   UNL     1      35.438 -21.789 -19.075  0.00  0.00    -0.000 C 
ATOM     29  C   UNL     1      32.655 -21.886 -18.900  0.00  0.00    -0.000 C 
ATOM     30  C   UNL     1      34.824 -22.702 -18.219  0.00  0.00    -0.000 C 
ATOM     31  C   UNL     1      33.433 -22.751 -18.132  0.00  0.00    +0.000 C 
ENDBRANCH  23  26
ENDBRANCH  19  20
ENDBRANCH   1  19
TORSDOF 4
ENDMDL
MODEL 7
REMARK VINA RESULT:     -11.8      5.727      9.764
REMARK  Name = 208951
REMARK  4 active torsions:
REMARK  status: ('A' for Active; 'I' for Inactive)
REMARK    1  A    between atoms: N_1  and  C_19
REMARK    2  A    between atoms: N_2  and  C_11
REMARK    3  A    between atoms: C_19  and  C_20
REMARK    4  A    between atoms: C_23  and  C_26
REMARK                            x       y       z     vdW  Elec       q    Type
REMARK                         _______ _______ _______ _____ _____    ______ ____
ROOT
ATOM      1  N   UNL     1      33.909 -15.199 -23.469  0.00  0.00    +0.392 N 
ATOM      2  N   UNL     1      35.240 -17.324 -22.101  0.00  0.00    -0.309 N 
ATOM      3  C   UNL     1      34.617 -14.943 -22.210  0.00  0.00    -0.055 C 
ATOM      4  C   UNL     1      34.599 -16.251 -24.225  0.00  0.00    -0.055 C 
ATOM      5  C   UNL     1      34.673 -16.203 -21.343  0.00  0.00    +0.068 C 
ATOM      6  C   UNL     1      34.652 -17.556 -23.427  0.00  0.00    +0.068 C 
ATOM      7  H   UNL     1      32.962 -15.513 -23.257  0.00  0.00    -0.079 HD
ENDROOT
BRANCH   2  11
ATOM      8  O   UNL     1      33.604 -19.475 -20.930  0.00  0.00    -0.406 OA
ATOM      9  O   UNL     1      32.168 -21.074 -20.074  0.00  0.00    -0.223 OA
ATOM     10  N   UNL     1      34.475 -21.283 -19.811  0.00  0.00    -0.287 N 
ATOM     11  C   UNL     1      35.778 -18.421 -21.419  0.00  0.00    +0.084 C 
ATOM     12  C   UNL     1      34.987 -19.426 -20.875  0.00  0.00    +0.179 A 
ATOM     13  C   UNL     1      37.169 -18.574 -21.246  0.00  0.00    +0.018 C 
ATOM     14  C   UNL     1      35.529 -20.503 -20.208  0.00  0.00    +0.098 A 
ATOM     15  C   UNL     1      37.712 -19.680 -20.561  0.00  0.00    +0.003 C 
ATOM     16  C   UNL     1      36.883 -20.669 -20.028  0.00  0.00    +0.020 C 
ATOM     17  C   UNL     1      33.312 -20.668 -20.244  0.00  0.00    +0.419 A 
ATOM     18  H   UNL     1      34.533 -22.128 -19.310  0.00  0.00    +0.172 HD
ENDBRANCH   2  11
BRANCH   1  19
ATOM     19  C   UNL     1      33.816 -13.974 -24.263  0.00  0.00    -0.050 C 
BRANCH  19  20
ATOM     20  C   UNL     1      33.186 -12.861 -23.471  0.00  0.00    -0.043 C 
ATOM     21  C   UNL     1      33.654 -11.563 -23.623  0.00  0.00    -0.006 C 
ATOM     22  C   UNL     1      32.144 -13.147 -22.598  0.00  0.00    -0.006 C 
ATOM     23  C   UNL     1      33.068 -10.531 -22.889  0.00  0.00    -0.000 C 
ATOM     24  C   UNL     1      31.559 -12.116 -21.865  0.00  0.00    -0.000 C 
ATOM     25  C   UNL     1      32.021 -10.808 -22.009  0.00  0.00    -0.000 C 
BRANCH  23  26
ATOM     26  C   UNL     1      33.545  -9.173 -23.040  0.00  0.00    -0.000 C 
ATOM     27  C   UNL     1      34.781  -8.931 -23.640  0.00  0.00    -0.000 C 
ATOM     28  C   UNL     1      32.769  -8.106 -22.586  0.00  0.00    -0.000 C 
ATOM     29  C   UNL     1      35.241  -7.623 -23.786  0.00  0.00    -0.000 C 
ATOM     30  C   UNL     1      33.230  -6.798 -22.732  0.00  0.00    -0.000 C 
ATOM     31  C   UNL     1      34.465  -6.556 -23.333  0.00  0.00    +0.000 C 
ENDBRANCH  23  26
ENDBRANCH  19  20
ENDBRANCH   1  19
TORSDOF 4
ENDMDL
MODEL 8
REMARK VINA RESULT:     -11.8      4.297     10.125
REMARK  Name = 208951
REMARK  4 active torsions:
REMARK  status: ('A' for Active; 'I' for Inactive)
REMARK    1  A    between atoms: N_1  and  C_19
REMARK    2  A    between atoms: N_2  and  C_11
REMARK    3  A    between atoms: C_19  and  C_20
REMARK    4  A    between atoms: C_23  and  C_26
REMARK                            x       y       z     vdW  Elec       q    Type
REMARK                         _______ _______ _______ _____ _____    ______ ____
ROOT
ATOM      1  N   UNL     1      35.964 -20.810 -19.677  0.00  0.00    +0.392 N 
ATOM      2  N   UNL     1      35.282 -18.859 -21.650  0.00  0.00    -0.309 N 
ATOM      3  C   UNL     1      34.780 -20.992 -20.525  0.00  0.00    -0.055 C 
ATOM      4  C   UNL     1      37.016 -20.117 -20.431  0.00  0.00    -0.055 C 
ATOM      5  C   UNL     1      34.229 -19.646 -21.000  0.00  0.00    +0.068 C 
ATOM      6  C   UNL     1      36.540 -18.741 -20.902  0.00  0.00    +0.068 C 
ATOM      7  H   UNL     1      35.707 -20.239 -18.872  0.00  0.00    -0.079 HD
ENDROOT
BRANCH   2  11
ATOM      8  O   UNL     1      34.907 -16.069 -20.787  0.00  0.00    -0.406 OA
ATOM      9  O   UNL     1      34.654 -13.932 -19.936  0.00  0.00    -0.223 OA
ATOM     10  N   UNL     1      34.340 -14.353 -22.207  0.00  0.00    -0.287 N 
ATOM     11  C   UNL     1      34.935 -17.820 -22.521  0.00  0.00    +0.084 C 
ATOM     12  C   UNL     1      34.764 -16.510 -22.093  0.00  0.00    +0.179 A 
ATOM     13  C   UNL     1      34.740 -18.045 -23.899  0.00  0.00    +0.018 C 
ATOM     14  C   UNL     1      34.424 -15.495 -22.960  0.00  0.00    +0.098 A 
ATOM     15  C   UNL     1      34.392 -16.999 -24.778  0.00  0.00    +0.003 C 
ATOM     16  C   UNL     1      34.229 -15.694 -24.308  0.00  0.00    +0.020 C 
ATOM     17  C   UNL     1      34.631 -14.693 -20.896  0.00  0.00    +0.419 A 
ATOM     18  H   UNL     1      34.115 -13.454 -22.538  0.00  0.00    +0.172 HD
ENDBRANCH   2  11
BRANCH   1  19
ATOM     19  C   UNL     1      36.448 -22.099 -19.187  0.00  0.00    -0.050 C 
BRANCH  19  20
ATOM     20  C   UNL     1      36.126 -22.280 -17.729  0.00  0.00    -0.043 C 
ATOM     21  C   UNL     1      34.862 -22.720 -17.357  0.00  0.00    -0.006 C 
ATOM     22  C   UNL     1      37.096 -22.007 -16.774  0.00  0.00    -0.006 C 
ATOM     23  C   UNL     1      34.564 -22.888 -16.004  0.00  0.00    -0.000 C 
ATOM     24  C   UNL     1      36.798 -22.176 -15.423  0.00  0.00    -0.000 C 
ATOM     25  C   UNL     1      35.532 -22.616 -15.038  0.00  0.00    -0.000 C 
BRANCH  23  26
ATOM     26  C   UNL     1      33.251 -23.347 -15.604  0.00  0.00    -0.000 C 
ATOM     27  C   UNL     1      32.170 -23.213 -16.474  0.00  0.00    -0.000 C 
ATOM     28  C   UNL     1      33.067 -23.924 -14.346  0.00  0.00    -0.000 C 
ATOM     29  C   UNL     1      30.905 -23.656 -16.089  0.00  0.00    -0.000 C 
ATOM     30  C   UNL     1      31.802 -24.366 -13.961  0.00  0.00    -0.000 C 
ATOM     31  C   UNL     1      30.721 -24.232 -14.833  0.00  0.00    +0.000 C 
ENDBRANCH  23  26
ENDBRANCH  19  20
ENDBRANCH   1  19
TORSDOF 4
ENDMDL
MODEL 9
REMARK VINA RESULT:     -11.7      6.780     12.260
REMARK  Name = 208951
REMARK  4 active torsions:
REMARK  status: ('A' for Active; 'I' for Inactive)
REMARK    1  A    between atoms: N_1  and  C_19
REMARK    2  A    between atoms: N_2  and  C_11
REMARK    3  A    between atoms: C_19  and  C_20
REMARK    4  A    between atoms: C_23  and  C_26
REMARK                            x       y       z     vdW  Elec       q    Type
REMARK                         _______ _______ _______ _____ _____    ______ ____
ROOT
ATOM      1  N   UNL     1      34.440 -15.172 -22.233  0.00  0.00    +0.392 N 
ATOM      2  N   UNL     1      33.258 -12.573 -22.152  0.00  0.00    -0.309 N 
ATOM      3  C   UNL     1      34.605 -14.245 -23.359  0.00  0.00    -0.055 C 
ATOM      4  C   UNL     1      34.383 -14.422 -20.973  0.00  0.00    -0.055 C 
ATOM      5  C   UNL     1      33.438 -13.259 -23.436  0.00  0.00    +0.068 C 
ATOM      6  C   UNL     1      33.207 -13.442 -20.969  0.00  0.00    +0.068 C 
ATOM      7  H   UNL     1      33.565 -15.683 -22.352  0.00  0.00    -0.079 HD
ENDROOT
BRANCH   2  11
ATOM      8  O   UNL     1      32.262 -11.365 -19.658  0.00  0.00    -0.406 OA
ATOM      9  O   UNL     1      31.551 -10.562 -17.608  0.00  0.00    -0.223 OA
ATOM     10  N   UNL     1      31.126  -9.369 -19.565  0.00  0.00    -0.287 N 
ATOM     11  C   UNL     1      32.566 -11.357 -22.104  0.00  0.00    +0.084 C 
ATOM     12  C   UNL     1      32.105 -10.805 -20.916  0.00  0.00    +0.179 A 
ATOM     13  C   UNL     1      32.296 -10.614 -23.271  0.00  0.00    +0.018 C 
ATOM     14  C   UNL     1      31.426  -9.607 -20.881  0.00  0.00    +0.098 A 
ATOM     15  C   UNL     1      31.600  -9.389 -23.224  0.00  0.00    +0.003 C 
ATOM     16  C   UNL     1      31.153  -8.867 -22.008  0.00  0.00    +0.020 C 
ATOM     17  C   UNL     1      31.628 -10.426 -18.823  0.00  0.00    +0.419 A 
ATOM     18  H   UNL     1      30.642  -8.589 -19.211  0.00  0.00    +0.172 HD
ENDBRANCH   2  11
BRANCH   1  19
ATOM     19  C   UNL     1      35.533 -16.143 -22.203  0.00  0.00    -0.050 C 
BRANCH  19  20
ATOM     20  C   UNL     1      35.022 -17.542 -22.418  0.00  0.00    -0.043 C 
ATOM     21  C   UNL     1      34.989 -18.429 -21.350  0.00  0.00    -0.006 C 
ATOM     22  C   UNL     1      34.589 -17.926 -23.680  0.00  0.00    -0.006 C 
ATOM     23  C   UNL     1      34.514 -19.726 -21.550  0.00  0.00    -0.000 C 
ATOM     24  C   UNL     1      34.115 -19.222 -23.879  0.00  0.00    -0.000 C 
ATOM     25  C   UNL     1      34.078 -20.122 -22.815  0.00  0.00    -0.000 C 
BRANCH  23  26
ATOM     26  C   UNL     1      34.473 -20.660 -20.446  0.00  0.00    -0.000 C 
ATOM     27  C   UNL     1      33.247 -21.076 -19.929  0.00  0.00    -0.000 C 
ATOM     28  C   UNL     1      35.662 -21.145 -19.897  0.00  0.00    -0.000 C 
ATOM     29  C   UNL     1      33.207 -21.977 -18.865  0.00  0.00    -0.000 C 
ATOM     30  C   UNL     1      35.622 -22.044 -18.833  0.00  0.00    -0.000 C 
ATOM     31  C   UNL     1      34.395 -22.461 -18.317  0.00  0.00    +0.000 C 
ENDBRANCH  23  26
ENDBRANCH  19  20
ENDBRANCH   1  19
TORSDOF 4
ENDMDL
