MODEL 1
REMARK VINA RESULT:     -11.6      0.000      0.000
REMARK  Name = 25052630
REMARK  6 active torsions:
REMARK  status: ('A' for Active; 'I' for Inactive)
REMARK    1  A    between atoms: N_2  and  C_11
REMARK    2  A    between atoms: C_4  and  C_20
REMARK    3  A    between atoms: C_20  and  C_21
REMARK    4  A    between atoms: C_21  and  N_22
REMARK    5  A    between atoms: N_22  and  C_25
REMARK    6  A    between atoms: C_25  and  C_26
REMARK                            x       y       z     vdW  Elec       q    Type
REMARK                         _______ _______ _______ _____ _____    ______ ____
ROOT
ATOM      1  S   UNL     1      37.233 -27.068 -13.520  0.00  0.00    -0.018 S 
ATOM      2  N   UNL     1      36.393 -24.679 -14.714  0.00  0.00    -0.270 N 
ATOM      3  N   UNL     1      38.609 -25.067 -14.761  0.00  0.00    -0.294 N 
ATOM      4  C   UNL     1      37.040 -23.627 -15.358  0.00  0.00    +0.043 C 
ATOM      5  C   UNL     1      37.386 -25.623 -14.319  0.00  0.00    +0.142 C 
ATOM      6  C   UNL     1      38.359 -23.871 -15.379  0.00  0.00    +0.074 C 
ATOM      7  H   UNL     1      39.497 -25.475 -14.642  0.00  0.00    +0.154 HD
ENDROOT
BRANCH   2  11
ATOM      8  F   UNL     1      30.579 -24.194 -12.276  0.00  0.00    -0.201 F 
ATOM      9  F   UNL     1      29.605 -22.809 -16.691  0.00  0.00    -0.204 F 
ATOM     10  O   UNL     1      33.183 -24.455 -12.854  0.00  0.00    -0.472 OA
ATOM     11  C   UNL     1      34.969 -24.751 -14.509  0.00  0.00    +0.127 C 
ATOM     12  C   UNL     1      34.219 -23.921 -15.548  0.00  0.00    +0.054 C 
ATOM     13  C   UNL     1      34.578 -24.265 -13.118  0.00  0.00    +0.226 C 
ATOM     14  C   UNL     1      32.773 -23.778 -15.165  0.00  0.00    +0.018 C 
ATOM     15  C   UNL     1      32.346 -24.038 -13.856  0.00  0.00    +0.162 C 
ATOM     16  C   UNL     1      31.838 -23.353 -16.118  0.00  0.00    +0.029 C 
ATOM     17  C   UNL     1      30.996 -23.913 -13.518  0.00  0.00    +0.176 C 
ATOM     18  C   UNL     1      30.492 -23.216 -15.774  0.00  0.00    +0.142 C 
ATOM     19  C   UNL     1      30.071 -23.500 -14.477  0.00  0.00    +0.062 C 
ENDBRANCH   2  11
BRANCH   4  20
ATOM     20  C   UNL     1      36.318 -22.454 -15.909  0.00  0.00    +0.019 C 
BRANCH  20  21
ATOM     21  C   UNL     1      37.285 -21.346 -16.328  0.00  0.00    -0.075 C 
BRANCH  21  22
ATOM     22  N   UNL     1      37.066 -20.975 -17.721  0.00  0.00    +0.387 N 
ATOM     23  H   UNL     1      37.968 -20.810 -18.168  0.00  0.00    -0.084 HD
ATOM     24  H   UNL     1      36.495 -20.131 -17.748  0.00  0.00    -0.084 HD
BRANCH  22  25
ATOM     25  C   UNL     1      36.367 -22.034 -18.436  0.00  0.00    -0.054 C 
BRANCH  25  26
ATOM     26  C   UNL     1      35.145 -21.517 -19.149  0.00  0.00    -0.044 C 
ATOM     27  C   UNL     1      35.281 -20.583 -20.177  0.00  0.00    -0.006 C 
ATOM     28  C   UNL     1      33.880 -21.973 -18.783  0.00  0.00    -0.006 C 
ATOM     29  C   UNL     1      34.150 -20.105 -20.838  0.00  0.00    -0.000 C 
ATOM     30  C   UNL     1      32.748 -21.494 -19.445  0.00  0.00    -0.000 C 
ATOM     31  C   UNL     1      32.884 -20.560 -20.472  0.00  0.00    -0.000 C 
ENDBRANCH  25  26
ENDBRANCH  22  25
ENDBRANCH  21  22
ENDBRANCH  20  21
ENDBRANCH   4  20
TORSDOF 6
ENDMDL
MODEL 2
REMARK VINA RESULT:     -10.3      8.740     12.200
REMARK  Name = 25052630
REMARK  6 active torsions:
REMARK  status: ('A' for Active; 'I' for Inactive)
REMARK    1  A    between atoms: N_2  and  C_11
REMARK    2  A    between atoms: C_4  and  C_20
REMARK    3  A    between atoms: C_20  and  C_21
REMARK    4  A    between atoms: C_21  and  N_22
REMARK    5  A    between atoms: N_22  and  C_25
REMARK    6  A    between atoms: C_25  and  C_26
REMARK                            x       y       z     vdW  Elec       q    Type
REMARK                         _______ _______ _______ _____ _____    ______ ____
ROOT
ATOM      1  S   UNL     1      33.076 -13.853 -26.144  0.00  0.00    -0.018 S 
ATOM      2  N   UNL     1      34.002 -14.468 -23.575  0.00  0.00    -0.270 N 
ATOM      3  N   UNL     1      34.077 -16.150 -25.068  0.00  0.00    -0.294 N 
ATOM      4  C   UNL     1      34.521 -15.611 -22.968  0.00  0.00    +0.043 C 
ATOM      5  C   UNL     1      33.708 -14.792 -24.931  0.00  0.00    +0.142 C 
ATOM      6  C   UNL     1      34.559 -16.605 -23.869  0.00  0.00    +0.074 C 
ATOM      7  H   UNL     1      33.999 -16.684 -25.891  0.00  0.00    +0.154 HD
ENDROOT
BRANCH   2  11
ATOM      8  F   UNL     1      32.877  -8.379 -22.293  0.00  0.00    -0.201 F 
ATOM      9  F   UNL     1      30.336 -10.311 -18.804  0.00  0.00    -0.204 F 
ATOM     10  O   UNL     1      33.541 -10.795 -23.246  0.00  0.00    -0.472 OA
ATOM     11  C   UNL     1      33.817 -13.208 -22.902  0.00  0.00    +0.127 C 
ATOM     12  C   UNL     1      32.630 -13.263 -21.943  0.00  0.00    +0.054 C 
ATOM     13  C   UNL     1      33.594 -12.071 -23.894  0.00  0.00    +0.226 C 
ATOM     14  C   UNL     1      32.278 -11.884 -21.461  0.00  0.00    +0.018 C 
ATOM     15  C   UNL     1      32.737 -10.746 -22.137  0.00  0.00    +0.162 C 
ATOM     16  C   UNL     1      31.456 -11.727 -20.337  0.00  0.00    +0.029 C 
ATOM     17  C   UNL     1      32.411  -9.470 -21.669  0.00  0.00    +0.176 C 
ATOM     18  C   UNL     1      31.122 -10.451 -19.880  0.00  0.00    +0.142 C 
ATOM     19  C   UNL     1      31.602  -9.324 -20.543  0.00  0.00    +0.062 C 
ENDBRANCH   2  11
BRANCH   4  20
ATOM     20  C   UNL     1      34.943 -15.648 -21.547  0.00  0.00    +0.019 C 
BRANCH  20  21
ATOM     21  C   UNL     1      34.536 -16.959 -20.875  0.00  0.00    -0.075 C 
BRANCH  21  22
ATOM     22  N   UNL     1      35.657 -17.891 -20.851  0.00  0.00    +0.387 N 
ATOM     23  H   UNL     1      35.892 -18.106 -19.882  0.00  0.00    -0.084 HD
ATOM     24  H   UNL     1      36.451 -17.458 -21.322  0.00  0.00    -0.084 HD
BRANCH  22  25
ATOM     25  C   UNL     1      35.321 -19.126 -21.546  0.00  0.00    -0.054 C 
BRANCH  25  26
ATOM     26  C   UNL     1      34.948 -20.225 -20.587  0.00  0.00    -0.044 C 
ATOM     27  C   UNL     1      35.947 -20.975 -19.964  0.00  0.00    -0.006 C 
ATOM     28  C   UNL     1      33.606 -20.493 -20.320  0.00  0.00    -0.006 C 
ATOM     29  C   UNL     1      35.602 -21.993 -19.076  0.00  0.00    -0.000 C 
ATOM     30  C   UNL     1      33.262 -21.512 -19.431  0.00  0.00    -0.000 C 
ATOM     31  C   UNL     1      34.260 -22.262 -18.809  0.00  0.00    -0.000 C 
ENDBRANCH  25  26
ENDBRANCH  22  25
ENDBRANCH  21  22
ENDBRANCH  20  21
ENDBRANCH   4  20
TORSDOF 6
ENDMDL
MODEL 3
REMARK VINA RESULT:     -10.3     11.271     15.024
REMARK  Name = 25052630
REMARK  6 active torsions:
REMARK  status: ('A' for Active; 'I' for Inactive)
REMARK    1  A    between atoms: N_2  and  C_11
REMARK    2  A    between atoms: C_4  and  C_20
REMARK    3  A    between atoms: C_20  and  C_21
REMARK    4  A    between atoms: C_21  and  N_22
REMARK    5  A    between atoms: N_22  and  C_25
REMARK    6  A    between atoms: C_25  and  C_26
REMARK                            x       y       z     vdW  Elec       q    Type
REMARK                         _______ _______ _______ _____ _____    ______ ____
ROOT
ATOM      1  S   UNL     1      31.182 -10.625 -19.855  0.00  0.00    -0.018 S 
ATOM      2  N   UNL     1      32.384 -11.656 -22.165  0.00  0.00    -0.270 N 
ATOM      3  N   UNL     1      32.088 -13.120 -20.482  0.00  0.00    -0.294 N 
ATOM      4  C   UNL     1      32.864 -12.909 -22.543  0.00  0.00    +0.043 C 
ATOM      5  C   UNL     1      31.877 -11.768 -20.837  0.00  0.00    +0.142 C 
ATOM      6  C   UNL     1      32.681 -13.771 -21.531  0.00  0.00    +0.074 C 
ATOM      7  H   UNL     1      31.847 -13.529 -19.619  0.00  0.00    +0.154 HD
ENDROOT
BRANCH   2  11
ATOM      8  F   UNL     1      31.219  -6.013 -24.767  0.00  0.00    -0.201 F 
ATOM      9  F   UNL     1      35.944  -5.815 -24.752  0.00  0.00    -0.204 F 
ATOM     10  O   UNL     1      31.242  -8.411 -23.572  0.00  0.00    -0.472 OA
ATOM     11  C   UNL     1      32.419 -10.488 -23.006  0.00  0.00    +0.127 C 
ATOM     12  C   UNL     1      33.757  -9.763 -22.889  0.00  0.00    +0.054 C 
ATOM     13  C   UNL     1      31.300  -9.512 -22.658  0.00  0.00    +0.226 C 
ATOM     14  C   UNL     1      33.685  -8.413 -23.546  0.00  0.00    +0.018 C 
ATOM     15  C   UNL     1      32.449  -7.819 -23.835  0.00  0.00    +0.162 C 
ATOM     16  C   UNL     1      34.864  -7.722 -23.852  0.00  0.00    +0.029 C 
ATOM     17  C   UNL     1      32.398  -6.569 -24.458  0.00  0.00    +0.176 C 
ATOM     18  C   UNL     1      34.810  -6.468 -24.463  0.00  0.00    +0.142 C 
ATOM     19  C   UNL     1      33.578  -5.894 -24.769  0.00  0.00    +0.062 C 
ENDBRANCH   2  11
BRANCH   4  20
ATOM     20  C   UNL     1      33.468 -13.173 -23.871  0.00  0.00    +0.019 C 
BRANCH  20  21
ATOM     21  C   UNL     1      33.009 -14.515 -24.440  0.00  0.00    -0.075 C 
BRANCH  21  22
ATOM     22  N   UNL     1      34.154 -15.384 -24.688  0.00  0.00    +0.387 N 
ATOM     23  H   UNL     1      34.758 -14.949 -25.386  0.00  0.00    -0.084 HD
ATOM     24  H   UNL     1      33.813 -16.284 -25.024  0.00  0.00    -0.084 HD
BRANCH  22  25
ATOM     25  C   UNL     1      34.916 -15.600 -23.467  0.00  0.00    -0.054 C 
BRANCH  25  26
ATOM     26  C   UNL     1      34.900 -17.045 -23.044  0.00  0.00    -0.044 C 
ATOM     27  C   UNL     1      35.322 -17.401 -21.762  0.00  0.00    -0.006 C 
ATOM     28  C   UNL     1      34.462 -18.026 -23.931  0.00  0.00    -0.006 C 
ATOM     29  C   UNL     1      35.306 -18.739 -21.370  0.00  0.00    -0.000 C 
ATOM     30  C   UNL     1      34.446 -19.366 -23.538  0.00  0.00    -0.000 C 
ATOM     31  C   UNL     1      34.868 -19.721 -22.257  0.00  0.00    -0.000 C 
ENDBRANCH  25  26
ENDBRANCH  22  25
ENDBRANCH  21  22
ENDBRANCH  20  21
ENDBRANCH   4  20
TORSDOF 6
ENDMDL
MODEL 4
REMARK VINA RESULT:     -10.1      1.842      2.211
REMARK  Name = 25052630
REMARK  6 active torsions:
REMARK  status: ('A' for Active; 'I' for Inactive)
REMARK    1  A    between atoms: N_2  and  C_11
REMARK    2  A    between atoms: C_4  and  C_20
REMARK    3  A    between atoms: C_20  and  C_21
REMARK    4  A    between atoms: C_21  and  N_22
REMARK    5  A    between atoms: N_22  and  C_25
REMARK    6  A    between atoms: C_25  and  C_26
REMARK                            x       y       z     vdW  Elec       q    Type
REMARK                         _______ _______ _______ _____ _____    ______ ____
ROOT
ATOM      1  S   UNL     1      35.088 -24.768 -11.596  0.00  0.00    -0.018 S 
ATOM      2  N   UNL     1      34.899 -23.954 -14.268  0.00  0.00    -0.270 N 
ATOM      3  N   UNL     1      36.837 -23.468 -13.235  0.00  0.00    -0.294 N 
ATOM      4  C   UNL     1      35.748 -23.293 -15.152  0.00  0.00    +0.043 C 
ATOM      5  C   UNL     1      35.580 -24.079 -13.022  0.00  0.00    +0.142 C 
ATOM      6  C   UNL     1      36.900 -23.009 -14.524  0.00  0.00    +0.074 C 
ATOM      7  H   UNL     1      37.553 -23.384 -12.564  0.00  0.00    +0.154 HD
ENDROOT
BRANCH   2  11
ATOM      8  F   UNL     1      29.052 -26.347 -14.004  0.00  0.00    -0.201 F 
ATOM      9  F   UNL     1      28.134 -22.548 -16.665  0.00  0.00    -0.204 F 
ATOM     10  O   UNL     1      31.631 -25.655 -13.775  0.00  0.00    -0.472 OA
ATOM     11  C   UNL     1      33.574 -24.409 -14.605  0.00  0.00    +0.127 C 
ATOM     12  C   UNL     1      32.699 -23.254 -15.084  0.00  0.00    +0.054 C 
ATOM     13  C   UNL     1      32.893 -25.081 -13.417  0.00  0.00    +0.226 C 
ATOM     14  C   UNL     1      31.261 -23.682 -15.167  0.00  0.00    +0.018 C 
ATOM     15  C   UNL     1      30.813 -24.835 -14.508  0.00  0.00    +0.162 C 
ATOM     16  C   UNL     1      30.343 -22.908 -15.889  0.00  0.00    +0.029 C 
ATOM     17  C   UNL     1      29.475 -25.227 -14.604  0.00  0.00    +0.176 C 
ATOM     18  C   UNL     1      29.004 -23.295 -15.973  0.00  0.00    +0.142 C 
ATOM     19  C   UNL     1      28.572 -24.455 -15.335  0.00  0.00    +0.062 C 
ENDBRANCH   2  11
BRANCH   4  20
ATOM     20  C   UNL     1      35.372 -22.986 -16.554  0.00  0.00    +0.019 C 
BRANCH  20  21
ATOM     21  C   UNL     1      36.428 -22.120 -17.242  0.00  0.00    -0.075 C 
BRANCH  21  22
ATOM     22  N   UNL     1      36.109 -21.950 -18.655  0.00  0.00    +0.387 N 
ATOM     23  H   UNL     1      35.132 -21.670 -18.745  0.00  0.00    -0.084 HD
ATOM     24  H   UNL     1      36.271 -22.836 -19.134  0.00  0.00    -0.084 HD
BRANCH  22  25
ATOM     25  C   UNL     1      36.956 -20.932 -19.259  0.00  0.00    -0.054 C 
BRANCH  25  26
ATOM     26  C   UNL     1      36.233 -20.168 -20.336  0.00  0.00    -0.044 C 
ATOM     27  C   UNL     1      36.901 -19.176 -21.055  0.00  0.00    -0.006 C 
ATOM     28  C   UNL     1      34.898 -20.453 -20.616  0.00  0.00    -0.006 C 
ATOM     29  C   UNL     1      36.232 -18.469 -22.053  0.00  0.00    -0.000 C 
ATOM     30  C   UNL     1      34.228 -19.745 -21.616  0.00  0.00    -0.000 C 
ATOM     31  C   UNL     1      34.896 -18.753 -22.334  0.00  0.00    -0.000 C 
ENDBRANCH  25  26
ENDBRANCH  22  25
ENDBRANCH  21  22
ENDBRANCH  20  21
ENDBRANCH   4  20
TORSDOF 6
ENDMDL
MODEL 5
REMARK VINA RESULT:     -10.1      3.538      5.448
REMARK  Name = 25052630
REMARK  6 active torsions:
REMARK  status: ('A' for Active; 'I' for Inactive)
REMARK    1  A    between atoms: N_2  and  C_11
REMARK    2  A    between atoms: C_4  and  C_20
REMARK    3  A    between atoms: C_20  and  C_21
REMARK    4  A    between atoms: C_21  and  N_22
REMARK    5  A    between atoms: N_22  and  C_25
REMARK    6  A    between atoms: C_25  and  C_26
REMARK                            x       y       z     vdW  Elec       q    Type
REMARK                         _______ _______ _______ _____ _____    ______ ____
ROOT
ATOM      1  S   UNL     1      30.842 -24.964 -13.121  0.00  0.00    -0.018 S 
ATOM      2  N   UNL     1      32.785 -24.181 -14.979  0.00  0.00    -0.270 N 
ATOM      3  N   UNL     1      30.689 -23.483 -15.406  0.00  0.00    -0.294 N 
ATOM      4  C   UNL     1      32.770 -23.432 -16.154  0.00  0.00    +0.043 C 
ATOM      5  C   UNL     1      31.451 -24.228 -14.477  0.00  0.00    +0.142 C 
ATOM      6  C   UNL     1      31.515 -23.023 -16.397  0.00  0.00    +0.074 C 
ATOM      7  H   UNL     1      29.719 -23.322 -15.351  0.00  0.00    +0.154 HD
ENDROOT
BRANCH   2  11
ATOM      8  F   UNL     1      38.344 -27.100 -14.233  0.00  0.00    -0.201 F 
ATOM      9  F   UNL     1      38.980 -23.580 -11.140  0.00  0.00    -0.204 F 
ATOM     10  O   UNL     1      35.935 -26.151 -14.929  0.00  0.00    -0.472 OA
ATOM     11  C   UNL     1      33.967 -24.780 -14.416  0.00  0.00    +0.127 C 
ATOM     12  C   UNL     1      34.811 -23.747 -13.675  0.00  0.00    +0.054 C 
ATOM     13  C   UNL     1      34.828 -25.438 -15.490  0.00  0.00    +0.226 C 
ATOM     14  C   UNL     1      36.160 -24.314 -13.335  0.00  0.00    +0.018 C 
ATOM     15  C   UNL     1      36.643 -25.461 -13.980  0.00  0.00    +0.162 C 
ATOM     16  C   UNL     1      36.964 -23.678 -12.379  0.00  0.00    +0.029 C 
ATOM     17  C   UNL     1      37.895 -25.984 -13.643  0.00  0.00    +0.176 C 
ATOM     18  C   UNL     1      38.219 -24.195 -12.055  0.00  0.00    +0.142 C 
ATOM     19  C   UNL     1      38.681 -25.349 -12.683  0.00  0.00    +0.062 C 
ENDBRANCH   2  11
BRANCH   4  20
ATOM     20  C   UNL     1      33.989 -23.169 -16.958  0.00  0.00    +0.019 C 
BRANCH  20  21
ATOM     21  C   UNL     1      33.704 -23.264 -18.457  0.00  0.00    -0.075 C 
BRANCH  21  22
ATOM     22  N   UNL     1      33.901 -21.968 -19.098  0.00  0.00    +0.387 N 
ATOM     23  H   UNL     1      33.405 -21.254 -18.566  0.00  0.00    -0.084 HD
ATOM     24  H   UNL     1      33.541 -22.018 -20.050  0.00  0.00    -0.084 HD
BRANCH  22  25
ATOM     25  C   UNL     1      35.316 -21.627 -19.152  0.00  0.00    -0.054 C 
BRANCH  25  26
ATOM     26  C   UNL     1      35.596 -20.560 -20.176  0.00  0.00    -0.044 C 
ATOM     27  C   UNL     1      36.863 -19.978 -20.248  0.00  0.00    -0.006 C 
ATOM     28  C   UNL     1      34.592 -20.154 -21.054  0.00  0.00    -0.006 C 
ATOM     29  C   UNL     1      37.123 -18.991 -21.198  0.00  0.00    -0.000 C 
ATOM     30  C   UNL     1      34.853 -19.165 -22.003  0.00  0.00    -0.000 C 
ATOM     31  C   UNL     1      36.119 -18.584 -22.075  0.00  0.00    -0.000 C 
ENDBRANCH  25  26
ENDBRANCH  22  25
ENDBRANCH  21  22
ENDBRANCH  20  21
ENDBRANCH   4  20
TORSDOF 6
ENDMDL
MODEL 6
REMARK VINA RESULT:     -10.0      3.356      5.315
REMARK  Name = 25052630
REMARK  6 active torsions:
REMARK  status: ('A' for Active; 'I' for Inactive)
REMARK    1  A    between atoms: N_2  and  C_11
REMARK    2  A    between atoms: C_4  and  C_20
REMARK    3  A    between atoms: C_20  and  C_21
REMARK    4  A    between atoms: C_21  and  N_22
REMARK    5  A    between atoms: N_22  and  C_25
REMARK    6  A    between atoms: C_25  and  C_26
REMARK                            x       y       z     vdW  Elec       q    Type
REMARK                         _______ _______ _______ _____ _____    ______ ____
ROOT
ATOM      1  S   UNL     1      31.127 -25.178 -13.002  0.00  0.00    -0.018 S 
ATOM      2  N   UNL     1      32.751 -23.952 -14.925  0.00  0.00    -0.270 N 
ATOM      3  N   UNL     1      30.573 -24.136 -15.461  0.00  0.00    -0.294 N 
ATOM      4  C   UNL     1      32.531 -23.404 -16.188  0.00  0.00    +0.043 C 
ATOM      5  C   UNL     1      31.501 -24.431 -14.436  0.00  0.00    +0.142 C 
ATOM      6  C   UNL     1      31.229 -23.521 -16.494  0.00  0.00    +0.074 C 
ATOM      7  H   UNL     1      29.610 -24.340 -15.436  0.00  0.00    +0.154 HD
ENDROOT
BRANCH   2  11
ATOM      8  F   UNL     1      37.389 -24.661 -10.687  0.00  0.00    -0.201 F 
ATOM      9  F   UNL     1      39.457 -26.814 -14.354  0.00  0.00    -0.204 F 
ATOM     10  O   UNL     1      35.159 -24.221 -12.108  0.00  0.00    -0.472 OA
ATOM     11  C   UNL     1      34.036 -24.000 -14.277  0.00  0.00    +0.127 C 
ATOM     12  C   UNL     1      34.937 -25.056 -14.913  0.00  0.00    +0.054 C 
ATOM     13  C   UNL     1      33.902 -24.301 -12.788  0.00  0.00    +0.226 C 
ATOM     14  C   UNL     1      36.155 -25.290 -14.066  0.00  0.00    +0.018 C 
ATOM     15  C   UNL     1      36.192 -24.874 -12.728  0.00  0.00    +0.162 C 
ATOM     16  C   UNL     1      37.264 -25.954 -14.606  0.00  0.00    +0.029 C 
ATOM     17  C   UNL     1      37.338 -25.087 -11.956  0.00  0.00    +0.176 C 
ATOM     18  C   UNL     1      38.402 -26.177 -13.828  0.00  0.00    +0.142 C 
ATOM     19  C   UNL     1      38.440 -25.740 -12.507  0.00  0.00    +0.062 C 
ENDBRANCH   2  11
BRANCH   4  20
ATOM     20  C   UNL     1      33.612 -22.804 -17.006  0.00  0.00    +0.019 C 
BRANCH  20  21
ATOM     21  C   UNL     1      33.423 -23.104 -18.493  0.00  0.00    -0.075 C 
BRANCH  21  22
ATOM     22  N   UNL     1      33.729 -21.925 -19.296  0.00  0.00    +0.387 N 
ATOM     23  H   UNL     1      33.254 -21.116 -18.895  0.00  0.00    -0.084 HD
ATOM     24  H   UNL     1      33.409 -22.089 -20.250  0.00  0.00    -0.084 HD
BRANCH  22  25
ATOM     25  C   UNL     1      35.162 -21.673 -19.322  0.00  0.00    -0.054 C 
BRANCH  25  26
ATOM     26  C   UNL     1      35.519 -20.564 -20.276  0.00  0.00    -0.044 C 
ATOM     27  C   UNL     1      34.574 -20.100 -21.192  0.00  0.00    -0.006 C 
ATOM     28  C   UNL     1      36.793 -19.999 -20.242  0.00  0.00    -0.006 C 
ATOM     29  C   UNL     1      34.904 -19.072 -22.074  0.00  0.00    -0.000 C 
ATOM     30  C   UNL     1      37.123 -18.970 -21.126  0.00  0.00    -0.000 C 
ATOM     31  C   UNL     1      36.179 -18.507 -22.042  0.00  0.00    -0.000 C 
ENDBRANCH  25  26
ENDBRANCH  22  25
ENDBRANCH  21  22
ENDBRANCH  20  21
ENDBRANCH   4  20
TORSDOF 6
ENDMDL
MODEL 7
REMARK VINA RESULT:      -9.9      3.458      6.712
REMARK  Name = 25052630
REMARK  6 active torsions:
REMARK  status: ('A' for Active; 'I' for Inactive)
REMARK    1  A    between atoms: N_2  and  C_11
REMARK    2  A    between atoms: C_4  and  C_20
REMARK    3  A    between atoms: C_20  and  C_21
REMARK    4  A    between atoms: C_21  and  N_22
REMARK    5  A    between atoms: N_22  and  C_25
REMARK    6  A    between atoms: C_25  and  C_26
REMARK                            x       y       z     vdW  Elec       q    Type
REMARK                         _______ _______ _______ _____ _____    ______ ____
ROOT
ATOM      1  S   UNL     1      29.588 -23.158 -16.107  0.00  0.00    -0.018 S 
ATOM      2  N   UNL     1      32.052 -23.965 -15.051  0.00  0.00    -0.270 N 
ATOM      3  N   UNL     1      30.234 -24.902 -14.113  0.00  0.00    -0.294 N 
ATOM      4  C   UNL     1      32.445 -24.843 -14.043  0.00  0.00    +0.043 C 
ATOM      5  C   UNL     1      30.628 -23.986 -15.115  0.00  0.00    +0.142 C 
ATOM      6  C   UNL     1      31.352 -25.394 -13.493  0.00  0.00    +0.074 C 
ATOM      7  H   UNL     1      29.306 -25.147 -13.895  0.00  0.00    +0.154 HD
ENDROOT
BRANCH   2  11
ATOM      8  F   UNL     1      36.996 -22.111 -18.531  0.00  0.00    -0.201 F 
ATOM      9  F   UNL     1      33.540 -20.305 -21.206  0.00  0.00    -0.204 F 
ATOM     10  O   UNL     1      35.221 -23.163 -16.819  0.00  0.00    -0.472 OA
ATOM     11  C   UNL     1      32.966 -23.195 -15.856  0.00  0.00    +0.127 C 
ATOM     12  C   UNL     1      32.332 -22.799 -17.187  0.00  0.00    +0.054 C 
ATOM     13  C   UNL     1      34.252 -23.965 -16.135  0.00  0.00    +0.226 C 
ATOM     14  C   UNL     1      33.370 -22.244 -18.121  0.00  0.00    +0.018 C 
ATOM     15  C   UNL     1      34.734 -22.464 -17.893  0.00  0.00    +0.162 C 
ATOM     16  C   UNL     1      32.974 -21.518 -19.252  0.00  0.00    +0.029 C 
ATOM     17  C   UNL     1      35.689 -21.931 -18.764  0.00  0.00    +0.176 C 
ATOM     18  C   UNL     1      33.928 -20.998 -20.127  0.00  0.00    +0.142 C 
ATOM     19  C   UNL     1      35.284 -21.200 -19.881  0.00  0.00    +0.062 C 
ENDBRANCH   2  11
BRANCH   4  20
ATOM     20  C   UNL     1      33.866 -25.081 -13.690  0.00  0.00    +0.019 C 
BRANCH  20  21
ATOM     21  C   UNL     1      34.175 -24.618 -12.266  0.00  0.00    -0.075 C 
BRANCH  21  22
ATOM     22  N   UNL     1      35.094 -23.486 -12.285  0.00  0.00    +0.387 N 
ATOM     23  H   UNL     1      34.679 -22.711 -11.767  0.00  0.00    -0.084 HD
ATOM     24  H   UNL     1      35.261 -23.217 -13.254  0.00  0.00    -0.084 HD
BRANCH  22  25
ATOM     25  C   UNL     1      36.367 -23.841 -11.674  0.00  0.00    -0.054 C 
BRANCH  25  26
ATOM     26  C   UNL     1      37.353 -24.353 -12.689  0.00  0.00    -0.044 C 
ATOM     27  C   UNL     1      37.342 -23.846 -13.990  0.00  0.00    -0.006 C 
ATOM     28  C   UNL     1      38.279 -25.332 -12.330  0.00  0.00    -0.006 C 
ATOM     29  C   UNL     1      38.256 -24.320 -14.930  0.00  0.00    -0.000 C 
ATOM     30  C   UNL     1      39.194 -25.806 -13.272  0.00  0.00    -0.000 C 
ATOM     31  C   UNL     1      39.182 -25.300 -14.572  0.00  0.00    -0.000 C 
ENDBRANCH  25  26
ENDBRANCH  22  25
ENDBRANCH  21  22
ENDBRANCH  20  21
ENDBRANCH   4  20
TORSDOF 6
ENDMDL
MODEL 8
REMARK VINA RESULT:      -9.8      3.322      5.321
REMARK  Name = 25052630
REMARK  6 active torsions:
REMARK  status: ('A' for Active; 'I' for Inactive)
REMARK    1  A    between atoms: N_2  and  C_11
REMARK    2  A    between atoms: C_4  and  C_20
REMARK    3  A    between atoms: C_20  and  C_21
REMARK    4  A    between atoms: C_21  and  N_22
REMARK    5  A    between atoms: N_22  and  C_25
REMARK    6  A    between atoms: C_25  and  C_26
REMARK                            x       y       z     vdW  Elec       q    Type
REMARK                         _______ _______ _______ _____ _____    ______ ____
ROOT
ATOM      1  S   UNL     1      31.876 -24.102 -15.353  0.00  0.00    -0.018 S 
ATOM      2  N   UNL     1      34.240 -23.041 -16.415  0.00  0.00    -0.270 N 
ATOM      3  N   UNL     1      32.475 -23.082 -17.811  0.00  0.00    -0.294 N 
ATOM      4  C   UNL     1      34.606 -22.509 -17.650  0.00  0.00    +0.043 C 
ATOM      5  C   UNL     1      32.867 -23.418 -16.495  0.00  0.00    +0.142 C 
ATOM      6  C   UNL     1      33.545 -22.540 -18.472  0.00  0.00    +0.074 C 
ATOM      7  H   UNL     1      31.577 -23.217 -18.191  0.00  0.00    +0.154 HD
ENDROOT
BRANCH   2  11
ATOM      8  F   UNL     1      36.650 -24.117 -10.670  0.00  0.00    -0.201 F 
ATOM      9  F   UNL     1      40.047 -26.159 -13.248  0.00  0.00    -0.204 F 
ATOM     10  O   UNL     1      35.232 -23.531 -12.867  0.00  0.00    -0.472 OA
ATOM     11  C   UNL     1      35.131 -23.166 -15.291  0.00  0.00    +0.127 C 
ATOM     12  C   UNL     1      36.204 -24.220 -15.550  0.00  0.00    +0.054 C 
ATOM     13  C   UNL     1      34.378 -23.534 -14.017  0.00  0.00    +0.226 C 
ATOM     14  C   UNL     1      36.949 -24.537 -14.285  0.00  0.00    +0.018 C 
ATOM     15  C   UNL     1      36.423 -24.189 -13.033  0.00  0.00    +0.162 C 
ATOM     16  C   UNL     1      38.175 -25.213 -14.347  0.00  0.00    +0.029 C 
ATOM     17  C   UNL     1      37.134 -24.479 -11.865  0.00  0.00    +0.176 C 
ATOM     18  C   UNL     1      38.876 -25.512 -13.178  0.00  0.00    +0.142 C 
ATOM     19  C   UNL     1      38.358 -25.142 -11.939  0.00  0.00    +0.062 C 
ENDBRANCH   2  11
BRANCH   4  20
ATOM     20  C   UNL     1      35.971 -22.007 -17.939  0.00  0.00    +0.019 C 
BRANCH  20  21
ATOM     21  C   UNL     1      36.216 -21.877 -19.442  0.00  0.00    -0.075 C 
BRANCH  21  22
ATOM     22  N   UNL     1      35.995 -20.503 -19.879  0.00  0.00    +0.387 N 
ATOM     23  H   UNL     1      36.783 -20.205 -20.453  0.00  0.00    -0.084 HD
ATOM     24  H   UNL     1      35.910 -19.909 -19.055  0.00  0.00    -0.084 HD
BRANCH  22  25
ATOM     25  C   UNL     1      34.770 -20.397 -20.658  0.00  0.00    -0.054 C 
BRANCH  25  26
ATOM     26  C   UNL     1      34.830 -19.264 -21.647  0.00  0.00    -0.044 C 
ATOM     27  C   UNL     1      35.288 -18.009 -21.243  0.00  0.00    -0.006 C 
ATOM     28  C   UNL     1      34.431 -19.469 -22.968  0.00  0.00    -0.006 C 
ATOM     29  C   UNL     1      35.344 -16.960 -22.160  0.00  0.00    -0.000 C 
ATOM     30  C   UNL     1      34.489 -18.419 -23.885  0.00  0.00    -0.000 C 
ATOM     31  C   UNL     1      34.945 -17.164 -23.480  0.00  0.00    -0.000 C 
ENDBRANCH  25  26
ENDBRANCH  22  25
ENDBRANCH  21  22
ENDBRANCH  20  21
ENDBRANCH   4  20
TORSDOF 6
ENDMDL
MODEL 9
REMARK VINA RESULT:      -9.8     11.751     15.230
REMARK  Name = 25052630
REMARK  6 active torsions:
REMARK  status: ('A' for Active; 'I' for Inactive)
REMARK    1  A    between atoms: N_2  and  C_11
REMARK    2  A    between atoms: C_4  and  C_20
REMARK    3  A    between atoms: C_20  and  C_21
REMARK    4  A    between atoms: C_21  and  N_22
REMARK    5  A    between atoms: N_22  and  C_25
REMARK    6  A    between atoms: C_25  and  C_26
REMARK                            x       y       z     vdW  Elec       q    Type
REMARK                         _______ _______ _______ _____ _____    ______ ____
ROOT
ATOM      1  S   UNL     1      31.312 -10.354 -18.814  0.00  0.00    -0.018 S 
ATOM      2  N   UNL     1      32.183 -11.026 -21.388  0.00  0.00    -0.270 N 
ATOM      3  N   UNL     1      31.918 -12.750 -19.967  0.00  0.00    -0.294 N 
ATOM      4  C   UNL     1      32.507 -12.219 -22.032  0.00  0.00    +0.043 C 
ATOM      5  C   UNL     1      31.799 -11.344 -20.053  0.00  0.00    +0.142 C 
ATOM      6  C   UNL     1      32.344 -13.238 -21.173  0.00  0.00    +0.074 C 
ATOM      7  H   UNL     1      31.725 -13.292 -19.167  0.00  0.00    +0.154 HD
ENDROOT
BRANCH   2  11
ATOM      8  F   UNL     1      30.846  -5.826 -24.727  0.00  0.00    -0.201 F 
ATOM      9  F   UNL     1      32.533  -3.743 -20.831  0.00  0.00    -0.204 F 
ATOM     10  O   UNL     1      31.166  -8.260 -23.652  0.00  0.00    -0.472 OA
ATOM     11  C   UNL     1      32.245  -9.729 -22.010  0.00  0.00    +0.127 C 
ATOM     12  C   UNL     1      32.292  -8.617 -20.965  0.00  0.00    +0.054 C 
ATOM     13  C   UNL     1      31.050  -9.490 -22.927  0.00  0.00    +0.226 C 
ATOM     14  C   UNL     1      32.078  -7.277 -21.611  0.00  0.00    +0.018 C 
ATOM     15  C   UNL     1      31.525  -7.177 -22.894  0.00  0.00    +0.162 C 
ATOM     16  C   UNL     1      32.408  -6.107 -20.915  0.00  0.00    +0.029 C 
ATOM     17  C   UNL     1      31.343  -5.924 -23.486  0.00  0.00    +0.176 C 
ATOM     18  C   UNL     1      32.214  -4.856 -21.504  0.00  0.00    +0.142 C 
ATOM     19  C   UNL     1      31.686  -4.766 -22.790  0.00  0.00    +0.062 C 
ENDBRANCH   2  11
BRANCH   4  20
ATOM     20  C   UNL     1      32.952 -12.277 -23.445  0.00  0.00    +0.019 C 
BRANCH  20  21
ATOM     21  C   UNL     1      33.871 -13.473 -23.696  0.00  0.00    -0.075 C 
BRANCH  21  22
ATOM     22  N   UNL     1      33.109 -14.605 -24.211  0.00  0.00    +0.387 N 
ATOM     23  H   UNL     1      32.365 -14.258 -24.816  0.00  0.00    -0.084 HD
ATOM     24  H   UNL     1      32.716 -15.119 -23.423  0.00  0.00    -0.084 HD
BRANCH  22  25
ATOM     25  C   UNL     1      33.965 -15.503 -24.972  0.00  0.00    -0.054 C 
BRANCH  25  26
ATOM     26  C   UNL     1      34.312 -16.743 -24.193  0.00  0.00    -0.044 C 
ATOM     27  C   UNL     1      33.873 -17.992 -24.637  0.00  0.00    -0.006 C 
ATOM     28  C   UNL     1      35.073 -16.645 -23.029  0.00  0.00    -0.006 C 
ATOM     29  C   UNL     1      34.195 -19.141 -23.915  0.00  0.00    -0.000 C 
ATOM     30  C   UNL     1      35.395 -17.795 -22.307  0.00  0.00    -0.000 C 
ATOM     31  C   UNL     1      34.956 -19.043 -22.750  0.00  0.00    -0.000 C 
ENDBRANCH  25  26
ENDBRANCH  22  25
ENDBRANCH  21  22
ENDBRANCH  20  21
ENDBRANCH   4  20
TORSDOF 6
ENDMDL
