MODEL 1
REMARK VINA RESULT:     -10.9      0.000      0.000
REMARK  Name = 73777259
REMARK  4 active torsions:
REMARK  status: ('A' for Active; 'I' for Inactive)
REMARK    1  A    between atoms: N_3  and  C_16
REMARK    2  A    between atoms: N_4  and  C_23
REMARK    3  A    between atoms: C_16  and  C_17
REMARK    4  A    between atoms: C_23  and  C_24
REMARK                            x       y       z     vdW  Elec       q    Type
REMARK                         _______ _______ _______ _____ _____    ______ ____
ROOT
ATOM      1  O   UNL     1      37.154 -22.570 -15.752  0.00  0.00    -0.270 OA
ATOM      2  N   UNL     1      33.238 -23.129 -16.540  0.00  0.00    -0.240 N 
ATOM      3  N   UNL     1      35.537 -21.037 -19.389  0.00  0.00    +0.393 N 
ATOM      4  N   UNL     1      35.060 -23.298 -15.013  0.00  0.00    -0.224 N 
ATOM      5  N   UNL     1      32.847 -23.998 -14.462  0.00  0.00    -0.214 NA
ATOM      6  C   UNL     1      34.046 -22.572 -17.509  0.00  0.00    +0.032 C 
ATOM      7  C   UNL     1      35.355 -22.353 -17.280  0.00  0.00    +0.021 C 
ATOM      8  C   UNL     1      33.442 -22.210 -18.845  0.00  0.00    +0.019 C 
ATOM      9  C   UNL     1      36.262 -21.713 -18.300  0.00  0.00    -0.044 C 
ATOM     10  C   UNL     1      34.489 -21.910 -19.928  0.00  0.00    -0.070 C 
ATOM     11  C   UNL     1      33.709 -23.488 -15.305  0.00  0.00    +0.202 C 
ATOM     12  C   UNL     1      31.828 -23.424 -16.612  0.00  0.00    +0.092 C 
ATOM     13  C   UNL     1      35.951 -22.745 -15.950  0.00  0.00    +0.250 C 
ATOM     14  C   UNL     1      31.557 -23.991 -15.211  0.00  0.00    +0.118 C 
ATOM     15  H   UNL     1      35.089 -20.202 -19.010  0.00  0.00    -0.079 HD
ENDROOT
BRANCH   3  16
ATOM     16  C   UNL     1      36.460 -20.615 -20.441  0.00  0.00    -0.049 C 
BRANCH  16  17
ATOM     17  C   UNL     1      35.846 -19.579 -21.343  0.00  0.00    -0.043 C 
ATOM     18  C   UNL     1      35.173 -19.971 -22.501  0.00  0.00    -0.006 C 
ATOM     19  C   UNL     1      35.949 -18.225 -21.021  0.00  0.00    -0.006 C 
ATOM     20  C   UNL     1      34.605 -19.010 -23.337  0.00  0.00    -0.000 C 
ATOM     21  C   UNL     1      35.380 -17.264 -21.857  0.00  0.00    -0.000 C 
ATOM     22  C   UNL     1      34.708 -17.657 -23.015  0.00  0.00    -0.000 C 
ENDBRANCH  16  17
ENDBRANCH   3  16
BRANCH   4  23
ATOM     23  C   UNL     1      35.557 -23.691 -13.699  0.00  0.00    +0.127 C 
BRANCH  23  24
ATOM     24  C   UNL     1      36.410 -24.930 -13.770  0.00  0.00    -0.006 C 
ATOM     25  C   UNL     1      37.515 -25.089 -12.933  0.00  0.00    -0.024 C 
ATOM     26  C   UNL     1      36.081 -25.926 -14.689  0.00  0.00    -0.003 C 
ATOM     27  C   UNL     1      38.291 -26.244 -13.017  0.00  0.00    -0.005 C 
ATOM     28  C   UNL     1      37.886 -24.036 -11.942  0.00  0.00    +0.031 C 
ATOM     29  C   UNL     1      36.858 -27.082 -14.771  0.00  0.00    -0.000 C 
ATOM     30  C   UNL     1      37.963 -27.241 -13.935  0.00  0.00    -0.000 C 
ENDBRANCH  23  24
ENDBRANCH   4  23
TORSDOF 4
ENDMDL
MODEL 2
REMARK VINA RESULT:     -10.9      7.091     13.294
REMARK  Name = 73777259
REMARK  4 active torsions:
REMARK  status: ('A' for Active; 'I' for Inactive)
REMARK    1  A    between atoms: N_3  and  C_16
REMARK    2  A    between atoms: N_4  and  C_23
REMARK    3  A    between atoms: C_16  and  C_17
REMARK    4  A    between atoms: C_23  and  C_24
REMARK                            x       y       z     vdW  Elec       q    Type
REMARK                         _______ _______ _______ _____ _____    ______ ____
ROOT
ATOM      1  O   UNL     1      33.860 -12.683 -24.671  0.00  0.00    -0.270 OA
ATOM      2  N   UNL     1      32.690 -12.668 -20.811  0.00  0.00    -0.240 N 
ATOM      3  N   UNL     1      34.524 -16.163 -22.296  0.00  0.00    +0.393 N 
ATOM      4  N   UNL     1      32.726 -11.598 -22.941  0.00  0.00    -0.224 N 
ATOM      5  N   UNL     1      31.636 -10.652 -21.040  0.00  0.00    -0.214 NA
ATOM      6  C   UNL     1      33.414 -13.740 -21.290  0.00  0.00    +0.032 C 
ATOM      7  C   UNL     1      33.809 -13.791 -22.578  0.00  0.00    +0.021 C 
ATOM      8  C   UNL     1      33.767 -14.864 -20.346  0.00  0.00    +0.019 C 
ATOM      9  C   UNL     1      34.571 -14.962 -23.147  0.00  0.00    -0.044 C 
ATOM     10  C   UNL     1      34.833 -15.819 -20.904  0.00  0.00    -0.070 C 
ATOM     11  C   UNL     1      32.334 -11.608 -21.602  0.00  0.00    +0.202 C 
ATOM     12  C   UNL     1      32.185 -12.454 -19.478  0.00  0.00    +0.092 C 
ATOM     13  C   UNL     1      33.474 -12.648 -23.503  0.00  0.00    +0.250 C 
ATOM     14  C   UNL     1      31.461 -11.109 -19.632  0.00  0.00    +0.118 C 
ATOM     15  H   UNL     1      33.577 -16.544 -22.326  0.00  0.00    -0.079 HD
ENDROOT
BRANCH   3  16
ATOM     16  C   UNL     1      35.437 -17.188 -22.799  0.00  0.00    -0.049 C 
BRANCH  16  17
ATOM     17  C   UNL     1      35.502 -18.379 -21.881  0.00  0.00    -0.043 C 
ATOM     18  C   UNL     1      34.369 -19.168 -21.680  0.00  0.00    -0.006 C 
ATOM     19  C   UNL     1      36.695 -18.693 -21.230  0.00  0.00    -0.006 C 
ATOM     20  C   UNL     1      34.430 -20.271 -20.828  0.00  0.00    -0.000 C 
ATOM     21  C   UNL     1      36.756 -19.796 -20.378  0.00  0.00    -0.000 C 
ATOM     22  C   UNL     1      35.623 -20.585 -20.178  0.00  0.00    -0.000 C 
ENDBRANCH  16  17
ENDBRANCH   3  16
BRANCH   4  23
ATOM     23  C   UNL     1      32.351 -10.461 -23.775  0.00  0.00    +0.127 C 
BRANCH  23  24
ATOM     24  C   UNL     1      33.248  -9.274 -23.541  0.00  0.00    -0.006 C 
ATOM     25  C   UNL     1      32.716  -8.028 -23.213  0.00  0.00    -0.024 C 
ATOM     26  C   UNL     1      34.628  -9.436 -23.656  0.00  0.00    -0.003 C 
ATOM     27  C   UNL     1      33.565  -6.942 -23.001  0.00  0.00    -0.005 C 
ATOM     28  C   UNL     1      31.241  -7.831 -23.085  0.00  0.00    +0.031 C 
ATOM     29  C   UNL     1      35.477  -8.350 -23.443  0.00  0.00    -0.000 C 
ATOM     30  C   UNL     1      34.945  -7.103 -23.116  0.00  0.00    -0.000 C 
ENDBRANCH  23  24
ENDBRANCH   4  23
TORSDOF 4
ENDMDL
MODEL 3
REMARK VINA RESULT:     -10.0      7.786     13.984
REMARK  Name = 73777259
REMARK  4 active torsions:
REMARK  status: ('A' for Active; 'I' for Inactive)
REMARK    1  A    between atoms: N_3  and  C_16
REMARK    2  A    between atoms: N_4  and  C_23
REMARK    3  A    between atoms: C_16  and  C_17
REMARK    4  A    between atoms: C_23  and  C_24
REMARK                            x       y       z     vdW  Elec       q    Type
REMARK                         _______ _______ _______ _____ _____    ______ ____
ROOT
ATOM      1  O   UNL     1      33.388 -11.528 -24.725  0.00  0.00    -0.270 OA
ATOM      2  N   UNL     1      32.365 -11.931 -20.844  0.00  0.00    -0.240 N 
ATOM      3  N   UNL     1      34.215 -15.211 -22.740  0.00  0.00    +0.393 N 
ATOM      4  N   UNL     1      32.297 -10.652 -22.854  0.00  0.00    -0.224 N 
ATOM      5  N   UNL     1      31.261  -9.928 -20.830  0.00  0.00    -0.214 NA
ATOM      6  C   UNL     1      33.093 -12.930 -21.455  0.00  0.00    +0.032 C 
ATOM      7  C   UNL     1      33.440 -12.842 -22.754  0.00  0.00    +0.021 C 
ATOM      8  C   UNL     1      33.505 -14.134 -20.642  0.00  0.00    +0.019 C 
ATOM      9  C   UNL     1      34.204 -13.930 -23.465  0.00  0.00    -0.044 C 
ATOM     10  C   UNL     1      34.569 -15.002 -21.332  0.00  0.00    -0.070 C 
ATOM     11  C   UNL     1      31.957 -10.805 -21.510  0.00  0.00    +0.202 C 
ATOM     12  C   UNL     1      31.907 -11.864 -19.479  0.00  0.00    +0.092 C 
ATOM     13  C   UNL     1      33.045 -11.620 -23.546  0.00  0.00    +0.250 C 
ATOM     14  C   UNL     1      31.149 -10.529 -19.470  0.00  0.00    +0.118 C 
ATOM     15  H   UNL     1      33.276 -15.611 -22.774  0.00  0.00    -0.079 HD
ENDROOT
BRANCH   3  16
ATOM     16  C   UNL     1      35.130 -16.158 -23.376  0.00  0.00    -0.049 C 
BRANCH  16  17
ATOM     17  C   UNL     1      35.012 -17.536 -22.782  0.00  0.00    -0.043 C 
ATOM     18  C   UNL     1      34.428 -18.566 -23.518  0.00  0.00    -0.006 C 
ATOM     19  C   UNL     1      35.487 -17.783 -21.493  0.00  0.00    -0.006 C 
ATOM     20  C   UNL     1      34.318 -19.843 -22.967  0.00  0.00    -0.000 C 
ATOM     21  C   UNL     1      35.377 -19.059 -20.942  0.00  0.00    -0.000 C 
ATOM     22  C   UNL     1      34.793 -20.089 -21.679  0.00  0.00    -0.000 C 
ENDBRANCH  16  17
ENDBRANCH   3  16
BRANCH   4  23
ATOM     23  C   UNL     1      31.867  -9.446 -23.555  0.00  0.00    +0.127 C 
BRANCH  23  24
ATOM     24  C   UNL     1      32.963  -8.416 -23.623  0.00  0.00    -0.006 C 
ATOM     25  C   UNL     1      32.703  -7.121 -24.071  0.00  0.00    -0.024 C 
ATOM     26  C   UNL     1      34.253  -8.773 -23.231  0.00  0.00    -0.003 C 
ATOM     27  C   UNL     1      33.733  -6.183 -24.127  0.00  0.00    -0.005 C 
ATOM     28  C   UNL     1      31.330  -6.716 -24.497  0.00  0.00    +0.031 C 
ATOM     29  C   UNL     1      35.283  -7.833 -23.286  0.00  0.00    -0.000 C 
ATOM     30  C   UNL     1      35.023  -6.539 -23.734  0.00  0.00    -0.000 C 
ENDBRANCH  23  24
ENDBRANCH   4  23
TORSDOF 4
ENDMDL
MODEL 4
REMARK VINA RESULT:      -9.6      8.343     13.711
REMARK  Name = 73777259
REMARK  4 active torsions:
REMARK  status: ('A' for Active; 'I' for Inactive)
REMARK    1  A    between atoms: N_3  and  C_16
REMARK    2  A    between atoms: N_4  and  C_23
REMARK    3  A    between atoms: C_16  and  C_17
REMARK    4  A    between atoms: C_23  and  C_24
REMARK                            x       y       z     vdW  Elec       q    Type
REMARK                         _______ _______ _______ _____ _____    ______ ____
ROOT
ATOM      1  O   UNL     1      34.161 -12.296 -24.521  0.00  0.00    -0.270 OA
ATOM      2  N   UNL     1      32.253 -12.119 -20.972  0.00  0.00    -0.240 N 
ATOM      3  N   UNL     1      34.490 -15.589 -21.830  0.00  0.00    +0.393 N 
ATOM      4  N   UNL     1      32.662 -11.176 -23.122  0.00  0.00    -0.224 N 
ATOM      5  N   UNL     1      31.180 -10.181 -21.538  0.00  0.00    -0.214 NA
ATOM      6  C   UNL     1      33.102 -13.175 -21.226  0.00  0.00    +0.032 C 
ATOM      7  C   UNL     1      33.745 -13.281 -22.406  0.00  0.00    +0.021 C 
ATOM      8  C   UNL     1      33.309 -14.221 -20.157  0.00  0.00    +0.019 C 
ATOM      9  C   UNL     1      34.653 -14.439 -22.735  0.00  0.00    -0.044 C 
ATOM     10  C   UNL     1      34.504 -15.147 -20.431  0.00  0.00    -0.070 C 
ATOM     11  C   UNL     1      32.014 -11.128 -21.887  0.00  0.00    +0.202 C 
ATOM     12  C   UNL     1      31.486 -11.855 -19.780  0.00  0.00    +0.092 C 
ATOM     13  C   UNL     1      33.550 -12.214 -23.455  0.00  0.00    +0.250 C 
ATOM     14  C   UNL     1      30.749 -10.564 -20.163  0.00  0.00    +0.118 C 
ATOM     15  H   UNL     1      33.585 -16.022 -22.016  0.00  0.00    -0.079 HD
ENDROOT
BRANCH   3  16
ATOM     16  C   UNL     1      35.527 -16.589 -22.074  0.00  0.00    -0.049 C 
BRANCH  16  17
ATOM     17  C   UNL     1      35.011 -17.742 -22.892  0.00  0.00    -0.043 C 
ATOM     18  C   UNL     1      35.327 -19.052 -22.531  0.00  0.00    -0.006 C 
ATOM     19  C   UNL     1      34.217 -17.500 -24.014  0.00  0.00    -0.006 C 
ATOM     20  C   UNL     1      34.850 -20.120 -23.291  0.00  0.00    -0.000 C 
ATOM     21  C   UNL     1      33.739 -18.568 -24.774  0.00  0.00    -0.000 C 
ATOM     22  C   UNL     1      34.056 -19.878 -24.412  0.00  0.00    -0.000 C 
ENDBRANCH  16  17
ENDBRANCH   3  16
BRANCH   4  23
ATOM     23  C   UNL     1      32.411 -10.113 -24.089  0.00  0.00    +0.127 C 
BRANCH  23  24
ATOM     24  C   UNL     1      33.235  -8.886 -23.800  0.00  0.00    -0.006 C 
ATOM     25  C   UNL     1      32.651  -7.620 -23.771  0.00  0.00    -0.024 C 
ATOM     26  C   UNL     1      34.601  -9.030 -23.559  0.00  0.00    -0.003 C 
ATOM     27  C   UNL     1      33.433  -6.498 -23.502  0.00  0.00    -0.005 C 
ATOM     28  C   UNL     1      31.191  -7.442 -24.026  0.00  0.00    +0.031 C 
ATOM     29  C   UNL     1      35.384  -7.907 -23.289  0.00  0.00    -0.000 C 
ATOM     30  C   UNL     1      34.799  -6.641 -23.261  0.00  0.00    -0.000 C 
ENDBRANCH  23  24
ENDBRANCH   4  23
TORSDOF 4
ENDMDL
MODEL 5
REMARK VINA RESULT:      -9.6      2.311      5.220
REMARK  Name = 73777259
REMARK  4 active torsions:
REMARK  status: ('A' for Active; 'I' for Inactive)
REMARK    1  A    between atoms: N_3  and  C_16
REMARK    2  A    between atoms: N_4  and  C_23
REMARK    3  A    between atoms: C_16  and  C_17
REMARK    4  A    between atoms: C_23  and  C_24
REMARK                            x       y       z     vdW  Elec       q    Type
REMARK                         _______ _______ _______ _____ _____    ______ ____
ROOT
ATOM      1  O   UNL     1      32.711 -24.009 -16.470  0.00  0.00    -0.270 OA
ATOM      2  N   UNL     1      35.534 -23.575 -13.621  0.00  0.00    -0.240 N 
ATOM      3  N   UNL     1      36.531 -22.455 -17.562  0.00  0.00    +0.393 N 
ATOM      4  N   UNL     1      33.384 -24.379 -14.264  0.00  0.00    -0.224 N 
ATOM      5  N   UNL     1      34.253 -24.642 -12.057  0.00  0.00    -0.214 NA
ATOM      6  C   UNL     1      35.779 -23.092 -14.889  0.00  0.00    +0.032 C 
ATOM      7  C   UNL     1      34.869 -23.232 -15.874  0.00  0.00    +0.021 C 
ATOM      8  C   UNL     1      37.089 -22.394 -15.165  0.00  0.00    +0.019 C 
ATOM      9  C   UNL     1      35.116 -22.749 -17.281  0.00  0.00    -0.044 C 
ATOM     10  C   UNL     1      37.105 -21.628 -16.497  0.00  0.00    -0.070 C 
ATOM     11  C   UNL     1      34.369 -24.216 -13.290  0.00  0.00    +0.202 C 
ATOM     12  C   UNL     1      36.389 -23.519 -12.462  0.00  0.00    +0.092 C 
ATOM     13  C   UNL     1      33.553 -23.907 -15.577  0.00  0.00    +0.250 C 
ATOM     14  C   UNL     1      35.540 -24.251 -11.413  0.00  0.00    +0.118 C 
ATOM     15  H   UNL     1      37.045 -23.336 -17.591  0.00  0.00    -0.079 HD
ENDROOT
BRANCH   3  16
ATOM     16  C   UNL     1      36.675 -21.808 -18.865  0.00  0.00    -0.049 C 
BRANCH  16  17
ATOM     17  C   UNL     1      35.348 -21.362 -19.418  0.00  0.00    -0.043 C 
ATOM     18  C   UNL     1      34.174 -22.002 -19.021  0.00  0.00    -0.006 C 
ATOM     19  C   UNL     1      35.293 -20.307 -20.330  0.00  0.00    -0.006 C 
ATOM     20  C   UNL     1      32.945 -21.589 -19.536  0.00  0.00    -0.000 C 
ATOM     21  C   UNL     1      34.064 -19.893 -20.845  0.00  0.00    -0.000 C 
ATOM     22  C   UNL     1      32.891 -20.534 -20.447  0.00  0.00    -0.000 C 
ENDBRANCH  16  17
ENDBRANCH   3  16
BRANCH   4  23
ATOM     23  C   UNL     1      32.143 -25.055 -13.901  0.00  0.00    +0.127 C 
BRANCH  23  24
ATOM     24  C   UNL     1      30.931 -24.263 -14.317  0.00  0.00    -0.006 C 
ATOM     25  C   UNL     1      29.852 -24.882 -14.947  0.00  0.00    -0.024 C 
ATOM     26  C   UNL     1      30.899 -22.893 -14.064  0.00  0.00    -0.003 C 
ATOM     27  C   UNL     1      28.740 -24.129 -15.323  0.00  0.00    -0.005 C 
ATOM     28  C   UNL     1      29.864 -26.349 -15.228  0.00  0.00    +0.031 C 
ATOM     29  C   UNL     1      29.786 -22.140 -14.440  0.00  0.00    -0.000 C 
ATOM     30  C   UNL     1      28.707 -22.759 -15.070  0.00  0.00    -0.000 C 
ENDBRANCH  23  24
ENDBRANCH   4  23
TORSDOF 4
ENDMDL
MODEL 6
REMARK VINA RESULT:      -9.5     11.003     15.082
REMARK  Name = 73777259
REMARK  4 active torsions:
REMARK  status: ('A' for Active; 'I' for Inactive)
REMARK    1  A    between atoms: N_3  and  C_16
REMARK    2  A    between atoms: N_4  and  C_23
REMARK    3  A    between atoms: C_16  and  C_17
REMARK    4  A    between atoms: C_23  and  C_24
REMARK                            x       y       z     vdW  Elec       q    Type
REMARK                         _______ _______ _______ _____ _____    ______ ____
ROOT
ATOM      1  O   UNL     1      31.500  -9.809 -23.961  0.00  0.00    -0.270 OA
ATOM      2  N   UNL     1      31.938  -8.867 -20.064  0.00  0.00    -0.240 N 
ATOM      3  N   UNL     1      32.932  -5.928 -22.920  0.00  0.00    +0.393 N 
ATOM      4  N   UNL     1      31.477 -10.506 -21.731  0.00  0.00    -0.224 N 
ATOM      5  N   UNL     1      31.487 -11.008 -19.399  0.00  0.00    -0.214 NA
ATOM      6  C   UNL     1      32.122  -7.888 -21.017  0.00  0.00    +0.032 C 
ATOM      7  C   UNL     1      32.002  -8.165 -22.330  0.00  0.00    +0.021 C 
ATOM      8  C   UNL     1      32.459  -6.485 -20.568  0.00  0.00    +0.019 C 
ATOM      9  C   UNL     1      32.230  -7.130 -23.402  0.00  0.00    -0.044 C 
ATOM     10  C   UNL     1      32.317  -5.437 -21.682  0.00  0.00    -0.070 C 
ATOM     11  C   UNL     1      31.627 -10.162 -20.388  0.00  0.00    +0.202 C 
ATOM     12  C   UNL     1      32.034  -8.750 -18.630  0.00  0.00    +0.092 C 
ATOM     13  C   UNL     1      31.638  -9.564 -22.762  0.00  0.00    +0.250 C 
ATOM     14  C   UNL     1      31.750 -10.190 -18.180  0.00  0.00    +0.118 C 
ATOM     15  H   UNL     1      33.899  -6.179 -22.714  0.00  0.00    -0.079 HD
ENDROOT
BRANCH   3  16
ATOM     16  C   UNL     1      32.944  -4.890 -23.948  0.00  0.00    -0.049 C 
BRANCH  16  17
ATOM     17  C   UNL     1      33.776  -5.289 -25.137  0.00  0.00    -0.043 C 
ATOM     18  C   UNL     1      33.254  -5.171 -26.425  0.00  0.00    -0.006 C 
ATOM     19  C   UNL     1      35.070  -5.776 -24.951  0.00  0.00    -0.006 C 
ATOM     20  C   UNL     1      34.025  -5.542 -27.527  0.00  0.00    -0.000 C 
ATOM     21  C   UNL     1      35.841  -6.147 -26.053  0.00  0.00    -0.000 C 
ATOM     22  C   UNL     1      35.318  -6.030 -27.340  0.00  0.00    -0.000 C 
ENDBRANCH  16  17
ENDBRANCH   3  16
BRANCH   4  23
ATOM     23  C   UNL     1      31.136 -11.884 -22.069  0.00  0.00    +0.127 C 
BRANCH  23  24
ATOM     24  C   UNL     1      32.364 -12.718 -22.327  0.00  0.00    -0.006 C 
ATOM     25  C   UNL     1      32.774 -13.690 -21.415  0.00  0.00    -0.024 C 
ATOM     26  C   UNL     1      33.092 -12.507 -23.496  0.00  0.00    -0.003 C 
ATOM     27  C   UNL     1      33.914 -14.451 -21.673  0.00  0.00    -0.005 C 
ATOM     28  C   UNL     1      32.010 -13.934 -20.155  0.00  0.00    +0.031 C 
ATOM     29  C   UNL     1      34.232 -13.268 -23.755  0.00  0.00    -0.000 C 
ATOM     30  C   UNL     1      34.643 -14.240 -22.843  0.00  0.00    -0.000 C 
ENDBRANCH  23  24
ENDBRANCH   4  23
TORSDOF 4
ENDMDL
MODEL 7
REMARK VINA RESULT:      -9.2      5.104      8.570
REMARK  Name = 73777259
REMARK  4 active torsions:
REMARK  status: ('A' for Active; 'I' for Inactive)
REMARK    1  A    between atoms: N_3  and  C_16
REMARK    2  A    between atoms: N_4  and  C_23
REMARK    3  A    between atoms: C_16  and  C_17
REMARK    4  A    between atoms: C_23  and  C_24
REMARK                            x       y       z     vdW  Elec       q    Type
REMARK                         _______ _______ _______ _____ _____    ______ ____
ROOT
ATOM      1  O   UNL     1      35.707 -16.525 -20.672  0.00  0.00    -0.270 OA
ATOM      2  N   UNL     1      34.352 -18.271 -24.046  0.00  0.00    -0.240 N 
ATOM      3  N   UNL     1      33.596 -14.156 -23.522  0.00  0.00    +0.393 N 
ATOM      4  N   UNL     1      35.359 -18.484 -21.896  0.00  0.00    -0.224 N 
ATOM      5  N   UNL     1      34.932 -20.357 -23.311  0.00  0.00    -0.214 NA
ATOM      6  C   UNL     1      34.244 -16.903 -23.906  0.00  0.00    +0.032 C 
ATOM      7  C   UNL     1      34.668 -16.283 -22.788  0.00  0.00    +0.021 C 
ATOM      8  C   UNL     1      33.641 -16.099 -25.034  0.00  0.00    +0.019 C 
ATOM      9  C   UNL     1      34.533 -14.795 -22.583  0.00  0.00    -0.044 C 
ATOM     10  C   UNL     1      33.872 -14.586 -24.896  0.00  0.00    -0.070 C 
ATOM     11  C   UNL     1      34.890 -19.070 -23.072  0.00  0.00    +0.202 C 
ATOM     12  C   UNL     1      33.948 -19.092 -25.161  0.00  0.00    +0.092 C 
ATOM     13  C   UNL     1      35.293 -17.096 -21.681  0.00  0.00    +0.250 C 
ATOM     14  C   UNL     1      34.318 -20.496 -24.664  0.00  0.00    +0.118 C 
ATOM     15  H   UNL     1      32.648 -14.448 -23.283  0.00  0.00    -0.079 HD
ENDROOT
BRANCH   3  16
ATOM     16  C   UNL     1      33.661 -12.700 -23.405  0.00  0.00    -0.049 C 
BRANCH  16  17
ATOM     17  C   UNL     1      32.671 -12.174 -22.401  0.00  0.00    -0.043 C 
ATOM     18  C   UNL     1      32.074 -10.929 -22.595  0.00  0.00    -0.006 C 
ATOM     19  C   UNL     1      32.350 -12.934 -21.275  0.00  0.00    -0.006 C 
ATOM     20  C   UNL     1      31.157 -10.441 -21.663  0.00  0.00    -0.000 C 
ATOM     21  C   UNL     1      31.434 -12.446 -20.343  0.00  0.00    -0.000 C 
ATOM     22  C   UNL     1      30.837 -11.201 -20.538  0.00  0.00    -0.000 C 
ENDBRANCH  16  17
ENDBRANCH   3  16
BRANCH   4  23
ATOM     23  C   UNL     1      35.939 -19.340 -20.867  0.00  0.00    +0.127 C 
BRANCH  23  24
ATOM     24  C   UNL     1      34.912 -20.254 -20.254  0.00  0.00    -0.006 C 
ATOM     25  C   UNL     1      35.297 -21.356 -19.490  0.00  0.00    -0.024 C 
ATOM     26  C   UNL     1      33.559 -19.985 -20.458  0.00  0.00    -0.003 C 
ATOM     27  C   UNL     1      34.328 -22.189 -18.932  0.00  0.00    -0.005 C 
ATOM     28  C   UNL     1      36.739 -21.664 -19.258  0.00  0.00    +0.031 C 
ATOM     29  C   UNL     1      32.590 -20.819 -19.898  0.00  0.00    -0.000 C 
ATOM     30  C   UNL     1      32.975 -21.921 -19.135  0.00  0.00    -0.000 C 
ENDBRANCH  23  24
ENDBRANCH   4  23
TORSDOF 4
ENDMDL
MODEL 8
REMARK VINA RESULT:      -9.2      9.861     15.330
REMARK  Name = 73777259
REMARK  4 active torsions:
REMARK  status: ('A' for Active; 'I' for Inactive)
REMARK    1  A    between atoms: N_3  and  C_16
REMARK    2  A    between atoms: N_4  and  C_23
REMARK    3  A    between atoms: C_16  and  C_17
REMARK    4  A    between atoms: C_23  and  C_24
REMARK                            x       y       z     vdW  Elec       q    Type
REMARK                         _______ _______ _______ _____ _____    ______ ____
ROOT
ATOM      1  O   UNL     1      34.632  -9.312 -23.931  0.00  0.00    -0.270 OA
ATOM      2  N   UNL     1      32.028 -10.387 -21.045  0.00  0.00    -0.240 N 
ATOM      3  N   UNL     1      32.780 -13.148 -24.142  0.00  0.00    +0.393 N 
ATOM      4  N   UNL     1      33.394  -8.709 -22.044  0.00  0.00    -0.224 N 
ATOM      5  N   UNL     1      32.064  -8.303 -20.105  0.00  0.00    -0.214 NA
ATOM      6  C   UNL     1      32.400 -11.315 -21.994  0.00  0.00    +0.032 C 
ATOM      7  C   UNL     1      33.254 -10.991 -22.985  0.00  0.00    +0.021 C 
ATOM      8  C   UNL     1      31.838 -12.714 -21.908  0.00  0.00    +0.019 C 
ATOM      9  C   UNL     1      33.657 -11.968 -24.061  0.00  0.00    -0.044 C 
ATOM     10  C   UNL     1      32.568 -13.722 -22.809  0.00  0.00    -0.070 C 
ATOM     11  C   UNL     1      32.496  -9.099 -21.051  0.00  0.00    +0.202 C 
ATOM     12  C   UNL     1      31.128 -10.557 -19.931  0.00  0.00    +0.092 C 
ATOM     13  C   UNL     1      33.829  -9.598 -23.042  0.00  0.00    +0.250 C 
ATOM     14  C   UNL     1      31.135  -9.155 -19.307  0.00  0.00    +0.118 C 
ATOM     15  H   UNL     1      31.874 -12.854 -24.507  0.00  0.00    -0.079 HD
ENDROOT
BRANCH   3  16
ATOM     16  C   UNL     1      33.334 -14.142 -25.059  0.00  0.00    -0.049 C 
BRANCH  16  17
ATOM     17  C   UNL     1      33.926 -15.315 -24.323  0.00  0.00    -0.043 C 
ATOM     18  C   UNL     1      33.765 -16.606 -24.824  0.00  0.00    -0.006 C 
ATOM     19  C   UNL     1      34.635 -15.109 -23.140  0.00  0.00    -0.006 C 
ATOM     20  C   UNL     1      34.312 -17.693 -24.141  0.00  0.00    -0.000 C 
ATOM     21  C   UNL     1      35.183 -16.195 -22.457  0.00  0.00    -0.000 C 
ATOM     22  C   UNL     1      35.021 -17.487 -22.958  0.00  0.00    -0.000 C 
ENDBRANCH  16  17
ENDBRANCH   3  16
BRANCH   4  23
ATOM     23  C   UNL     1      33.895  -7.339 -22.039  0.00  0.00    +0.127 C 
BRANCH  23  24
ATOM     24  C   UNL     1      33.206  -6.485 -23.071  0.00  0.00    -0.006 C 
ATOM     25  C   UNL     1      33.910  -5.966 -24.158  0.00  0.00    -0.024 C 
ATOM     26  C   UNL     1      31.846  -6.217 -22.928  0.00  0.00    -0.003 C 
ATOM     27  C   UNL     1      33.252  -5.178 -25.101  0.00  0.00    -0.005 C 
ATOM     28  C   UNL     1      35.368  -6.240 -24.331  0.00  0.00    +0.031 C 
ATOM     29  C   UNL     1      31.187  -5.429 -23.873  0.00  0.00    -0.000 C 
ATOM     30  C   UNL     1      31.891  -4.910 -24.960  0.00  0.00    -0.000 C 
ENDBRANCH  23  24
ENDBRANCH   4  23
TORSDOF 4
ENDMDL
MODEL 9
REMARK VINA RESULT:      -9.1      2.553      7.818
REMARK  Name = 73777259
REMARK  4 active torsions:
REMARK  status: ('A' for Active; 'I' for Inactive)
REMARK    1  A    between atoms: N_3  and  C_16
REMARK    2  A    between atoms: N_4  and  C_23
REMARK    3  A    between atoms: C_16  and  C_17
REMARK    4  A    between atoms: C_23  and  C_24
REMARK                            x       y       z     vdW  Elec       q    Type
REMARK                         _______ _______ _______ _____ _____    ______ ____
ROOT
ATOM      1  O   UNL     1      32.567 -23.268 -18.436  0.00  0.00    -0.270 OA
ATOM      2  N   UNL     1      35.717 -22.755 -15.968  0.00  0.00    -0.240 N 
ATOM      3  N   UNL     1      31.910 -23.243 -14.221  0.00  0.00    +0.393 N 
ATOM      4  N   UNL     1      34.837 -22.776 -18.183  0.00  0.00    -0.224 N 
ATOM      5  N   UNL     1      37.130 -22.312 -17.710  0.00  0.00    -0.214 NA
ATOM      6  C   UNL     1      34.483 -23.054 -15.430  0.00  0.00    +0.032 C 
ATOM      7  C   UNL     1      33.402 -23.216 -16.218  0.00  0.00    +0.021 C 
ATOM      8  C   UNL     1      34.355 -23.204 -13.933  0.00  0.00    +0.019 C 
ATOM      9  C   UNL     1      32.030 -23.508 -15.665  0.00  0.00    -0.044 C 
ATOM     10  C   UNL     1      33.031 -23.847 -13.493  0.00  0.00    -0.070 C 
ATOM     11  C   UNL     1      35.916 -22.607 -17.316  0.00  0.00    +0.202 C 
ATOM     12  C   UNL     1      36.966 -22.543 -15.279  0.00  0.00    +0.092 C 
ATOM     13  C   UNL     1      33.550 -23.091 -17.714  0.00  0.00    +0.250 C 
ATOM     14  C   UNL     1      37.914 -22.227 -16.445  0.00  0.00    +0.118 C 
ATOM     15  H   UNL     1      31.944 -22.234 -14.073  0.00  0.00    -0.079 HD
ENDROOT
BRANCH   3  16
ATOM     16  C   UNL     1      30.630 -23.731 -13.711  0.00  0.00    -0.049 C 
BRANCH  16  17
ATOM     17  C   UNL     1      29.561 -23.713 -14.771  0.00  0.00    -0.043 C 
ATOM     18  C   UNL     1      29.251 -24.879 -15.470  0.00  0.00    -0.006 C 
ATOM     19  C   UNL     1      28.881 -22.528 -15.054  0.00  0.00    -0.006 C 
ATOM     20  C   UNL     1      28.261 -24.861 -16.453  0.00  0.00    -0.000 C 
ATOM     21  C   UNL     1      27.891 -22.510 -16.036  0.00  0.00    -0.000 C 
ATOM     22  C   UNL     1      27.581 -23.677 -16.735  0.00  0.00    -0.000 C 
ENDBRANCH  16  17
ENDBRANCH   3  16
BRANCH   4  23
ATOM     23  C   UNL     1      35.059 -22.625 -19.617  0.00  0.00    +0.127 C 
BRANCH  23  24
ATOM     24  C   UNL     1      35.346 -21.196 -19.994  0.00  0.00    -0.006 C 
ATOM     25  C   UNL     1      34.313 -20.321 -20.328  0.00  0.00    -0.024 C 
ATOM     26  C   UNL     1      36.668 -20.751 -20.004  0.00  0.00    -0.003 C 
ATOM     27  C   UNL     1      34.602 -19.001 -20.674  0.00  0.00    -0.005 C 
ATOM     28  C   UNL     1      32.890 -20.774 -20.325  0.00  0.00    +0.031 C 
ATOM     29  C   UNL     1      36.956 -19.430 -20.348  0.00  0.00    -0.000 C 
ATOM     30  C   UNL     1      35.923 -18.556 -20.684  0.00  0.00    -0.000 C 
ENDBRANCH  23  24
ENDBRANCH   4  23
TORSDOF 4
ENDMDL
