MODEL 1
REMARK VINA RESULT:     -12.7      0.000      0.000
REMARK  Name = 5289110
REMARK  6 active torsions:
REMARK  status: ('A' for Active; 'I' for Inactive)
REMARK    1  A    between atoms: C_3  and  C_9
REMARK    2  A    between atoms: C_4  and  C_22
REMARK    3  A    between atoms: N_8  and  C_11
REMARK    4  A    between atoms: C_11  and  C_13
REMARK    5  A    between atoms: N_21  and  C_24
REMARK    6  A    between atoms: C_24  and  C_26
REMARK                            x       y       z     vdW  Elec       q    Type
REMARK                         _______ _______ _______ _____ _____    ______ ____
ROOT
ATOM      1  N   UNL     1      34.693 -19.758 -23.193  0.00  0.00    -0.244 NA
ATOM      2  N   UNL     1      33.830 -18.154 -24.771  0.00  0.00    -0.244 NA
ATOM      3  C   UNL     1      35.167 -18.729 -22.462  0.00  0.00    +0.115 C 
ATOM      4  C   UNL     1      34.337 -17.204 -23.981  0.00  0.00    +0.115 C 
ATOM      5  C   UNL     1      35.015 -17.403 -22.815  0.00  0.00    +0.100 C 
ATOM      6  C   UNL     1      34.045 -19.404 -24.319  0.00  0.00    +0.250 C 
ENDROOT
BRANCH   3   9
ATOM      7  O   UNL     1      36.485 -18.228 -20.588  0.00  0.00    -0.269 OA
ATOM      8  N   UNL     1      35.800 -20.428 -20.841  0.00  0.00    -0.296 N 
ATOM      9  C   UNL     1      35.870 -19.089 -21.243  0.00  0.00    +0.260 C 
ATOM     10  H   UNL     1      35.297 -21.058 -21.405  0.00  0.00    +0.150 HD
BRANCH   8  11
ATOM     11  C   UNL     1      36.426 -20.937 -19.641  0.00  0.00    +0.117 C 
BRANCH  11  13
ATOM     12  F   UNL     1      32.801 -23.822 -16.455  0.00  0.00    -0.205 F 
ATOM     13  C   UNL     1      35.459 -21.707 -18.788  0.00  0.00    -0.003 C 
ATOM     14  C   UNL     1      35.874 -22.208 -17.559  0.00  0.00    -0.005 C 
ATOM     15  C   UNL     1      34.976 -22.923 -16.767  0.00  0.00    +0.005 C 
ATOM     16  C   UNL     1      34.159 -21.913 -19.236  0.00  0.00    -0.000 C 
ATOM     17  C   UNL     1      33.670 -23.134 -17.209  0.00  0.00    +0.136 C 
ATOM     18  C   UNL     1      33.262 -22.628 -18.443  0.00  0.00    +0.029 C 
ATOM     19  C   UNL     1      35.416 -23.462 -15.447  0.00  0.00    +0.033 C 
ENDBRANCH  11  13
ENDBRANCH   8  11
ENDBRANCH   3   9
BRANCH   4  22
ATOM     20  O   UNL     1      33.859 -15.627 -25.650  0.00  0.00    -0.269 OA
ATOM     21  N   UNL     1      34.187 -14.819 -23.501  0.00  0.00    -0.296 N 
ATOM     22  C   UNL     1      34.113 -15.816 -24.463  0.00  0.00    +0.260 C 
ATOM     23  H   UNL     1      34.397 -15.070 -22.573  0.00  0.00    +0.150 HD
BRANCH  21  24
ATOM     24  C   UNL     1      33.970 -13.428 -23.809  0.00  0.00    +0.117 C 
BRANCH  24  26
ATOM     25  F   UNL     1      30.602 -10.926 -20.067  0.00  0.00    -0.205 F 
ATOM     26  C   UNL     1      33.076 -12.761 -22.817  0.00  0.00    -0.003 C 
ATOM     27  C   UNL     1      32.686 -11.436 -23.010  0.00  0.00    -0.005 C 
ATOM     28  C   UNL     1      31.850 -10.813 -22.083  0.00  0.00    +0.005 C 
ATOM     29  C   UNL     1      32.630 -13.463 -21.698  0.00  0.00    -0.000 C 
ATOM     30  C   UNL     1      31.405 -11.516 -20.963  0.00  0.00    +0.136 C 
ATOM     31  C   UNL     1      31.795 -12.841 -20.771  0.00  0.00    +0.029 C 
ATOM     32  C   UNL     1      31.434  -9.396 -22.292  0.00  0.00    +0.033 C 
ENDBRANCH  24  26
ENDBRANCH  21  24
ENDBRANCH   4  22
TORSDOF 6
ENDMDL
MODEL 2
REMARK VINA RESULT:     -12.6      0.065      9.720
REMARK  Name = 5289110
REMARK  6 active torsions:
REMARK  status: ('A' for Active; 'I' for Inactive)
REMARK    1  A    between atoms: C_3  and  C_9
REMARK    2  A    between atoms: C_4  and  C_22
REMARK    3  A    between atoms: N_8  and  C_11
REMARK    4  A    between atoms: C_11  and  C_13
REMARK    5  A    between atoms: N_21  and  C_24
REMARK    6  A    between atoms: C_24  and  C_26
REMARK                            x       y       z     vdW  Elec       q    Type
REMARK                         _______ _______ _______ _____ _____    ______ ____
ROOT
ATOM      1  N   UNL     1      33.797 -18.198 -24.761  0.00  0.00    -0.244 NA
ATOM      2  N   UNL     1      34.664 -19.800 -23.183  0.00  0.00    -0.244 NA
ATOM      3  C   UNL     1      34.307 -17.217 -23.989  0.00  0.00    +0.115 C 
ATOM      4  C   UNL     1      35.133 -18.761 -22.487  0.00  0.00    +0.115 C 
ATOM      5  C   UNL     1      35.000 -17.445 -22.816  0.00  0.00    +0.100 C 
ATOM      6  C   UNL     1      34.008 -19.447 -24.305  0.00  0.00    +0.250 C 
ENDROOT
BRANCH   3   9
ATOM      7  O   UNL     1      33.838 -15.641 -25.660  0.00  0.00    -0.269 OA
ATOM      8  N   UNL     1      34.159 -14.836 -23.510  0.00  0.00    -0.296 N 
ATOM      9  C   UNL     1      34.091 -15.861 -24.462  0.00  0.00    +0.260 C 
ATOM     10  H   UNL     1      34.364 -15.080 -22.578  0.00  0.00    +0.150 HD
BRANCH   8  11
ATOM     11  C   UNL     1      33.945 -13.441 -23.819  0.00  0.00    +0.117 C 
BRANCH  11  13
ATOM     12  F   UNL     1      30.725 -10.915 -19.964  0.00  0.00    -0.205 F 
ATOM     13  C   UNL     1      33.085 -12.764 -22.791  0.00  0.00    -0.003 C 
ATOM     14  C   UNL     1      32.727 -11.432 -22.962  0.00  0.00    -0.005 C 
ATOM     15  C   UNL     1      31.928 -10.803 -22.008  0.00  0.00    +0.005 C 
ATOM     16  C   UNL     1      32.655 -13.476 -21.677  0.00  0.00    -0.000 C 
ATOM     17  C   UNL     1      31.492 -11.511 -20.887  0.00  0.00    +0.136 C 
ATOM     18  C   UNL     1      31.856 -12.848 -20.723  0.00  0.00    +0.029 C 
ATOM     19  C   UNL     1      31.540  -9.374 -22.188  0.00  0.00    +0.033 C 
ENDBRANCH  11  13
ENDBRANCH   8  11
ENDBRANCH   3   9
BRANCH   4  22
ATOM     20  O   UNL     1      36.455 -18.256 -20.617  0.00  0.00    -0.269 OA
ATOM     21  N   UNL     1      35.783 -20.462 -20.867  0.00  0.00    -0.296 N 
ATOM     22  C   UNL     1      35.859 -19.129 -21.244  0.00  0.00    +0.260 C 
ATOM     23  H   UNL     1      35.279 -21.088 -21.436  0.00  0.00    +0.150 HD
BRANCH  21  24
ATOM     24  C   UNL     1      36.414 -20.967 -19.674  0.00  0.00    +0.117 C 
BRANCH  24  26
ATOM     25  F   UNL     1      32.822 -23.807 -16.411  0.00  0.00    -0.205 F 
ATOM     26  C   UNL     1      35.463 -21.721 -18.806  0.00  0.00    -0.003 C 
ATOM     27  C   UNL     1      35.880 -22.198 -17.563  0.00  0.00    -0.005 C 
ATOM     28  C   UNL     1      34.991 -22.903 -16.752  0.00  0.00    +0.005 C 
ATOM     29  C   UNL     1      34.156 -21.949 -19.236  0.00  0.00    -0.000 C 
ATOM     30  C   UNL     1      33.684 -23.131 -17.184  0.00  0.00    +0.136 C 
ATOM     31  C   UNL     1      33.267 -22.654 -18.426  0.00  0.00    +0.029 C 
ATOM     32  C   UNL     1      35.440 -23.411 -15.423  0.00  0.00    +0.033 C 
ENDBRANCH  24  26
ENDBRANCH  21  24
ENDBRANCH   4  22
TORSDOF 6
ENDMDL
MODEL 3
REMARK VINA RESULT:     -12.3      1.662      2.505
REMARK  Name = 5289110
REMARK  6 active torsions:
REMARK  status: ('A' for Active; 'I' for Inactive)
REMARK    1  A    between atoms: C_3  and  C_9
REMARK    2  A    between atoms: C_4  and  C_22
REMARK    3  A    between atoms: N_8  and  C_11
REMARK    4  A    between atoms: C_11  and  C_13
REMARK    5  A    between atoms: N_21  and  C_24
REMARK    6  A    between atoms: C_24  and  C_26
REMARK                            x       y       z     vdW  Elec       q    Type
REMARK                         _______ _______ _______ _____ _____    ______ ____
ROOT
ATOM      1  N   UNL     1      34.511 -17.777 -23.977  0.00  0.00    -0.244 NA
ATOM      2  N   UNL     1      33.520 -16.029 -25.307  0.00  0.00    -0.244 NA
ATOM      3  C   UNL     1      34.780 -16.854 -23.031  0.00  0.00    +0.115 C 
ATOM      4  C   UNL     1      33.829 -15.190 -24.315  0.00  0.00    +0.115 C 
ATOM      5  C   UNL     1      34.454 -15.517 -23.149  0.00  0.00    +0.100 C 
ATOM      6  C   UNL     1      33.889 -17.302 -25.073  0.00  0.00    +0.250 C 
ENDROOT
BRANCH   3   9
ATOM      7  O   UNL     1      35.260 -16.802 -20.736  0.00  0.00    -0.269 OA
ATOM      8  N   UNL     1      36.290 -18.455 -21.993  0.00  0.00    -0.296 N 
ATOM      9  C   UNL     1      35.450 -17.344 -21.839  0.00  0.00    +0.260 C 
ATOM     10  H   UNL     1      36.396 -18.836 -22.895  0.00  0.00    +0.150 HD
BRANCH   8  11
ATOM     11  C   UNL     1      37.007 -19.073 -20.902  0.00  0.00    +0.117 C 
BRANCH  11  13
ATOM     12  F   UNL     1      33.926 -22.984 -18.292  0.00  0.00    -0.205 F 
ATOM     13  C   UNL     1      36.182 -20.117 -20.207  0.00  0.00    -0.003 C 
ATOM     14  C   UNL     1      34.807 -20.150 -20.403  0.00  0.00    -0.005 C 
ATOM     15  C   UNL     1      34.040 -21.120 -19.757  0.00  0.00    +0.005 C 
ATOM     16  C   UNL     1      36.802 -21.040 -19.372  0.00  0.00    -0.000 C 
ATOM     17  C   UNL     1      34.654 -22.050 -18.918  0.00  0.00    +0.136 C 
ATOM     18  C   UNL     1      36.035 -22.010 -18.726  0.00  0.00    +0.029 C 
ATOM     19  C   UNL     1      32.563 -21.161 -19.966  0.00  0.00    +0.033 C 
ENDBRANCH  11  13
ENDBRANCH   8  11
ENDBRANCH   3   9
BRANCH   4  22
ATOM     20  O   UNL     1      33.335 -13.370 -25.709  0.00  0.00    -0.269 OA
ATOM     21  N   UNL     1      33.170 -13.019 -23.423  0.00  0.00    -0.296 N 
ATOM     22  C   UNL     1      33.431 -13.779 -24.554  0.00  0.00    +0.260 C 
ATOM     23  H   UNL     1      33.275 -13.437 -22.538  0.00  0.00    +0.150 HD
BRANCH  21  24
ATOM     24  C   UNL     1      32.752 -11.642 -23.492  0.00  0.00    +0.117 C 
BRANCH  24  26
ATOM     25  F   UNL     1      31.202  -9.636 -18.475  0.00  0.00    -0.205 F 
ATOM     26  C   UNL     1      32.341 -11.107 -22.162  0.00  0.00    -0.003 C 
ATOM     27  C   UNL     1      32.334  -9.730 -21.935  0.00  0.00    -0.005 C 
ATOM     28  C   UNL     1      31.950  -9.231 -20.691  0.00  0.00    +0.005 C 
ATOM     29  C   UNL     1      31.963 -11.982 -21.144  0.00  0.00    -0.000 C 
ATOM     30  C   UNL     1      31.573 -10.107 -19.674  0.00  0.00    +0.136 C 
ATOM     31  C   UNL     1      31.580 -11.483 -19.900  0.00  0.00    +0.029 C 
ATOM     32  C   UNL     1      31.944  -7.758 -20.452  0.00  0.00    +0.033 C 
ENDBRANCH  24  26
ENDBRANCH  21  24
ENDBRANCH   4  22
TORSDOF 6
ENDMDL
MODEL 4
REMARK VINA RESULT:     -12.2      2.082      9.968
REMARK  Name = 5289110
REMARK  6 active torsions:
REMARK  status: ('A' for Active; 'I' for Inactive)
REMARK    1  A    between atoms: C_3  and  C_9
REMARK    2  A    between atoms: C_4  and  C_22
REMARK    3  A    between atoms: N_8  and  C_11
REMARK    4  A    between atoms: C_11  and  C_13
REMARK    5  A    between atoms: N_21  and  C_24
REMARK    6  A    between atoms: C_24  and  C_26
REMARK                            x       y       z     vdW  Elec       q    Type
REMARK                         _______ _______ _______ _____ _____    ______ ____
ROOT
ATOM      1  N   UNL     1      36.671 -18.679 -21.002  0.00  0.00    -0.244 NA
ATOM      2  N   UNL     1      36.022 -20.579 -19.669  0.00  0.00    -0.244 NA
ATOM      3  C   UNL     1      35.417 -18.644 -21.496  0.00  0.00    +0.115 C 
ATOM      4  C   UNL     1      34.808 -20.462 -20.214  0.00  0.00    +0.115 C 
ATOM      5  C   UNL     1      34.422 -19.529 -21.130  0.00  0.00    +0.100 C 
ATOM      6  C   UNL     1      36.901 -19.658 -20.107  0.00  0.00    +0.250 C 
ENDROOT
BRANCH   3   9
ATOM      7  O   UNL     1      35.016 -17.864 -23.671  0.00  0.00    -0.269 OA
ATOM      8  N   UNL     1      35.021 -16.290 -21.969  0.00  0.00    -0.296 N 
ATOM      9  C   UNL     1      35.146 -17.594 -22.464  0.00  0.00    +0.260 C 
ATOM     10  H   UNL     1      35.136 -16.146 -21.002  0.00  0.00    +0.150 HD
BRANCH   8  11
ATOM     11  C   UNL     1      34.731 -15.144 -22.800  0.00  0.00    +0.117 C 
BRANCH  11  13
ATOM     12  F   UNL     1      31.131 -11.615 -20.311  0.00  0.00    -0.205 F 
ATOM     13  C   UNL     1      33.769 -14.200 -22.138  0.00  0.00    -0.003 C 
ATOM     14  C   UNL     1      33.420 -13.014 -22.774  0.00  0.00    -0.005 C 
ATOM     15  C   UNL     1      32.526 -12.137 -22.159  0.00  0.00    +0.005 C 
ATOM     16  C   UNL     1      33.238 -14.520 -20.894  0.00  0.00    -0.000 C 
ATOM     17  C   UNL     1      31.988 -12.452 -20.910  0.00  0.00    +0.136 C 
ATOM     18  C   UNL     1      32.344 -13.643 -20.279  0.00  0.00    +0.029 C 
ATOM     19  C   UNL     1      32.147 -10.865 -22.838  0.00  0.00    +0.033 C 
ENDBRANCH  11  13
ENDBRANCH   8  11
ENDBRANCH   3   9
BRANCH   4  22
ATOM     20  O   UNL     1      32.636 -21.326 -20.032  0.00  0.00    -0.269 OA
ATOM     21  N   UNL     1      34.338 -22.536 -19.023  0.00  0.00    -0.296 N 
ATOM     22  C   UNL     1      33.822 -21.470 -19.746  0.00  0.00    +0.260 C 
ATOM     23  H   UNL     1      35.306 -22.563 -18.844  0.00  0.00    +0.150 HD
BRANCH  21  24
ATOM     24  C   UNL     1      33.512 -23.605 -18.522  0.00  0.00    +0.117 C 
BRANCH  24  26
ATOM     25  F   UNL     1      32.576 -23.165 -12.996  0.00  0.00    -0.205 F 
ATOM     26  C   UNL     1      33.261 -23.488 -17.056  0.00  0.00    -0.003 C 
ATOM     27  C   UNL     1      31.955 -23.378 -16.578  0.00  0.00    -0.005 C 
ATOM     28  C   UNL     1      31.720 -23.269 -15.208  0.00  0.00    +0.005 C 
ATOM     29  C   UNL     1      34.331 -23.490 -16.162  0.00  0.00    -0.000 C 
ATOM     30  C   UNL     1      32.791 -23.270 -14.315  0.00  0.00    +0.136 C 
ATOM     31  C   UNL     1      34.097 -23.380 -14.792  0.00  0.00    +0.029 C 
ATOM     32  C   UNL     1      30.322 -23.151 -14.701  0.00  0.00    +0.033 C 
ENDBRANCH  24  26
ENDBRANCH  21  24
ENDBRANCH   4  22
TORSDOF 6
ENDMDL
MODEL 5
REMARK VINA RESULT:     -12.1      5.956     10.995
REMARK  Name = 5289110
REMARK  6 active torsions:
REMARK  status: ('A' for Active; 'I' for Inactive)
REMARK    1  A    between atoms: C_3  and  C_9
REMARK    2  A    between atoms: C_4  and  C_22
REMARK    3  A    between atoms: N_8  and  C_11
REMARK    4  A    between atoms: C_11  and  C_13
REMARK    5  A    between atoms: N_21  and  C_24
REMARK    6  A    between atoms: C_24  and  C_26
REMARK                            x       y       z     vdW  Elec       q    Type
REMARK                         _______ _______ _______ _____ _____    ______ ____
ROOT
ATOM      1  N   UNL     1      37.947 -23.858 -14.787  0.00  0.00    -0.244 NA
ATOM      2  N   UNL     1      36.518 -24.864 -13.128  0.00  0.00    -0.244 NA
ATOM      3  C   UNL     1      36.905 -23.090 -15.166  0.00  0.00    +0.115 C 
ATOM      4  C   UNL     1      35.548 -24.060 -13.573  0.00  0.00    +0.115 C 
ATOM      5  C   UNL     1      35.656 -23.149 -14.581  0.00  0.00    +0.100 C 
ATOM      6  C   UNL     1      37.687 -24.711 -13.778  0.00  0.00    +0.250 C 
ENDROOT
BRANCH   3   9
ATOM      7  O   UNL     1      37.860 -21.147 -16.069  0.00  0.00    -0.269 OA
ATOM      8  N   UNL     1      36.616 -22.478 -17.503  0.00  0.00    -0.296 N 
ATOM      9  C   UNL     1      37.164 -22.162 -16.253  0.00  0.00    +0.260 C 
ATOM     10  H   UNL     1      36.075 -23.296 -17.580  0.00  0.00    +0.150 HD
BRANCH   8  11
ATOM     11  C   UNL     1      36.802 -21.669 -18.686  0.00  0.00    +0.117 C 
BRANCH  11  13
ATOM     12  F   UNL     1      31.904 -20.355 -21.112  0.00  0.00    -0.205 F 
ATOM     13  C   UNL     1      35.496 -21.317 -19.337  0.00  0.00    -0.003 C 
ATOM     14  C   UNL     1      35.483 -20.489 -20.453  0.00  0.00    -0.005 C 
ATOM     15  C   UNL     1      34.269 -20.162 -21.057  0.00  0.00    +0.005 C 
ATOM     16  C   UNL     1      34.310 -21.821 -18.814  0.00  0.00    -0.000 C 
ATOM     17  C   UNL     1      33.075 -20.665 -20.539  0.00  0.00    +0.136 C 
ATOM     18  C   UNL     1      33.096 -21.494 -19.419  0.00  0.00    +0.029 C 
ATOM     19  C   UNL     1      34.251 -19.276 -22.257  0.00  0.00    +0.033 C 
ENDBRANCH  11  13
ENDBRANCH   8  11
ENDBRANCH   3   9
BRANCH   4  22
ATOM     20  O   UNL     1      34.187 -24.930 -11.873  0.00  0.00    -0.269 OA
ATOM     21  N   UNL     1      33.182 -23.501 -13.398  0.00  0.00    -0.296 N 
ATOM     22  C   UNL     1      34.248 -24.215 -12.870  0.00  0.00    +0.260 C 
ATOM     23  H   UNL     1      33.331 -22.954 -14.203  0.00  0.00    +0.150 HD
BRANCH  21  24
ATOM     24  C   UNL     1      31.865 -23.528 -12.814  0.00  0.00    +0.117 C 
BRANCH  24  26
ATOM     25  F   UNL     1      27.967 -25.363 -16.426  0.00  0.00    -0.205 F 
ATOM     26  C   UNL     1      30.829 -24.012 -13.774  0.00  0.00    -0.003 C 
ATOM     27  C   UNL     1      30.016 -23.097 -14.443  0.00  0.00    -0.005 C 
ATOM     28  C   UNL     1      29.048 -23.551 -15.339  0.00  0.00    +0.005 C 
ATOM     29  C   UNL     1      30.675 -25.379 -14.002  0.00  0.00    -0.000 C 
ATOM     30  C   UNL     1      28.894 -24.918 -15.567  0.00  0.00    +0.136 C 
ATOM     31  C   UNL     1      29.707 -25.832 -14.897  0.00  0.00    +0.029 C 
ATOM     32  C   UNL     1      28.181 -22.569 -16.054  0.00  0.00    +0.033 C 
ENDBRANCH  24  26
ENDBRANCH  21  24
ENDBRANCH   4  22
TORSDOF 6
ENDMDL
MODEL 6
REMARK VINA RESULT:     -12.1      1.967     10.157
REMARK  Name = 5289110
REMARK  6 active torsions:
REMARK  status: ('A' for Active; 'I' for Inactive)
REMARK    1  A    between atoms: C_3  and  C_9
REMARK    2  A    between atoms: C_4  and  C_22
REMARK    3  A    between atoms: N_8  and  C_11
REMARK    4  A    between atoms: C_11  and  C_13
REMARK    5  A    between atoms: N_21  and  C_24
REMARK    6  A    between atoms: C_24  and  C_26
REMARK                            x       y       z     vdW  Elec       q    Type
REMARK                         _______ _______ _______ _____ _____    ______ ____
ROOT
ATOM      1  N   UNL     1      36.611 -18.711 -21.590  0.00  0.00    -0.244 NA
ATOM      2  N   UNL     1      36.061 -20.384 -19.945  0.00  0.00    -0.244 NA
ATOM      3  C   UNL     1      35.322 -18.730 -21.986  0.00  0.00    +0.115 C 
ATOM      4  C   UNL     1      34.809 -20.331 -20.406  0.00  0.00    +0.115 C 
ATOM      5  C   UNL     1      34.356 -19.536 -21.418  0.00  0.00    +0.100 C 
ATOM      6  C   UNL     1      36.907 -19.551 -20.580  0.00  0.00    +0.250 C 
ENDROOT
BRANCH   3   9
ATOM      7  O   UNL     1      34.442 -18.264 -24.109  0.00  0.00    -0.269 OA
ATOM      8  N   UNL     1      35.265 -16.472 -22.890  0.00  0.00    -0.296 N 
ATOM      9  C   UNL     1      34.981 -17.831 -23.075  0.00  0.00    +0.260 C 
ATOM     10  H   UNL     1      35.693 -16.197 -22.047  0.00  0.00    +0.150 HD
BRANCH   8  11
ATOM     11  C   UNL     1      34.966 -15.451 -23.869  0.00  0.00    +0.117 C 
BRANCH  11  13
ATOM     12  F   UNL     1      31.799 -11.331 -21.723  0.00  0.00    -0.205 F 
ATOM     13  C   UNL     1      34.120 -14.352 -23.292  0.00  0.00    -0.003 C 
ATOM     14  C   UNL     1      33.548 -14.510 -22.036  0.00  0.00    -0.005 C 
ATOM     15  C   UNL     1      32.763 -13.489 -21.501  0.00  0.00    +0.005 C 
ATOM     16  C   UNL     1      33.916 -13.187 -24.023  0.00  0.00    -0.000 C 
ATOM     17  C   UNL     1      32.553 -12.317 -22.228  0.00  0.00    +0.136 C 
ATOM     18  C   UNL     1      33.130 -12.166 -23.488  0.00  0.00    +0.029 C 
ATOM     19  C   UNL     1      32.148 -13.654 -20.151  0.00  0.00    +0.033 C 
ENDBRANCH  11  13
ENDBRANCH   8  11
ENDBRANCH   3   9
BRANCH   4  22
ATOM     20  O   UNL     1      32.663 -21.184 -19.996  0.00  0.00    -0.269 OA
ATOM     21  N   UNL     1      34.417 -22.133 -18.812  0.00  0.00    -0.296 N 
ATOM     22  C   UNL     1      33.859 -21.244 -19.720  0.00  0.00    +0.260 C 
ATOM     23  H   UNL     1      35.390 -22.104 -18.659  0.00  0.00    +0.150 HD
BRANCH  21  24
ATOM     24  C   UNL     1      33.630 -23.096 -18.086  0.00  0.00    +0.117 C 
BRANCH  24  26
ATOM     25  F   UNL     1      35.395 -23.720 -12.785  0.00  0.00    -0.205 F 
ATOM     26  C   UNL     1      34.096 -23.263 -16.678  0.00  0.00    -0.003 C 
ATOM     27  C   UNL     1      33.226 -23.766 -15.710  0.00  0.00    -0.005 C 
ATOM     28  C   UNL     1      33.662 -23.921 -14.394  0.00  0.00    +0.005 C 
ATOM     29  C   UNL     1      35.401 -22.916 -16.330  0.00  0.00    -0.000 C 
ATOM     30  C   UNL     1      34.967 -23.574 -14.047  0.00  0.00    +0.136 C 
ATOM     31  C   UNL     1      35.836 -23.071 -15.014  0.00  0.00    +0.029 C 
ATOM     32  C   UNL     1      32.729 -24.460 -13.362  0.00  0.00    +0.033 C 
ENDBRANCH  24  26
ENDBRANCH  21  24
ENDBRANCH   4  22
TORSDOF 6
ENDMDL
MODEL 7
REMARK VINA RESULT:     -12.1      2.085      3.223
REMARK  Name = 5289110
REMARK  6 active torsions:
REMARK  status: ('A' for Active; 'I' for Inactive)
REMARK    1  A    between atoms: C_3  and  C_9
REMARK    2  A    between atoms: C_4  and  C_22
REMARK    3  A    between atoms: N_8  and  C_11
REMARK    4  A    between atoms: C_11  and  C_13
REMARK    5  A    between atoms: N_21  and  C_24
REMARK    6  A    between atoms: C_24  and  C_26
REMARK                            x       y       z     vdW  Elec       q    Type
REMARK                         _______ _______ _______ _____ _____    ______ ____
ROOT
ATOM      1  N   UNL     1      36.037 -20.536 -19.686  0.00  0.00    -0.244 NA
ATOM      2  N   UNL     1      36.694 -18.624 -20.997  0.00  0.00    -0.244 NA
ATOM      3  C   UNL     1      34.807 -20.440 -20.230  0.00  0.00    +0.115 C 
ATOM      4  C   UNL     1      35.449 -18.611 -21.480  0.00  0.00    +0.115 C 
ATOM      5  C   UNL     1      34.449 -19.478 -21.152  0.00  0.00    +0.100 C 
ATOM      6  C   UNL     1      36.918 -19.609 -20.107  0.00  0.00    +0.250 C 
ENDROOT
BRANCH   3   9
ATOM      7  O   UNL     1      32.637 -21.318 -20.085  0.00  0.00    -0.269 OA
ATOM      8  N   UNL     1      34.331 -22.512 -19.046  0.00  0.00    -0.296 N 
ATOM      9  C   UNL     1      33.840 -21.431 -19.790  0.00  0.00    +0.260 C 
ATOM     10  H   UNL     1      35.295 -22.540 -18.847  0.00  0.00    +0.150 HD
BRANCH   8  11
ATOM     11  C   UNL     1      33.502 -23.589 -18.556  0.00  0.00    +0.117 C 
BRANCH  11  13
ATOM     12  F   UNL     1      32.487 -23.110 -13.047  0.00  0.00    -0.205 F 
ATOM     13  C   UNL     1      33.227 -23.462 -17.085  0.00  0.00    -0.003 C 
ATOM     14  C   UNL     1      31.916 -23.382 -16.634  0.00  0.00    -0.005 C 
ATOM     15  C   UNL     1      31.661 -23.263 -15.267  0.00  0.00    +0.005 C 
ATOM     16  C   UNL     1      34.290 -23.424 -16.189  0.00  0.00    -0.000 C 
ATOM     17  C   UNL     1      32.722 -23.225 -14.361  0.00  0.00    +0.136 C 
ATOM     18  C   UNL     1      34.035 -23.306 -14.823  0.00  0.00    +0.029 C 
ATOM     19  C   UNL     1      30.255 -23.178 -14.778  0.00  0.00    +0.033 C 
ENDBRANCH  11  13
ENDBRANCH   8  11
ENDBRANCH   3   9
BRANCH   4  22
ATOM     20  O   UNL     1      35.097 -17.810 -23.656  0.00  0.00    -0.269 OA
ATOM     21  N   UNL     1      35.016 -16.256 -21.936  0.00  0.00    -0.296 N 
ATOM     22  C   UNL     1      35.180 -17.529 -22.462  0.00  0.00    +0.260 C 
ATOM     23  H   UNL     1      35.101 -16.131 -20.963  0.00  0.00    +0.150 HD
BRANCH  21  24
ATOM     24  C   UNL     1      34.726 -15.109 -22.758  0.00  0.00    +0.117 C 
BRANCH  24  26
ATOM     25  F   UNL     1      31.107 -11.586 -20.289  0.00  0.00    -0.205 F 
ATOM     26  C   UNL     1      33.766 -14.172 -22.105  0.00  0.00    -0.003 C 
ATOM     27  C   UNL     1      33.398 -12.989 -22.748  0.00  0.00    -0.005 C 
ATOM     28  C   UNL     1      32.500 -12.114 -22.137  0.00  0.00    +0.005 C 
ATOM     29  C   UNL     1      33.235 -14.479 -20.853  0.00  0.00    -0.000 C 
ATOM     30  C   UNL     1      31.970 -12.421 -20.884  0.00  0.00    +0.136 C 
ATOM     31  C   UNL     1      32.338 -13.603 -20.242  0.00  0.00    +0.029 C 
ATOM     32  C   UNL     1      32.109 -10.851 -22.827  0.00  0.00    +0.033 C 
ENDBRANCH  24  26
ENDBRANCH  21  24
ENDBRANCH   4  22
TORSDOF 6
ENDMDL
MODEL 8
REMARK VINA RESULT:     -12.1      2.496     10.530
REMARK  Name = 5289110
REMARK  6 active torsions:
REMARK  status: ('A' for Active; 'I' for Inactive)
REMARK    1  A    between atoms: C_3  and  C_9
REMARK    2  A    between atoms: C_4  and  C_22
REMARK    3  A    between atoms: N_8  and  C_11
REMARK    4  A    between atoms: C_11  and  C_13
REMARK    5  A    between atoms: N_21  and  C_24
REMARK    6  A    between atoms: C_24  and  C_26
REMARK                            x       y       z     vdW  Elec       q    Type
REMARK                         _______ _______ _______ _____ _____    ______ ____
ROOT
ATOM      1  N   UNL     1      33.076 -13.796 -24.505  0.00  0.00    -0.244 NA
ATOM      2  N   UNL     1      34.006 -15.900 -25.225  0.00  0.00    -0.244 NA
ATOM      3  C   UNL     1      33.361 -14.148 -23.234  0.00  0.00    +0.115 C 
ATOM      4  C   UNL     1      34.249 -16.157 -23.937  0.00  0.00    +0.115 C 
ATOM      5  C   UNL     1      33.961 -15.341 -22.884  0.00  0.00    +0.100 C 
ATOM      6  C   UNL     1      33.420 -14.706 -25.436  0.00  0.00    +0.250 C 
ENDROOT
BRANCH   3   9
ATOM      7  O   UNL     1      33.242 -13.403 -21.014  0.00  0.00    -0.269 OA
ATOM      8  N   UNL     1      32.392 -11.994 -22.647  0.00  0.00    -0.296 N 
ATOM      9  C   UNL     1      32.999 -13.180 -22.213  0.00  0.00    +0.260 C 
ATOM     10  H   UNL     1      32.229 -11.882 -23.611  0.00  0.00    +0.150 HD
BRANCH   8  11
ATOM     11  C   UNL     1      31.995 -10.927 -21.758  0.00  0.00    +0.117 C 
BRANCH  11  13
ATOM     12  F   UNL     1      34.279  -6.009 -23.242  0.00  0.00    -0.205 F 
ATOM     13  C   UNL     1      32.604  -9.612 -22.152  0.00  0.00    -0.003 C 
ATOM     14  C   UNL     1      32.262  -8.459 -21.456  0.00  0.00    -0.005 C 
ATOM     15  C   UNL     1      32.828  -7.237 -21.822  0.00  0.00    +0.005 C 
ATOM     16  C   UNL     1      33.504  -9.561 -23.210  0.00  0.00    -0.000 C 
ATOM     17  C   UNL     1      33.732  -7.178 -22.883  0.00  0.00    +0.136 C 
ATOM     18  C   UNL     1      34.070  -8.340 -23.576  0.00  0.00    +0.029 C 
ATOM     19  C   UNL     1      32.464  -5.997 -21.077  0.00  0.00    +0.033 C 
ENDBRANCH  11  13
ENDBRANCH   8  11
ENDBRANCH   3   9
BRANCH   4  22
ATOM     20  O   UNL     1      34.773 -18.370 -24.511  0.00  0.00    -0.269 OA
ATOM     21  N   UNL     1      35.623 -17.573 -22.506  0.00  0.00    -0.296 N 
ATOM     22  C   UNL     1      34.894 -17.471 -23.682  0.00  0.00    +0.260 C 
ATOM     23  H   UNL     1      35.662 -16.794 -21.904  0.00  0.00    +0.150 HD
BRANCH  21  24
ATOM     24  C   UNL     1      36.326 -18.773 -22.130  0.00  0.00    +0.117 C 
BRANCH  24  26
ATOM     25  F   UNL     1      33.295 -22.022 -18.686  0.00  0.00    -0.205 F 
ATOM     26  C   UNL     1      35.524 -19.636 -21.214  0.00  0.00    -0.003 C 
ATOM     27  C   UNL     1      36.165 -20.412 -20.248  0.00  0.00    -0.005 C 
ATOM     28  C   UNL     1      35.414 -21.219 -19.392  0.00  0.00    +0.005 C 
ATOM     29  C   UNL     1      34.134 -19.667 -21.324  0.00  0.00    -0.000 C 
ATOM     30  C   UNL     1      34.025 -21.250 -19.503  0.00  0.00    +0.136 C 
ATOM     31  C   UNL     1      33.384 -20.474 -20.470  0.00  0.00    +0.029 C 
ATOM     32  C   UNL     1      36.102 -22.047 -18.359  0.00  0.00    +0.033 C 
ENDBRANCH  24  26
ENDBRANCH  21  24
ENDBRANCH   4  22
TORSDOF 6
ENDMDL
MODEL 9
REMARK VINA RESULT:     -12.0      1.945      3.318
REMARK  Name = 5289110
REMARK  6 active torsions:
REMARK  status: ('A' for Active; 'I' for Inactive)
REMARK    1  A    between atoms: C_3  and  C_9
REMARK    2  A    between atoms: C_4  and  C_22
REMARK    3  A    between atoms: N_8  and  C_11
REMARK    4  A    between atoms: C_11  and  C_13
REMARK    5  A    between atoms: N_21  and  C_24
REMARK    6  A    between atoms: C_24  and  C_26
REMARK                            x       y       z     vdW  Elec       q    Type
REMARK                         _______ _______ _______ _____ _____    ______ ____
ROOT
ATOM      1  N   UNL     1      35.986 -20.501 -19.838  0.00  0.00    -0.244 NA
ATOM      2  N   UNL     1      36.613 -18.867 -21.495  0.00  0.00    -0.244 NA
ATOM      3  C   UNL     1      34.717 -20.415 -20.286  0.00  0.00    +0.115 C 
ATOM      4  C   UNL     1      35.330 -18.852 -21.868  0.00  0.00    +0.115 C 
ATOM      5  C   UNL     1      34.323 -19.590 -21.320  0.00  0.00    +0.100 C 
ATOM      6  C   UNL     1      36.869 -19.711 -20.477  0.00  0.00    +0.250 C 
ENDROOT
BRANCH   3   9
ATOM      7  O   UNL     1      32.528 -21.077 -19.770  0.00  0.00    -0.269 OA
ATOM      8  N   UNL     1      34.253 -22.285 -18.801  0.00  0.00    -0.296 N 
ATOM      9  C   UNL     1      33.748 -21.259 -19.610  0.00  0.00    +0.260 C 
ATOM     10  H   UNL     1      35.229 -22.373 -18.718  0.00  0.00    +0.150 HD
BRANCH   8  11
ATOM     11  C   UNL     1      33.419 -23.221 -18.082  0.00  0.00    +0.117 C 
BRANCH  11  13
ATOM     12  F   UNL     1      35.044 -23.822 -12.733  0.00  0.00    -0.205 F 
ATOM     13  C   UNL     1      33.856 -23.380 -16.654  0.00  0.00    -0.003 C 
ATOM     14  C   UNL     1      35.193 -23.202 -16.319  0.00  0.00    -0.005 C 
ATOM     15  C   UNL     1      35.598 -23.349 -14.992  0.00  0.00    +0.005 C 
ATOM     16  C   UNL     1      32.918 -23.706 -15.680  0.00  0.00    -0.000 C 
ATOM     17  C   UNL     1      34.663 -23.676 -14.009  0.00  0.00    +0.136 C 
ATOM     18  C   UNL     1      33.323 -23.853 -14.354  0.00  0.00    +0.029 C 
ATOM     19  C   UNL     1      37.032 -23.157 -14.627  0.00  0.00    +0.033 C 
ENDBRANCH  11  13
ENDBRANCH   8  11
ENDBRANCH   3   9
BRANCH   4  22
ATOM     20  O   UNL     1      34.535 -18.375 -24.022  0.00  0.00    -0.269 OA
ATOM     21  N   UNL     1      35.304 -16.585 -22.764  0.00  0.00    -0.296 N 
ATOM     22  C   UNL     1      35.025 -17.926 -22.989  0.00  0.00    +0.260 C 
ATOM     23  H   UNL     1      35.698 -16.322 -21.901  0.00  0.00    +0.150 HD
BRANCH  21  24
ATOM     24  C   UNL     1      35.041 -15.563 -23.745  0.00  0.00    +0.117 C 
BRANCH  24  26
ATOM     25  F   UNL     1      31.786 -11.444 -21.735  0.00  0.00    -0.205 F 
ATOM     26  C   UNL     1      34.177 -14.471 -23.209  0.00  0.00    -0.003 C 
ATOM     27  C   UNL     1      33.597 -14.597 -21.947  0.00  0.00    -0.005 C 
ATOM     28  C   UNL     1      32.788 -13.576 -21.446  0.00  0.00    +0.005 C 
ATOM     29  C   UNL     1      33.950 -13.325 -23.969  0.00  0.00    -0.000 C 
ATOM     30  C   UNL     1      32.561 -12.430 -22.208  0.00  0.00    +0.136 C 
ATOM     31  C   UNL     1      33.141 -12.305 -23.470  0.00  0.00    +0.029 C 
ATOM     32  C   UNL     1      32.169 -13.714 -20.096  0.00  0.00    +0.033 C 
ENDBRANCH  24  26
ENDBRANCH  21  24
ENDBRANCH   4  22
TORSDOF 6
ENDMDL
