MODEL 1
REMARK VINA RESULT:     -11.9      0.000      0.000
REMARK  Name = 66000
REMARK  8 active torsions:
REMARK  status: ('A' for Active; 'I' for Inactive)
REMARK    1  A    between atoms: C_1  and  O_19
REMARK    2  A    between atoms: C_4  and  C_7
REMARK    3  A    between atoms: C_10  and  C_15
REMARK    4  A    between atoms: O_19  and  C_20
REMARK    5  A    between atoms: C_20  and  C_24
REMARK    6  A    between atoms: C_23  and  C_28
REMARK    7  A    between atoms: C_28  and  C_30
REMARK    8  A    between atoms: C_30  and  O_31
REMARK                            x       y       z     vdW  Elec       q    Type
REMARK                         _______ _______ _______ _____ _____    ______ ____
ROOT
ATOM      1  C   UNL     1      35.351 -22.423 -17.904  0.00  0.00    +0.139 C 
ATOM      2  C   UNL     1      36.471 -21.745 -18.369  0.00  0.00    +0.037 C 
ATOM      3  C   UNL     1      34.105 -22.219 -18.484  0.00  0.00    +0.037 C 
ATOM      4  C   UNL     1      35.096 -20.637 -20.017  0.00  0.00    +0.000 C 
ATOM      5  C   UNL     1      36.343 -20.849 -19.429  0.00  0.00    +0.003 C 
ATOM      6  C   UNL     1      33.976 -21.322 -19.543  0.00  0.00    +0.003 C 
ENDROOT
BRANCH   4   7
ATOM      7  C   UNL     1      34.962 -19.706 -21.116  0.00  0.00    +0.000 C 
ATOM      8  C   UNL     1      34.392 -20.124 -22.319  0.00  0.00    +0.000 C 
ATOM      9  C   UNL     1      35.402 -18.390 -20.974  0.00  0.00    +0.000 C 
ATOM     10  C   UNL     1      34.701 -17.911 -23.236  0.00  0.00    +0.031 C 
ATOM     11  C   UNL     1      34.261 -19.227 -23.379  0.00  0.00    +0.003 C 
ATOM     12  C   UNL     1      35.272 -17.492 -22.034  0.00  0.00    +0.003 C 
BRANCH  10  15
ATOM     13  N   UNL     1      35.485 -15.947 -24.539  0.00  0.00    -0.343 N 
ATOM     14  N   UNL     1      33.551 -17.090 -25.180  0.00  0.00    -0.285 NA
ATOM     15  C   UNL     1      34.566 -16.975 -24.341  0.00  0.00    +0.117 C 
ATOM     16  H   UNL     1      35.374 -15.325 -25.293  0.00  0.00    +0.144 HD
ATOM     17  H   UNL     1      36.246 -15.843 -23.923  0.00  0.00    +0.144 HD
ATOM     18  H   UNL     1      33.457 -16.459 -25.929  0.00  0.00    +0.188 HD
ENDBRANCH  10  15
ENDBRANCH   4   7
BRANCH   1  19
ATOM     19  O   UNL     1      35.477 -23.305 -16.860  0.00  0.00    -0.474 OA
BRANCH  19  20
ATOM     20  C   UNL     1      36.304 -22.909 -15.780  0.00  0.00    +0.225 C 
BRANCH  20  24
ATOM     21  O   UNL     1      36.796 -27.257 -15.426  0.00  0.00    -0.275 OA
ATOM     22  N   UNL     1      35.742 -25.193 -15.101  0.00  0.00    -0.302 N 
ATOM     23  C   UNL     1      38.013 -25.325 -14.555  0.00  0.00    +0.089 C 
ATOM     24  C   UNL     1      36.093 -23.877 -14.624  0.00  0.00    +0.116 C 
ATOM     25  C   UNL     1      37.367 -24.140 -13.828  0.00  0.00    +0.033 C 
ATOM     26  C   UNL     1      36.808 -26.088 -15.071  0.00  0.00    +0.223 C 
ATOM     27  H   UNL     1      34.840 -25.434 -15.415  0.00  0.00    +0.149 HD
BRANCH  23  28
ATOM     28  C   UNL     1      38.902 -26.164 -13.656  0.00  0.00    +0.118 C 
BRANCH  28  30
ATOM     29  O   UNL     1      41.232 -26.877 -13.706  0.00  0.00    -0.250 OA
ATOM     30  C   UNL     1      40.252 -26.421 -14.276  0.00  0.00    +0.314 C 
BRANCH  30  31
ATOM     31  O   UNL     1      40.237 -26.072 -15.588  0.00  0.00    -0.480 OA
ATOM     32  H   UNL     1      40.765 -25.359 -15.890  0.00  0.00    +0.295 HD
ENDBRANCH  30  31
ENDBRANCH  28  30
ENDBRANCH  23  28
ENDBRANCH  20  24
ENDBRANCH  19  20
ENDBRANCH   1  19
TORSDOF 8
ENDMDL
MODEL 2
REMARK VINA RESULT:     -11.8      1.449      2.012
REMARK  Name = 66000
REMARK  8 active torsions:
REMARK  status: ('A' for Active; 'I' for Inactive)
REMARK    1  A    between atoms: C_1  and  O_19
REMARK    2  A    between atoms: C_4  and  C_7
REMARK    3  A    between atoms: C_10  and  C_15
REMARK    4  A    between atoms: O_19  and  C_20
REMARK    5  A    between atoms: C_20  and  C_24
REMARK    6  A    between atoms: C_23  and  C_28
REMARK    7  A    between atoms: C_28  and  C_30
REMARK    8  A    between atoms: C_30  and  O_31
REMARK                            x       y       z     vdW  Elec       q    Type
REMARK                         _______ _______ _______ _____ _____    ______ ____
ROOT
ATOM      1  C   UNL     1      34.632 -22.503 -18.395  0.00  0.00    +0.139 C 
ATOM      2  C   UNL     1      35.844 -22.030 -18.883  0.00  0.00    +0.037 C 
ATOM      3  C   UNL     1      33.428 -22.010 -18.882  0.00  0.00    +0.037 C 
ATOM      4  C   UNL     1      34.648 -20.546 -20.367  0.00  0.00    +0.000 C 
ATOM      5  C   UNL     1      35.852 -21.048 -19.872  0.00  0.00    +0.003 C 
ATOM      6  C   UNL     1      33.436 -21.026 -19.871  0.00  0.00    +0.003 C 
ENDROOT
BRANCH   4   7
ATOM      7  C   UNL     1      34.656 -19.526 -21.393  0.00  0.00    +0.000 C 
ATOM      8  C   UNL     1      34.116 -19.798 -22.650  0.00  0.00    +0.000 C 
ATOM      9  C   UNL     1      35.203 -18.271 -21.126  0.00  0.00    +0.000 C 
ATOM     10  C   UNL     1      34.668 -17.560 -23.372  0.00  0.00    +0.031 C 
ATOM     11  C   UNL     1      34.122 -18.815 -23.640  0.00  0.00    +0.003 C 
ATOM     12  C   UNL     1      35.209 -17.288 -22.116  0.00  0.00    +0.003 C 
BRANCH  10  15
ATOM     13  N   UNL     1      35.608 -15.500 -24.393  0.00  0.00    -0.343 N 
ATOM     14  N   UNL     1      33.780 -16.573 -25.376  0.00  0.00    -0.285 NA
ATOM     15  C   UNL     1      34.675 -16.535 -24.404  0.00  0.00    +0.117 C 
ATOM     16  H   UNL     1      35.594 -14.817 -25.101  0.00  0.00    +0.144 HD
ATOM     17  H   UNL     1      36.280 -15.452 -23.676  0.00  0.00    +0.144 HD
ATOM     18  H   UNL     1      33.783 -15.881 -26.075  0.00  0.00    +0.188 HD
ENDBRANCH  10  15
ENDBRANCH   4   7
BRANCH   1  19
ATOM     19  O   UNL     1      34.624 -23.469 -17.420  0.00  0.00    -0.474 OA
BRANCH  19  20
ATOM     20  C   UNL     1      33.939 -23.165 -16.218  0.00  0.00    +0.225 C 
BRANCH  20  24
ATOM     21  O   UNL     1      34.294 -24.964 -12.229  0.00  0.00    -0.275 OA
ATOM     22  N   UNL     1      34.370 -23.238 -13.808  0.00  0.00    -0.302 N 
ATOM     23  C   UNL     1      35.526 -25.206 -14.327  0.00  0.00    +0.089 C 
ATOM     24  C   UNL     1      34.963 -22.999 -15.102  0.00  0.00    +0.116 C 
ATOM     25  C   UNL     1      36.075 -24.040 -15.157  0.00  0.00    +0.033 C 
ATOM     26  C   UNL     1      34.672 -24.496 -13.293  0.00  0.00    +0.223 C 
ATOM     27  H   UNL     1      33.809 -22.580 -13.339  0.00  0.00    +0.149 HD
BRANCH  23  28
ATOM     28  C   UNL     1      36.613 -26.062 -13.706  0.00  0.00    +0.118 C 
BRANCH  28  30
ATOM     29  O   UNL     1      36.706 -27.437 -15.715  0.00  0.00    -0.250 OA
ATOM     30  C   UNL     1      37.239 -26.998 -14.708  0.00  0.00    +0.314 C 
BRANCH  30  31
ATOM     31  O   UNL     1      38.512 -27.295 -14.337  0.00  0.00    -0.480 OA
ATOM     32  H   UNL     1      39.127 -26.607 -14.179  0.00  0.00    +0.295 HD
ENDBRANCH  30  31
ENDBRANCH  28  30
ENDBRANCH  23  28
ENDBRANCH  20  24
ENDBRANCH  19  20
ENDBRANCH   1  19
TORSDOF 8
ENDMDL
MODEL 3
REMARK VINA RESULT:     -11.6      1.348      2.072
REMARK  Name = 66000
REMARK  8 active torsions:
REMARK  status: ('A' for Active; 'I' for Inactive)
REMARK    1  A    between atoms: C_1  and  O_19
REMARK    2  A    between atoms: C_4  and  C_7
REMARK    3  A    between atoms: C_10  and  C_15
REMARK    4  A    between atoms: O_19  and  C_20
REMARK    5  A    between atoms: C_20  and  C_24
REMARK    6  A    between atoms: C_23  and  C_28
REMARK    7  A    between atoms: C_28  and  C_30
REMARK    8  A    between atoms: C_30  and  O_31
REMARK                            x       y       z     vdW  Elec       q    Type
REMARK                         _______ _______ _______ _____ _____    ______ ____
ROOT
ATOM      1  C   UNL     1      35.304 -22.299 -18.124  0.00  0.00    +0.139 C 
ATOM      2  C   UNL     1      34.055 -22.051 -18.682  0.00  0.00    +0.037 C 
ATOM      3  C   UNL     1      36.435 -21.642 -18.593  0.00  0.00    +0.037 C 
ATOM      4  C   UNL     1      35.066 -20.470 -20.202  0.00  0.00    +0.000 C 
ATOM      5  C   UNL     1      33.936 -21.134 -19.724  0.00  0.00    +0.003 C 
ATOM      6  C   UNL     1      36.316 -20.725 -19.637  0.00  0.00    +0.003 C 
ENDROOT
BRANCH   4   7
ATOM      7  C   UNL     1      34.943 -19.518 -21.285  0.00  0.00    +0.000 C 
ATOM      8  C   UNL     1      35.372 -18.203 -21.109  0.00  0.00    +0.000 C 
ATOM      9  C   UNL     1      34.396 -19.916 -22.505  0.00  0.00    +0.000 C 
ATOM     10  C   UNL     1      34.709 -17.683 -23.373  0.00  0.00    +0.031 C 
ATOM     11  C   UNL     1      35.255 -17.285 -22.154  0.00  0.00    +0.003 C 
ATOM     12  C   UNL     1      34.279 -18.998 -23.550  0.00  0.00    +0.003 C 
BRANCH  10  15
ATOM     13  N   UNL     1      35.522 -15.710 -24.644  0.00  0.00    -0.343 N 
ATOM     14  N   UNL     1      33.567 -16.810 -25.299  0.00  0.00    -0.285 NA
ATOM     15  C   UNL     1      34.586 -16.726 -24.462  0.00  0.00    +0.117 C 
ATOM     16  H   UNL     1      35.418 -15.073 -25.387  0.00  0.00    +0.144 HD
ATOM     17  H   UNL     1      36.285 -15.629 -24.028  0.00  0.00    +0.144 HD
ATOM     18  H   UNL     1      33.481 -16.163 -26.036  0.00  0.00    +0.188 HD
ENDBRANCH  10  15
ENDBRANCH   4   7
BRANCH   1  19
ATOM     19  O   UNL     1      35.421 -23.203 -17.098  0.00  0.00    -0.474 OA
BRANCH  19  20
ATOM     20  C   UNL     1      36.356 -22.900 -16.078  0.00  0.00    +0.225 C 
BRANCH  20  24
ATOM     21  O   UNL     1      36.375 -27.116 -14.854  0.00  0.00    -0.275 OA
ATOM     22  N   UNL     1      35.500 -24.955 -15.059  0.00  0.00    -0.302 N 
ATOM     23  C   UNL     1      37.673 -25.147 -14.213  0.00  0.00    +0.089 C 
ATOM     24  C   UNL     1      35.925 -23.601 -14.797  0.00  0.00    +0.116 C 
ATOM     25  C   UNL     1      37.071 -23.796 -13.810  0.00  0.00    +0.033 C 
ATOM     26  C   UNL     1      36.463 -25.904 -14.726  0.00  0.00    +0.223 C 
ATOM     27  H   UNL     1      34.619 -25.184 -15.434  0.00  0.00    +0.149 HD
BRANCH  23  28
ATOM     28  C   UNL     1      38.370 -25.856 -13.068  0.00  0.00    +0.118 C 
BRANCH  28  30
ATOM     29  O   UNL     1      37.780 -24.861 -10.923  0.00  0.00    -0.250 OA
ATOM     30  C   UNL     1      37.610 -25.722 -11.772  0.00  0.00    +0.314 C 
BRANCH  30  31
ATOM     31  O   UNL     1      36.685 -26.711 -11.670  0.00  0.00    -0.480 OA
ATOM     32  H   UNL     1      36.939 -27.605 -11.790  0.00  0.00    +0.295 HD
ENDBRANCH  30  31
ENDBRANCH  28  30
ENDBRANCH  23  28
ENDBRANCH  20  24
ENDBRANCH  19  20
ENDBRANCH   1  19
TORSDOF 8
ENDMDL
MODEL 4
REMARK VINA RESULT:     -10.7      4.084     10.888
REMARK  Name = 66000
REMARK  8 active torsions:
REMARK  status: ('A' for Active; 'I' for Inactive)
REMARK    1  A    between atoms: C_1  and  O_19
REMARK    2  A    between atoms: C_4  and  C_7
REMARK    3  A    between atoms: C_10  and  C_15
REMARK    4  A    between atoms: O_19  and  C_20
REMARK    5  A    between atoms: C_20  and  C_24
REMARK    6  A    between atoms: C_23  and  C_28
REMARK    7  A    between atoms: C_28  and  C_30
REMARK    8  A    between atoms: C_30  and  O_31
REMARK                            x       y       z     vdW  Elec       q    Type
REMARK                         _______ _______ _______ _____ _____    ______ ____
ROOT
ATOM      1  C   UNL     1      34.560 -21.532 -19.512  0.00  0.00    +0.139 C 
ATOM      2  C   UNL     1      35.835 -21.484 -18.960  0.00  0.00    +0.037 C 
ATOM      3  C   UNL     1      33.526 -22.191 -18.858  0.00  0.00    +0.037 C 
ATOM      4  C   UNL     1      35.047 -22.770 -17.073  0.00  0.00    +0.000 C 
ATOM      5  C   UNL     1      36.079 -22.106 -17.736  0.00  0.00    +0.003 C 
ATOM      6  C   UNL     1      33.771 -22.813 -17.635  0.00  0.00    +0.003 C 
ENDROOT
BRANCH   4   7
ATOM      7  C   UNL     1      35.300 -23.416 -15.804  0.00  0.00    +0.000 C 
ATOM      8  C   UNL     1      34.234 -23.863 -15.023  0.00  0.00    +0.000 C 
ATOM      9  C   UNL     1      36.611 -23.594 -15.360  0.00  0.00    +0.000 C 
ATOM     10  C   UNL     1      35.788 -24.664 -13.357  0.00  0.00    +0.031 C 
ATOM     11  C   UNL     1      34.477 -24.487 -13.799  0.00  0.00    +0.003 C 
ATOM     12  C   UNL     1      36.855 -24.218 -14.136  0.00  0.00    +0.003 C 
BRANCH  10  15
ATOM     13  N   UNL     1      37.263 -25.927 -11.808  0.00  0.00    -0.343 N 
ATOM     14  N   UNL     1      35.100 -25.334 -11.153  0.00  0.00    -0.285 NA
ATOM     15  C   UNL     1      36.042 -25.314 -12.080  0.00  0.00    +0.117 C 
ATOM     16  H   UNL     1      37.413 -26.362 -10.938  0.00  0.00    +0.144 HD
ATOM     17  H   UNL     1      37.976 -25.926 -12.487  0.00  0.00    +0.144 HD
ATOM     18  H   UNL     1      35.270 -25.773 -10.289  0.00  0.00    +0.188 HD
ENDBRANCH  10  15
ENDBRANCH   4   7
BRANCH   1  19
ATOM     19  O   UNL     1      34.320 -20.920 -20.717  0.00  0.00    -0.474 OA
BRANCH  19  20
ATOM     20  C   UNL     1      34.736 -19.573 -20.849  0.00  0.00    +0.225 C 
BRANCH  20  24
ATOM     21  O   UNL     1      33.432 -18.747 -24.958  0.00  0.00    -0.275 OA
ATOM     22  N   UNL     1      34.681 -19.805 -23.285  0.00  0.00    -0.302 N 
ATOM     23  C   UNL     1      34.634 -17.466 -23.259  0.00  0.00    +0.089 C 
ATOM     24  C   UNL     1      35.498 -19.423 -22.159  0.00  0.00    +0.116 C 
ATOM     25  C   UNL     1      35.852 -17.975 -22.479  0.00  0.00    +0.033 C 
ATOM     26  C   UNL     1      34.162 -18.715 -23.979  0.00  0.00    +0.223 C 
ATOM     27  H   UNL     1      34.509 -20.741 -23.538  0.00  0.00    +0.149 HD
BRANCH  23  28
ATOM     28  C   UNL     1      34.965 -16.329 -24.207  0.00  0.00    +0.118 C 
BRANCH  28  30
ATOM     29  O   UNL     1      33.489 -14.451 -23.720  0.00  0.00    -0.250 OA
ATOM     30  C   UNL     1      33.790 -15.407 -24.418  0.00  0.00    +0.314 C 
BRANCH  30  31
ATOM     31  O   UNL     1      33.090 -15.789 -25.518  0.00  0.00    -0.480 OA
ATOM     32  H   UNL     1      32.154 -15.812 -25.493  0.00  0.00    +0.295 HD
ENDBRANCH  30  31
ENDBRANCH  28  30
ENDBRANCH  23  28
ENDBRANCH  20  24
ENDBRANCH  19  20
ENDBRANCH   1  19
TORSDOF 8
ENDMDL
MODEL 5
REMARK VINA RESULT:     -10.7      4.570     10.735
REMARK  Name = 66000
REMARK  8 active torsions:
REMARK  status: ('A' for Active; 'I' for Inactive)
REMARK    1  A    between atoms: C_1  and  O_19
REMARK    2  A    between atoms: C_4  and  C_7
REMARK    3  A    between atoms: C_10  and  C_15
REMARK    4  A    between atoms: O_19  and  C_20
REMARK    5  A    between atoms: C_20  and  C_24
REMARK    6  A    between atoms: C_23  and  C_28
REMARK    7  A    between atoms: C_28  and  C_30
REMARK    8  A    between atoms: C_30  and  O_31
REMARK                            x       y       z     vdW  Elec       q    Type
REMARK                         _______ _______ _______ _____ _____    ______ ____
ROOT
ATOM      1  C   UNL     1      34.783 -20.883 -20.480  0.00  0.00    +0.139 C 
ATOM      2  C   UNL     1      33.422 -20.887 -20.197  0.00  0.00    +0.037 C 
ATOM      3  C   UNL     1      35.682 -21.551 -19.658  0.00  0.00    +0.037 C 
ATOM      4  C   UNL     1      33.850 -22.240 -18.243  0.00  0.00    +0.000 C 
ATOM      5  C   UNL     1      32.954 -21.568 -19.074  0.00  0.00    +0.003 C 
ATOM      6  C   UNL     1      35.214 -22.231 -18.534  0.00  0.00    +0.003 C 
ENDROOT
BRANCH   4   7
ATOM      7  C   UNL     1      33.364 -22.947 -17.077  0.00  0.00    +0.000 C 
ATOM      8  C   UNL     1      34.268 -23.471 -16.153  0.00  0.00    +0.000 C 
ATOM      9  C   UNL     1      31.993 -23.102 -16.875  0.00  0.00    +0.000 C 
ATOM     10  C   UNL     1      32.429 -24.306 -14.827  0.00  0.00    +0.031 C 
ATOM     11  C   UNL     1      33.801 -24.151 -15.028  0.00  0.00    +0.003 C 
ATOM     12  C   UNL     1      31.525 -23.782 -15.750  0.00  0.00    +0.003 C 
BRANCH  10  15
ATOM     13  N   UNL     1      30.598 -25.358 -13.520  0.00  0.00    -0.343 N 
ATOM     14  N   UNL     1      32.781 -25.343 -12.687  0.00  0.00    -0.285 NA
ATOM     15  C   UNL     1      31.942 -25.015 -13.654  0.00  0.00    +0.117 C 
ATOM     16  H   UNL     1      30.291 -25.838 -12.717  0.00  0.00    +0.144 HD
ATOM     17  H   UNL     1      29.957 -25.120 -14.227  0.00  0.00    +0.144 HD
ATOM     18  H   UNL     1      32.454 -25.823 -11.893  0.00  0.00    +0.188 HD
ENDBRANCH  10  15
ENDBRANCH   4   7
BRANCH   1  19
ATOM     19  O   UNL     1      35.244 -20.212 -21.585  0.00  0.00    -0.474 OA
BRANCH  19  20
ATOM     20  C   UNL     1      34.581 -19.008 -21.929  0.00  0.00    +0.225 C 
BRANCH  20  24
ATOM     21  O   UNL     1      34.688 -15.017 -23.755  0.00  0.00    -0.275 OA
ATOM     22  N   UNL     1      35.572 -17.062 -23.035  0.00  0.00    -0.302 N 
ATOM     23  C   UNL     1      34.303 -15.848 -21.489  0.00  0.00    +0.089 C 
ATOM     24  C   UNL     1      35.576 -17.859 -21.833  0.00  0.00    +0.116 C 
ATOM     25  C   UNL     1      35.210 -16.843 -20.757  0.00  0.00    +0.033 C 
ATOM     26  C   UNL     1      34.863 -15.871 -22.898  0.00  0.00    +0.223 C 
ATOM     27  H   UNL     1      36.024 -17.331 -23.867  0.00  0.00    +0.149 HD
BRANCH  23  28
ATOM     28  C   UNL     1      34.316 -14.462 -20.872  0.00  0.00    +0.118 C 
BRANCH  28  30
ATOM     29  O   UNL     1      32.091 -13.813 -20.116  0.00  0.00    -0.250 OA
ATOM     30  C   UNL     1      32.970 -13.788 -20.964  0.00  0.00    +0.314 C 
BRANCH  30  31
ATOM     31  O   UNL     1      32.859 -13.129 -22.146  0.00  0.00    -0.480 OA
ATOM     32  H   UNL     1      33.483 -13.281 -22.828  0.00  0.00    +0.295 HD
ENDBRANCH  30  31
ENDBRANCH  28  30
ENDBRANCH  23  28
ENDBRANCH  20  24
ENDBRANCH  19  20
ENDBRANCH   1  19
TORSDOF 8
ENDMDL
MODEL 6
REMARK VINA RESULT:     -10.5      6.132     11.860
REMARK  Name = 66000
REMARK  8 active torsions:
REMARK  status: ('A' for Active; 'I' for Inactive)
REMARK    1  A    between atoms: C_1  and  O_19
REMARK    2  A    between atoms: C_4  and  C_7
REMARK    3  A    between atoms: C_10  and  C_15
REMARK    4  A    between atoms: O_19  and  C_20
REMARK    5  A    between atoms: C_20  and  C_24
REMARK    6  A    between atoms: C_23  and  C_28
REMARK    7  A    between atoms: C_28  and  C_30
REMARK    8  A    between atoms: C_30  and  O_31
REMARK                            x       y       z     vdW  Elec       q    Type
REMARK                         _______ _______ _______ _____ _____    ______ ____
ROOT
ATOM      1  C   UNL     1      34.837 -17.438 -23.704  0.00  0.00    +0.139 C 
ATOM      2  C   UNL     1      34.240 -18.667 -23.960  0.00  0.00    +0.037 C 
ATOM      3  C   UNL     1      35.344 -17.142 -22.445  0.00  0.00    +0.037 C 
ATOM      4  C   UNL     1      34.653 -19.325 -21.673  0.00  0.00    +0.000 C 
ATOM      5  C   UNL     1      34.148 -19.613 -22.941  0.00  0.00    +0.003 C 
ATOM      6  C   UNL     1      35.250 -18.089 -21.425  0.00  0.00    +0.003 C 
ENDROOT
BRANCH   4   7
ATOM      7  C   UNL     1      34.557 -20.307 -20.615  0.00  0.00    +0.000 C 
ATOM      8  C   UNL     1      33.306 -20.708 -20.148  0.00  0.00    +0.000 C 
ATOM      9  C   UNL     1      35.716 -20.853 -20.062  0.00  0.00    +0.000 C 
ATOM     10  C   UNL     1      34.371 -22.202 -18.576  0.00  0.00    +0.031 C 
ATOM     11  C   UNL     1      33.213 -21.656 -19.128  0.00  0.00    +0.003 C 
ATOM     12  C   UNL     1      35.623 -21.801 -19.042  0.00  0.00    +0.003 C 
BRANCH  10  15
ATOM     13  N   UNL     1      34.970 -23.037 -16.315  0.00  0.00    -0.343 N 
ATOM     14  N   UNL     1      33.516 -24.260 -17.676  0.00  0.00    -0.285 NA
ATOM     15  C   UNL     1      34.274 -23.189 -17.512  0.00  0.00    +0.117 C 
ATOM     16  H   UNL     1      34.890 -23.719 -15.609  0.00  0.00    +0.144 HD
ATOM     17  H   UNL     1      35.542 -22.249 -16.176  0.00  0.00    +0.144 HD
ATOM     18  H   UNL     1      33.449 -24.930 -16.958  0.00  0.00    +0.188 HD
ENDBRANCH  10  15
ENDBRANCH   4   7
BRANCH   1  19
ATOM     19  O   UNL     1      34.927 -16.506 -24.708  0.00  0.00    -0.474 OA
BRANCH  19  20
ATOM     20  C   UNL     1      34.956 -15.144 -24.320  0.00  0.00    +0.225 C 
BRANCH  20  24
ATOM     21  O   UNL     1      32.737 -12.853 -21.303  0.00  0.00    -0.275 OA
ATOM     22  N   UNL     1      33.051 -14.522 -22.913  0.00  0.00    -0.302 N 
ATOM     23  C   UNL     1      33.635 -12.338 -23.517  0.00  0.00    +0.089 C 
ATOM     24  C   UNL     1      33.527 -14.620 -24.272  0.00  0.00    +0.116 C 
ATOM     25  C   UNL     1      33.402 -13.185 -24.773  0.00  0.00    +0.033 C 
ATOM     26  C   UNL     1      33.071 -13.220 -22.419  0.00  0.00    +0.223 C 
ATOM     27  H   UNL     1      32.742 -15.296 -22.389  0.00  0.00    +0.149 HD
BRANCH  23  28
ATOM     28  C   UNL     1      32.967 -10.978 -23.581  0.00  0.00    +0.118 C 
BRANCH  28  30
ATOM     29  O   UNL     1      33.643  -8.813 -22.689  0.00  0.00    -0.250 OA
ATOM     30  C   UNL     1      33.924  -9.861 -23.249  0.00  0.00    +0.314 C 
BRANCH  30  31
ATOM     31  O   UNL     1      35.177 -10.182 -23.664  0.00  0.00    -0.480 OA
ATOM     32  H   UNL     1      35.715  -9.534 -24.075  0.00  0.00    +0.295 HD
ENDBRANCH  30  31
ENDBRANCH  28  30
ENDBRANCH  23  28
ENDBRANCH  20  24
ENDBRANCH  19  20
ENDBRANCH   1  19
TORSDOF 8
ENDMDL
MODEL 7
REMARK VINA RESULT:     -10.5      6.178     11.311
REMARK  Name = 66000
REMARK  8 active torsions:
REMARK  status: ('A' for Active; 'I' for Inactive)
REMARK    1  A    between atoms: C_1  and  O_19
REMARK    2  A    between atoms: C_4  and  C_7
REMARK    3  A    between atoms: C_10  and  C_15
REMARK    4  A    between atoms: O_19  and  C_20
REMARK    5  A    between atoms: C_20  and  C_24
REMARK    6  A    between atoms: C_23  and  C_28
REMARK    7  A    between atoms: C_28  and  C_30
REMARK    8  A    between atoms: C_30  and  O_31
REMARK                            x       y       z     vdW  Elec       q    Type
REMARK                         _______ _______ _______ _____ _____    ______ ____
ROOT
ATOM      1  C   UNL     1      34.920 -17.179 -23.507  0.00  0.00    +0.139 C 
ATOM      2  C   UNL     1      34.346 -18.397 -23.850  0.00  0.00    +0.037 C 
ATOM      3  C   UNL     1      35.384 -16.949 -22.218  0.00  0.00    +0.037 C 
ATOM      4  C   UNL     1      34.696 -19.178 -21.592  0.00  0.00    +0.000 C 
ATOM      5  C   UNL     1      34.234 -19.400 -22.889  0.00  0.00    +0.003 C 
ATOM      6  C   UNL     1      35.271 -17.952 -21.256  0.00  0.00    +0.003 C 
ENDROOT
BRANCH   4   7
ATOM      7  C   UNL     1      34.579 -20.219 -20.593  0.00  0.00    +0.000 C 
ATOM      8  C   UNL     1      33.319 -20.640 -20.169  0.00  0.00    +0.000 C 
ATOM      9  C   UNL     1      35.727 -20.802 -20.055  0.00  0.00    +0.000 C 
ATOM     10  C   UNL     1      34.353 -22.227 -18.670  0.00  0.00    +0.031 C 
ATOM     11  C   UNL     1      33.206 -21.644 -19.207  0.00  0.00    +0.003 C 
ATOM     12  C   UNL     1      35.614 -21.807 -19.094  0.00  0.00    +0.003 C 
BRANCH  10  15
ATOM     13  N   UNL     1      34.825 -23.146 -16.411  0.00  0.00    -0.343 N 
ATOM     14  N   UNL     1      33.559 -24.376 -17.942  0.00  0.00    -0.285 NA
ATOM     15  C   UNL     1      34.235 -23.274 -17.667  0.00  0.00    +0.117 C 
ATOM     16  H   UNL     1      34.733 -23.867 -15.748  0.00  0.00    +0.144 HD
ATOM     17  H   UNL     1      35.335 -22.334 -16.189  0.00  0.00    +0.144 HD
ATOM     18  H   UNL     1      33.478 -25.086 -17.265  0.00  0.00    +0.188 HD
ENDBRANCH  10  15
ENDBRANCH   4   7
BRANCH   1  19
ATOM     19  O   UNL     1      35.030 -16.190 -24.454  0.00  0.00    -0.474 OA
BRANCH  19  20
ATOM     20  C   UNL     1      34.051 -15.167 -24.432  0.00  0.00    +0.225 C 
BRANCH  20  24
ATOM     21  O   UNL     1      32.944 -10.990 -23.655  0.00  0.00    -0.275 OA
ATOM     22  N   UNL     1      34.372 -12.844 -23.730  0.00  0.00    -0.302 N 
ATOM     23  C   UNL     1      32.302 -13.137 -22.677  0.00  0.00    +0.089 C 
ATOM     24  C   UNL     1      34.365 -14.217 -23.285  0.00  0.00    +0.116 C 
ATOM     25  C   UNL     1      33.288 -14.212 -22.205  0.00  0.00    +0.033 C 
ATOM     26  C   UNL     1      33.210 -12.154 -23.394  0.00  0.00    +0.223 C 
ATOM     27  H   UNL     1      35.122 -12.436 -24.220  0.00  0.00    +0.149 HD
BRANCH  23  28
ATOM     28  C   UNL     1      31.523 -12.500 -21.542  0.00  0.00    +0.118 C 
BRANCH  28  30
ATOM     29  O   UNL     1      32.156 -14.115 -19.830  0.00  0.00    -0.250 OA
ATOM     30  C   UNL     1      32.014 -12.957 -20.192  0.00  0.00    +0.314 C 
BRANCH  30  31
ATOM     31  O   UNL     1      32.288 -11.883 -19.407  0.00  0.00    -0.480 OA
ATOM     32  H   UNL     1      33.036 -11.894 -18.842  0.00  0.00    +0.295 HD
ENDBRANCH  30  31
ENDBRANCH  28  30
ENDBRANCH  23  28
ENDBRANCH  20  24
ENDBRANCH  19  20
ENDBRANCH   1  19
TORSDOF 8
ENDMDL
MODEL 8
REMARK VINA RESULT:     -10.3      5.518      9.436
REMARK  Name = 66000
REMARK  8 active torsions:
REMARK  status: ('A' for Active; 'I' for Inactive)
REMARK    1  A    between atoms: C_1  and  O_19
REMARK    2  A    between atoms: C_4  and  C_7
REMARK    3  A    between atoms: C_10  and  C_15
REMARK    4  A    between atoms: O_19  and  C_20
REMARK    5  A    between atoms: C_20  and  C_24
REMARK    6  A    between atoms: C_23  and  C_28
REMARK    7  A    between atoms: C_28  and  C_30
REMARK    8  A    between atoms: C_30  and  O_31
REMARK                            x       y       z     vdW  Elec       q    Type
REMARK                         _______ _______ _______ _____ _____    ______ ____
ROOT
ATOM      1  C   UNL     1      34.331 -15.783 -24.206  0.00  0.00    +0.139 C 
ATOM      2  C   UNL     1      34.653 -15.329 -22.933  0.00  0.00    +0.037 C 
ATOM      3  C   UNL     1      33.575 -15.001 -25.070  0.00  0.00    +0.037 C 
ATOM      4  C   UNL     1      33.452 -13.281 -23.378  0.00  0.00    +0.000 C 
ATOM      5  C   UNL     1      34.212 -14.073 -22.517  0.00  0.00    +0.003 C 
ATOM      6  C   UNL     1      33.133 -13.745 -24.654  0.00  0.00    +0.003 C 
ENDROOT
BRANCH   4   7
ATOM      7  C   UNL     1      32.994 -11.978 -22.947  0.00  0.00    +0.000 C 
ATOM      8  C   UNL     1      31.984 -11.876 -21.990  0.00  0.00    +0.000 C 
ATOM      9  C   UNL     1      33.562 -10.825 -23.487  0.00  0.00    +0.000 C 
ATOM     10  C   UNL     1      32.111  -9.467 -22.113  0.00  0.00    +0.031 C 
ATOM     11  C   UNL     1      31.542 -10.620 -21.573  0.00  0.00    +0.003 C 
ATOM     12  C   UNL     1      33.120  -9.568 -23.070  0.00  0.00    +0.003 C 
BRANCH  10  15
ATOM     13  N   UNL     1      31.841  -7.717 -20.371  0.00  0.00    -0.343 N 
ATOM     14  N   UNL     1      31.031  -7.361 -22.533  0.00  0.00    -0.285 NA
ATOM     15  C   UNL     1      31.650  -8.157 -21.679  0.00  0.00    +0.117 C 
ATOM     16  H   UNL     1      31.520  -6.827 -20.099  0.00  0.00    +0.144 HD
ATOM     17  H   UNL     1      32.297  -8.297 -19.719  0.00  0.00    +0.144 HD
ATOM     18  H   UNL     1      30.718  -6.474 -22.242  0.00  0.00    +0.188 HD
ENDBRANCH  10  15
ENDBRANCH   4   7
BRANCH   1  19
ATOM     19  O   UNL     1      34.765 -17.020 -24.615  0.00  0.00    -0.474 OA
BRANCH  19  20
ATOM     20  C   UNL     1      34.133 -18.147 -24.033  0.00  0.00    +0.225 C 
BRANCH  20  24
ATOM     21  O   UNL     1      36.537 -18.350 -20.365  0.00  0.00    -0.275 OA
ATOM     22  N   UNL     1      36.141 -18.470 -22.669  0.00  0.00    -0.302 N 
ATOM     23  C   UNL     1      34.698 -19.677 -21.277  0.00  0.00    +0.089 C 
ATOM     24  C   UNL     1      35.208 -19.117 -23.560  0.00  0.00    +0.116 C 
ATOM     25  C   UNL     1      34.652 -20.246 -22.699  0.00  0.00    +0.033 C 
ATOM     26  C   UNL     1      35.911 -18.767 -21.328  0.00  0.00    +0.223 C 
ATOM     27  H   UNL     1      36.865 -17.880 -22.977  0.00  0.00    +0.149 HD
BRANCH  23  28
ATOM     28  C   UNL     1      34.809 -20.748 -20.208  0.00  0.00    +0.118 C 
BRANCH  28  30
ATOM     29  O   UNL     1      32.400 -20.606 -19.867  0.00  0.00    -0.250 OA
ATOM     30  C   UNL     1      33.457 -21.198 -19.714  0.00  0.00    +0.314 C 
BRANCH  30  31
ATOM     31  O   UNL     1      33.570 -22.383 -19.061  0.00  0.00    -0.480 OA
ATOM     32  H   UNL     1      33.370 -22.436 -18.148  0.00  0.00    +0.295 HD
ENDBRANCH  30  31
ENDBRANCH  28  30
ENDBRANCH  23  28
ENDBRANCH  20  24
ENDBRANCH  19  20
ENDBRANCH   1  19
TORSDOF 8
ENDMDL
MODEL 9
REMARK VINA RESULT:     -10.0      8.927     12.896
REMARK  Name = 66000
REMARK  8 active torsions:
REMARK  status: ('A' for Active; 'I' for Inactive)
REMARK    1  A    between atoms: C_1  and  O_19
REMARK    2  A    between atoms: C_4  and  C_7
REMARK    3  A    between atoms: C_10  and  C_15
REMARK    4  A    between atoms: O_19  and  C_20
REMARK    5  A    between atoms: C_20  and  C_24
REMARK    6  A    between atoms: C_23  and  C_28
REMARK    7  A    between atoms: C_28  and  C_30
REMARK    8  A    between atoms: C_30  and  O_31
REMARK                            x       y       z     vdW  Elec       q    Type
REMARK                         _______ _______ _______ _____ _____    ______ ____
ROOT
ATOM      1  C   UNL     1      31.971 -12.019 -21.636  0.00  0.00    +0.139 C 
ATOM      2  C   UNL     1      31.531 -11.271 -20.550  0.00  0.00    +0.037 C 
ATOM      3  C   UNL     1      32.379 -11.398 -22.810  0.00  0.00    +0.037 C 
ATOM      4  C   UNL     1      31.904  -9.248 -21.816  0.00  0.00    +0.000 C 
ATOM      5  C   UNL     1      31.497  -9.880 -20.641  0.00  0.00    +0.003 C 
ATOM      6  C   UNL     1      32.344 -10.006 -22.900  0.00  0.00    +0.003 C 
ENDROOT
BRANCH   4   7
ATOM      7  C   UNL     1      31.868  -7.804 -21.910  0.00  0.00    +0.000 C 
ATOM      8  C   UNL     1      31.283  -7.192 -23.019  0.00  0.00    +0.000 C 
ATOM      9  C   UNL     1      32.418  -7.024 -20.892  0.00  0.00    +0.000 C 
ATOM     10  C   UNL     1      31.797  -5.021 -22.092  0.00  0.00    +0.031 C 
ATOM     11  C   UNL     1      31.248  -5.800 -23.110  0.00  0.00    +0.003 C 
ATOM     12  C   UNL     1      32.382  -5.632 -20.983  0.00  0.00    +0.003 C 
BRANCH  10  15
ATOM     13  N   UNL     1      31.588  -2.927 -23.411  0.00  0.00    -0.343 N 
ATOM     14  N   UNL     1      31.897  -2.835 -21.097  0.00  0.00    -0.285 NA
ATOM     15  C   UNL     1      31.760  -3.570 -22.187  0.00  0.00    +0.117 C 
ATOM     16  H   UNL     1      31.567  -1.944 -23.452  0.00  0.00    +0.144 HD
ATOM     17  H   UNL     1      31.488  -3.457 -24.235  0.00  0.00    +0.144 HD
ATOM     18  H   UNL     1      31.873  -1.854 -21.159  0.00  0.00    +0.188 HD
ENDBRANCH  10  15
ENDBRANCH   4   7
BRANCH   1  19
ATOM     19  O   UNL     1      32.004 -13.389 -21.547  0.00  0.00    -0.474 OA
BRANCH  19  20
ATOM     20  C   UNL     1      32.661 -13.944 -20.422  0.00  0.00    +0.225 C 
BRANCH  20  24
ATOM     21  O   UNL     1      35.251 -17.466 -20.827  0.00  0.00    -0.275 OA
ATOM     22  N   UNL     1      34.684 -15.297 -20.153  0.00  0.00    -0.302 N 
ATOM     23  C   UNL     1      34.317 -15.844 -22.399  0.00  0.00    +0.089 C 
ATOM     24  C   UNL     1      34.140 -14.101 -20.750  0.00  0.00    +0.116 C 
ATOM     25  C   UNL     1      34.399 -14.322 -22.236  0.00  0.00    +0.033 C 
ATOM     26  C   UNL     1      34.829 -16.344 -21.061  0.00  0.00    +0.223 C 
ATOM     27  H   UNL     1      34.928 -15.366 -19.203  0.00  0.00    +0.149 HD
BRANCH  23  28
ATOM     28  C   UNL     1      35.126 -16.365 -23.571  0.00  0.00    +0.118 C 
BRANCH  28  30
ATOM     29  O   UNL     1      33.753 -15.902 -25.531  0.00  0.00    -0.250 OA
ATOM     30  C   UNL     1      34.256 -16.701 -24.756  0.00  0.00    +0.314 C 
BRANCH  30  31
ATOM     31  O   UNL     1      34.100 -18.046 -24.853  0.00  0.00    -0.480 OA
ATOM     32  H   UNL     1      33.283 -18.442 -24.620  0.00  0.00    +0.295 HD
ENDBRANCH  30  31
ENDBRANCH  28  30
ENDBRANCH  23  28
ENDBRANCH  20  24
ENDBRANCH  19  20
ENDBRANCH   1  19
TORSDOF 8
ENDMDL
