MODEL 1
REMARK VINA RESULT:     -12.0      0.000      0.000
REMARK  Name = 25113615
REMARK  7 active torsions:
REMARK  status: ('A' for Active; 'I' for Inactive)
REMARK    1  A    between atoms: N_2  and  C_20
REMARK    2  A    between atoms: C_3  and  C_7
REMARK    3  A    between atoms: C_11  and  C_12
REMARK    4  A    between atoms: C_12  and  C_13
REMARK    5  A    between atoms: C_13  and  C_14
REMARK    6  A    between atoms: C_20  and  C_21
REMARK    7  A    between atoms: C_26  and  C_29
REMARK                            x       y       z     vdW  Elec       q    Type
REMARK                         _______ _______ _______ _____ _____    ______ ____
ROOT
ATOM      1  O   UNL     1      34.977 -24.229 -12.621  0.00  0.00    -0.273 OA
ATOM      2  N   UNL     1      33.393 -25.272 -13.971  0.00  0.00    -0.299 N 
ATOM      3  C   UNL     1      34.662 -24.822 -13.650  0.00  0.00    +0.241 C 
ATOM      4  H   UNL     1      33.263 -25.736 -14.829  0.00  0.00    +0.150 HD
ENDROOT
BRANCH   3   7
ATOM      5  O   UNL     1      36.822 -21.976 -16.137  0.00  0.00    -0.275 OA
ATOM      6  N   UNL     1      36.436 -23.952 -15.004  0.00  0.00    -0.273 N 
ATOM      7  C   UNL     1      35.668 -25.159 -14.709  0.00  0.00    +0.152 C 
ATOM      8  C   UNL     1      36.701 -26.148 -14.176  0.00  0.00    +0.031 C 
ATOM      9  C   UNL     1      37.750 -25.249 -13.526  0.00  0.00    +0.024 C 
ATOM     10  C   UNL     1      37.776 -24.032 -14.438  0.00  0.00    +0.094 C 
ATOM     11  C   UNL     1      36.068 -22.900 -15.826  0.00  0.00    +0.226 C 
BRANCH  11  12
ATOM     12  C   UNL     1      34.654 -22.932 -16.351  0.00  0.00    +0.090 C 
BRANCH  12  13
ATOM     13  C   UNL     1      34.632 -23.397 -17.800  0.00  0.00    +0.036 C 
BRANCH  13  14
ATOM     14  C   UNL     1      34.466 -22.267 -18.786  0.00  0.00    -0.022 C 
ATOM     15  C   UNL     1      35.588 -21.690 -19.381  0.00  0.00    -0.004 C 
ATOM     16  C   UNL     1      33.191 -21.798 -19.102  0.00  0.00    -0.004 C 
ATOM     17  C   UNL     1      35.436 -20.645 -20.294  0.00  0.00    -0.000 C 
ATOM     18  C   UNL     1      33.039 -20.753 -20.014  0.00  0.00    -0.000 C 
ATOM     19  C   UNL     1      34.161 -20.176 -20.609  0.00  0.00    -0.000 C 
ENDBRANCH  13  14
ENDBRANCH  12  13
ENDBRANCH  11  12
ENDBRANCH   3   7
BRANCH   2  20
ATOM     20  C   UNL     1      32.249 -25.094 -13.105  0.00  0.00    +0.116 C 
BRANCH  20  21
ATOM     21  C   UNL     1      31.042 -24.618 -13.861  0.00  0.00    -0.003 C 
ATOM     22  C   UNL     1      30.040 -25.522 -14.214  0.00  0.00    -0.003 C 
ATOM     23  C   UNL     1      30.924 -23.272 -14.213  0.00  0.00    -0.003 C 
ATOM     24  C   UNL     1      28.920 -25.080 -14.919  0.00  0.00    +0.002 C 
ATOM     25  C   UNL     1      29.804 -22.832 -14.917  0.00  0.00    +0.002 C 
ATOM     26  C   UNL     1      28.802 -23.736 -15.270  0.00  0.00    +0.031 C 
BRANCH  26  29
ATOM     27  N   UNL     1      26.683 -22.449 -15.408  0.00  0.00    -0.343 N 
ATOM     28  N   UNL     1      27.456 -23.646 -17.259  0.00  0.00    -0.285 NA
ATOM     29  C   UNL     1      27.633 -23.276 -16.003  0.00  0.00    +0.117 C 
ATOM     30  H   UNL     1      25.898 -22.150 -15.922  0.00  0.00    +0.144 HD
ATOM     31  H   UNL     1      26.794 -22.165 -14.472  0.00  0.00    +0.144 HD
ATOM     32  H   UNL     1      26.666 -23.336 -17.757  0.00  0.00    +0.188 HD
ENDBRANCH  26  29
ENDBRANCH  20  21
ENDBRANCH   2  20
TORSDOF 7
ENDMDL
MODEL 2
REMARK VINA RESULT:     -11.6      2.693      6.481
REMARK  Name = 25113615
REMARK  7 active torsions:
REMARK  status: ('A' for Active; 'I' for Inactive)
REMARK    1  A    between atoms: N_2  and  C_20
REMARK    2  A    between atoms: C_3  and  C_7
REMARK    3  A    between atoms: C_11  and  C_12
REMARK    4  A    between atoms: C_12  and  C_13
REMARK    5  A    between atoms: C_13  and  C_14
REMARK    6  A    between atoms: C_20  and  C_21
REMARK    7  A    between atoms: C_26  and  C_29
REMARK                            x       y       z     vdW  Elec       q    Type
REMARK                         _______ _______ _______ _____ _____    ______ ____
ROOT
ATOM      1  O   UNL     1      35.016 -25.143 -15.719  0.00  0.00    -0.273 OA
ATOM      2  N   UNL     1      34.592 -22.967 -16.432  0.00  0.00    -0.299 N 
ATOM      3  C   UNL     1      35.064 -23.927 -15.552  0.00  0.00    +0.241 C 
ATOM      4  H   UNL     1      34.688 -22.019 -16.186  0.00  0.00    +0.150 HD
ENDROOT
BRANCH   3   7
ATOM      5  O   UNL     1      34.701 -25.410 -11.475  0.00  0.00    -0.275 OA
ATOM      6  N   UNL     1      35.670 -24.322 -13.268  0.00  0.00    -0.273 N 
ATOM      7  C   UNL     1      35.689 -23.320 -14.332  0.00  0.00    +0.152 C 
ATOM      8  C   UNL     1      37.171 -23.042 -14.567  0.00  0.00    +0.031 C 
ATOM      9  C   UNL     1      37.843 -24.364 -14.201  0.00  0.00    +0.024 C 
ATOM     10  C   UNL     1      37.000 -24.870 -13.041  0.00  0.00    +0.094 C 
ATOM     11  C   UNL     1      34.608 -24.650 -12.442  0.00  0.00    +0.226 C 
BRANCH  11  12
ATOM     12  C   UNL     1      33.283 -24.015 -12.780  0.00  0.00    +0.090 C 
BRANCH  12  13
ATOM     13  C   UNL     1      32.235 -25.081 -13.061  0.00  0.00    +0.036 C 
BRANCH  13  14
ATOM     14  C   UNL     1      31.175 -24.633 -14.038  0.00  0.00    -0.022 C 
ATOM     15  C   UNL     1      29.956 -25.307 -14.102  0.00  0.00    -0.004 C 
ATOM     16  C   UNL     1      31.417 -23.547 -14.878  0.00  0.00    -0.004 C 
ATOM     17  C   UNL     1      28.976 -24.894 -15.005  0.00  0.00    -0.000 C 
ATOM     18  C   UNL     1      30.437 -23.134 -15.782  0.00  0.00    -0.000 C 
ATOM     19  C   UNL     1      29.217 -23.807 -15.845  0.00  0.00    -0.000 C 
ENDBRANCH  13  14
ENDBRANCH  12  13
ENDBRANCH  11  12
ENDBRANCH   3   7
BRANCH   2  20
ATOM     20  C   UNL     1      33.967 -23.291 -17.693  0.00  0.00    +0.116 C 
BRANCH  20  21
ATOM     21  C   UNL     1      34.206 -22.228 -18.727  0.00  0.00    -0.003 C 
ATOM     22  C   UNL     1      35.509 -21.902 -19.102  0.00  0.00    -0.003 C 
ATOM     23  C   UNL     1      33.125 -21.565 -19.310  0.00  0.00    -0.003 C 
ATOM     24  C   UNL     1      35.732 -20.913 -20.061  0.00  0.00    +0.002 C 
ATOM     25  C   UNL     1      33.349 -20.577 -20.268  0.00  0.00    +0.002 C 
ATOM     26  C   UNL     1      34.652 -20.251 -20.644  0.00  0.00    +0.031 C 
BRANCH  26  29
ATOM     27  N   UNL     1      35.354 -17.958 -21.288  0.00  0.00    -0.343 N 
ATOM     28  N   UNL     1      34.646 -19.475 -22.918  0.00  0.00    -0.285 NA
ATOM     29  C   UNL     1      34.885 -19.221 -21.643  0.00  0.00    +0.117 C 
ATOM     30  H   UNL     1      35.504 -17.275 -21.981  0.00  0.00    +0.144 HD
ATOM     31  H   UNL     1      35.535 -17.748 -20.344  0.00  0.00    +0.144 HD
ATOM     32  H   UNL     1      34.803 -18.779 -23.596  0.00  0.00    +0.188 HD
ENDBRANCH  26  29
ENDBRANCH  20  21
ENDBRANCH   2  20
TORSDOF 7
ENDMDL
MODEL 3
REMARK VINA RESULT:     -10.9      8.542     12.341
REMARK  Name = 25113615
REMARK  7 active torsions:
REMARK  status: ('A' for Active; 'I' for Inactive)
REMARK    1  A    between atoms: N_2  and  C_20
REMARK    2  A    between atoms: C_3  and  C_7
REMARK    3  A    between atoms: C_11  and  C_12
REMARK    4  A    between atoms: C_12  and  C_13
REMARK    5  A    between atoms: C_13  and  C_14
REMARK    6  A    between atoms: C_20  and  C_21
REMARK    7  A    between atoms: C_26  and  C_29
REMARK                            x       y       z     vdW  Elec       q    Type
REMARK                         _______ _______ _______ _____ _____    ______ ____
ROOT
ATOM      1  O   UNL     1      34.149 -15.259 -20.616  0.00  0.00    -0.273 OA
ATOM      2  N   UNL     1      32.919 -13.828 -21.980  0.00  0.00    -0.299 N 
ATOM      3  C   UNL     1      33.937 -14.724 -21.701  0.00  0.00    +0.241 C 
ATOM      4  H   UNL     1      32.851 -13.464 -22.892  0.00  0.00    +0.150 HD
ENDROOT
BRANCH   3   7
ATOM      5  O   UNL     1      34.324 -18.571 -23.701  0.00  0.00    -0.275 OA
ATOM      6  N   UNL     1      34.323 -16.270 -23.489  0.00  0.00    -0.273 N 
ATOM      7  C   UNL     1      34.783 -15.013 -22.904  0.00  0.00    +0.152 C 
ATOM      8  C   UNL     1      34.543 -13.974 -23.996  0.00  0.00    +0.031 C 
ATOM      9  C   UNL     1      33.344 -14.532 -24.759  0.00  0.00    +0.024 C 
ATOM     10  C   UNL     1      33.576 -16.034 -24.717  0.00  0.00    +0.094 C 
ATOM     11  C   UNL     1      34.640 -17.554 -23.079  0.00  0.00    +0.226 C 
BRANCH  11  12
ATOM     12  C   UNL     1      35.419 -17.667 -21.792  0.00  0.00    +0.090 C 
BRANCH  12  13
ATOM     13  C   UNL     1      36.130 -19.010 -21.713  0.00  0.00    +0.036 C 
BRANCH  13  14
ATOM     14  C   UNL     1      35.451 -19.991 -20.790  0.00  0.00    -0.022 C 
ATOM     15  C   UNL     1      34.059 -20.059 -20.746  0.00  0.00    -0.004 C 
ATOM     16  C   UNL     1      36.216 -20.831 -19.980  0.00  0.00    -0.004 C 
ATOM     17  C   UNL     1      33.430 -20.966 -19.893  0.00  0.00    -0.000 C 
ATOM     18  C   UNL     1      35.587 -21.738 -19.127  0.00  0.00    -0.000 C 
ATOM     19  C   UNL     1      34.194 -21.806 -19.083  0.00  0.00    -0.000 C 
ENDBRANCH  13  14
ENDBRANCH  12  13
ENDBRANCH  11  12
ENDBRANCH   3   7
BRANCH   2  20
ATOM     20  C   UNL     1      31.950 -13.402 -20.996  0.00  0.00    +0.116 C 
BRANCH  20  21
ATOM     21  C   UNL     1      32.008 -11.920 -20.757  0.00  0.00    -0.003 C 
ATOM     22  C   UNL     1      32.101 -11.044 -21.839  0.00  0.00    -0.003 C 
ATOM     23  C   UNL     1      31.970 -11.420 -19.455  0.00  0.00    -0.003 C 
ATOM     24  C   UNL     1      32.157  -9.668 -21.618  0.00  0.00    +0.002 C 
ATOM     25  C   UNL     1      32.026 -10.044 -19.235  0.00  0.00    +0.002 C 
ATOM     26  C   UNL     1      32.119  -9.168 -20.316  0.00  0.00    +0.031 C 
BRANCH  26  29
ATOM     27  N   UNL     1      31.305  -6.860 -20.735  0.00  0.00    -0.343 N 
ATOM     28  N   UNL     1      33.070  -7.235 -19.252  0.00  0.00    -0.285 NA
ATOM     29  C   UNL     1      32.176  -7.733 -20.087  0.00  0.00    +0.117 C 
ATOM     30  H   UNL     1      31.361  -5.892 -20.566  0.00  0.00    +0.144 HD
ATOM     31  H   UNL     1      30.634  -7.211 -21.364  0.00  0.00    +0.144 HD
ATOM     32  H   UNL     1      33.111  -6.264 -19.096  0.00  0.00    +0.188 HD
ENDBRANCH  26  29
ENDBRANCH  20  21
ENDBRANCH   2  20
TORSDOF 7
ENDMDL
MODEL 4
REMARK VINA RESULT:     -10.4      8.492     12.267
REMARK  Name = 25113615
REMARK  7 active torsions:
REMARK  status: ('A' for Active; 'I' for Inactive)
REMARK    1  A    between atoms: N_2  and  C_20
REMARK    2  A    between atoms: C_3  and  C_7
REMARK    3  A    between atoms: C_11  and  C_12
REMARK    4  A    between atoms: C_12  and  C_13
REMARK    5  A    between atoms: C_13  and  C_14
REMARK    6  A    between atoms: C_20  and  C_21
REMARK    7  A    between atoms: C_26  and  C_29
REMARK                            x       y       z     vdW  Elec       q    Type
REMARK                         _______ _______ _______ _____ _____    ______ ____
ROOT
ATOM      1  O   UNL     1      34.093 -15.521 -20.657  0.00  0.00    -0.273 OA
ATOM      2  N   UNL     1      33.038 -13.970 -22.037  0.00  0.00    -0.299 N 
ATOM      3  C   UNL     1      33.975 -14.944 -21.736  0.00  0.00    +0.241 C 
ATOM      4  H   UNL     1      33.042 -13.579 -22.941  0.00  0.00    +0.150 HD
ENDROOT
BRANCH   3   7
ATOM      5  O   UNL     1      34.397 -18.834 -23.645  0.00  0.00    -0.275 OA
ATOM      6  N   UNL     1      34.406 -16.529 -23.480  0.00  0.00    -0.273 N 
ATOM      7  C   UNL     1      34.857 -15.264 -22.905  0.00  0.00    +0.152 C 
ATOM      8  C   UNL     1      34.660 -14.245 -24.024  0.00  0.00    +0.031 C 
ATOM      9  C   UNL     1      33.482 -14.810 -24.814  0.00  0.00    +0.024 C 
ATOM     10  C   UNL     1      33.701 -16.312 -24.735  0.00  0.00    +0.094 C 
ATOM     11  C   UNL     1      34.700 -17.807 -23.033  0.00  0.00    +0.226 C 
BRANCH  11  12
ATOM     12  C   UNL     1      35.436 -17.899 -21.720  0.00  0.00    +0.090 C 
BRANCH  12  13
ATOM     13  C   UNL     1      36.081 -19.268 -21.563  0.00  0.00    +0.036 C 
BRANCH  13  14
ATOM     14  C   UNL     1      35.301 -20.196 -20.665  0.00  0.00    -0.022 C 
ATOM     15  C   UNL     1      35.972 -21.111 -19.855  0.00  0.00    -0.004 C 
ATOM     16  C   UNL     1      33.907 -20.139 -20.645  0.00  0.00    -0.004 C 
ATOM     17  C   UNL     1      35.252 -21.969 -19.023  0.00  0.00    -0.000 C 
ATOM     18  C   UNL     1      33.186 -20.997 -19.814  0.00  0.00    -0.000 C 
ATOM     19  C   UNL     1      33.858 -21.912 -19.003  0.00  0.00    -0.000 C 
ENDBRANCH  13  14
ENDBRANCH  12  13
ENDBRANCH  11  12
ENDBRANCH   3   7
BRANCH   2  20
ATOM     20  C   UNL     1      32.054 -13.500 -21.088  0.00  0.00    +0.116 C 
BRANCH  20  21
ATOM     21  C   UNL     1      31.995 -12.000 -21.040  0.00  0.00    -0.003 C 
ATOM     22  C   UNL     1      31.773 -11.351 -19.825  0.00  0.00    -0.003 C 
ATOM     23  C   UNL     1      32.158 -11.256 -22.209  0.00  0.00    -0.003 C 
ATOM     24  C   UNL     1      31.715  -9.958 -19.779  0.00  0.00    +0.002 C 
ATOM     25  C   UNL     1      32.100  -9.863 -22.162  0.00  0.00    +0.002 C 
ATOM     26  C   UNL     1      31.879  -9.214 -20.947  0.00  0.00    +0.031 C 
BRANCH  26  29
ATOM     27  N   UNL     1      32.571  -7.036 -19.977  0.00  0.00    -0.343 N 
ATOM     28  N   UNL     1      31.038  -7.106 -21.738  0.00  0.00    -0.285 NA
ATOM     29  C   UNL     1      31.819  -7.762 -20.899  0.00  0.00    +0.117 C 
ATOM     30  H   UNL     1      32.515  -6.053 -19.961  0.00  0.00    +0.144 HD
ATOM     31  H   UNL     1      33.157  -7.506 -19.341  0.00  0.00    +0.144 HD
ATOM     32  H   UNL     1      30.996  -6.124 -21.707  0.00  0.00    +0.188 HD
ENDBRANCH  26  29
ENDBRANCH  20  21
ENDBRANCH   2  20
TORSDOF 7
ENDMDL
MODEL 5
REMARK VINA RESULT:     -10.4      2.539      6.063
REMARK  Name = 25113615
REMARK  7 active torsions:
REMARK  status: ('A' for Active; 'I' for Inactive)
REMARK    1  A    between atoms: N_2  and  C_20
REMARK    2  A    between atoms: C_3  and  C_7
REMARK    3  A    between atoms: C_11  and  C_12
REMARK    4  A    between atoms: C_12  and  C_13
REMARK    5  A    between atoms: C_13  and  C_14
REMARK    6  A    between atoms: C_20  and  C_21
REMARK    7  A    between atoms: C_26  and  C_29
REMARK                            x       y       z     vdW  Elec       q    Type
REMARK                         _______ _______ _______ _____ _____    ______ ____
ROOT
ATOM      1  O   UNL     1      36.623 -24.854 -15.044  0.00  0.00    -0.273 OA
ATOM      2  N   UNL     1      36.842 -22.576 -15.474  0.00  0.00    -0.299 N 
ATOM      3  C   UNL     1      36.524 -23.678 -14.699  0.00  0.00    +0.241 C 
ATOM      4  H   UNL     1      36.719 -21.679 -15.086  0.00  0.00    +0.150 HD
ENDROOT
BRANCH   3   7
ATOM      5  O   UNL     1      32.915 -25.115 -12.734  0.00  0.00    -0.275 OA
ATOM      6  N   UNL     1      35.063 -24.279 -12.899  0.00  0.00    -0.273 N 
ATOM      7  C   UNL     1      36.050 -23.293 -13.331  0.00  0.00    +0.152 C 
ATOM      8  C   UNL     1      37.181 -23.414 -12.313  0.00  0.00    +0.031 C 
ATOM      9  C   UNL     1      37.110 -24.877 -11.879  0.00  0.00    +0.024 C 
ATOM     10  C   UNL     1      35.619 -25.169 -11.888  0.00  0.00    +0.094 C 
ATOM     11  C   UNL     1      33.722 -24.333 -13.242  0.00  0.00    +0.226 C 
BRANCH  11  12
ATOM     12  C   UNL     1      33.268 -23.358 -14.299  0.00  0.00    +0.090 C 
BRANCH  12  13
ATOM     13  C   UNL     1      32.648 -24.096 -15.477  0.00  0.00    +0.036 C 
BRANCH  13  14
ATOM     14  C   UNL     1      31.140 -24.038 -15.490  0.00  0.00    -0.022 C 
ATOM     15  C   UNL     1      30.488 -22.964 -16.095  0.00  0.00    -0.004 C 
ATOM     16  C   UNL     1      30.397 -25.058 -14.896  0.00  0.00    -0.004 C 
ATOM     17  C   UNL     1      29.094 -22.909 -16.108  0.00  0.00    -0.000 C 
ATOM     18  C   UNL     1      29.004 -25.004 -14.908  0.00  0.00    -0.000 C 
ATOM     19  C   UNL     1      28.352 -23.929 -15.514  0.00  0.00    -0.000 C 
ENDBRANCH  13  14
ENDBRANCH  12  13
ENDBRANCH  11  12
ENDBRANCH   3   7
BRANCH   2  20
ATOM     20  C   UNL     1      37.344 -22.678 -16.825  0.00  0.00    +0.116 C 
BRANCH  20  21
ATOM     21  C   UNL     1      36.377 -22.116 -17.827  0.00  0.00    -0.003 C 
ATOM     22  C   UNL     1      35.025 -22.451 -17.754  0.00  0.00    -0.003 C 
ATOM     23  C   UNL     1      36.831 -21.263 -18.834  0.00  0.00    -0.003 C 
ATOM     24  C   UNL     1      34.127 -21.932 -18.686  0.00  0.00    +0.002 C 
ATOM     25  C   UNL     1      35.932 -20.743 -19.765  0.00  0.00    +0.002 C 
ATOM     26  C   UNL     1      34.580 -21.078 -19.692  0.00  0.00    +0.031 C 
BRANCH  26  29
ATOM     27  N   UNL     1      34.084 -19.837 -21.784  0.00  0.00    -0.343 N 
ATOM     28  N   UNL     1      32.344 -20.700 -20.485  0.00  0.00    -0.285 NA
ATOM     29  C   UNL     1      33.643 -20.536 -20.662  0.00  0.00    +0.117 C 
ATOM     30  H   UNL     1      33.432 -19.477 -22.428  0.00  0.00    +0.144 HD
ATOM     31  H   UNL     1      35.047 -19.701 -21.932  0.00  0.00    +0.144 HD
ATOM     32  H   UNL     1      31.708 -20.333 -21.141  0.00  0.00    +0.188 HD
ENDBRANCH  26  29
ENDBRANCH  20  21
ENDBRANCH   2  20
TORSDOF 7
ENDMDL
MODEL 6
REMARK VINA RESULT:      -9.8     11.600     15.524
REMARK  Name = 25113615
REMARK  7 active torsions:
REMARK  status: ('A' for Active; 'I' for Inactive)
REMARK    1  A    between atoms: N_2  and  C_20
REMARK    2  A    between atoms: C_3  and  C_7
REMARK    3  A    between atoms: C_11  and  C_12
REMARK    4  A    between atoms: C_12  and  C_13
REMARK    5  A    between atoms: C_13  and  C_14
REMARK    6  A    between atoms: C_20  and  C_21
REMARK    7  A    between atoms: C_26  and  C_29
REMARK                            x       y       z     vdW  Elec       q    Type
REMARK                         _______ _______ _______ _____ _____    ______ ____
ROOT
ATOM      1  O   UNL     1      33.823 -11.769 -23.635  0.00  0.00    -0.273 OA
ATOM      2  N   UNL     1      32.725  -9.937 -22.706  0.00  0.00    -0.299 N 
ATOM      3  C   UNL     1      32.914 -11.284 -22.964  0.00  0.00    +0.241 C 
ATOM      4  H   UNL     1      31.957  -9.669 -22.153  0.00  0.00    +0.150 HD
ENDROOT
BRANCH   3   7
ATOM      5  O   UNL     1      33.676 -14.750 -20.441  0.00  0.00    -0.275 OA
ATOM      6  N   UNL     1      32.533 -12.910 -21.247  0.00  0.00    -0.273 N 
ATOM      7  C   UNL     1      31.877 -12.140 -22.301  0.00  0.00    +0.152 C 
ATOM      8  C   UNL     1      30.856 -11.277 -21.565  0.00  0.00    +0.031 C 
ATOM      9  C   UNL     1      31.495 -11.065 -20.194  0.00  0.00    +0.024 C 
ATOM     10  C   UNL     1      32.195 -12.388 -19.930  0.00  0.00    +0.094 C 
ATOM     11  C   UNL     1      33.264 -14.078 -21.390  0.00  0.00    +0.226 C 
BRANCH  11  12
ATOM     12  C   UNL     1      33.545 -14.516 -22.805  0.00  0.00    +0.090 C 
BRANCH  12  13
ATOM     13  C   UNL     1      34.914 -15.175 -22.899  0.00  0.00    +0.036 C 
BRANCH  13  14
ATOM     14  C   UNL     1      34.844 -16.676 -23.038  0.00  0.00    -0.022 C 
ATOM     15  C   UNL     1      34.312 -17.245 -24.194  0.00  0.00    -0.004 C 
ATOM     16  C   UNL     1      35.313 -17.494 -22.010  0.00  0.00    -0.004 C 
ATOM     17  C   UNL     1      34.247 -18.633 -24.324  0.00  0.00    -0.000 C 
ATOM     18  C   UNL     1      35.248 -18.881 -22.139  0.00  0.00    -0.000 C 
ATOM     19  C   UNL     1      34.715 -19.451 -23.296  0.00  0.00    -0.000 C 
ENDBRANCH  13  14
ENDBRANCH  12  13
ENDBRANCH  11  12
ENDBRANCH   3   7
BRANCH   2  20
ATOM     20  C   UNL     1      33.603  -8.905 -23.211  0.00  0.00    +0.116 C 
BRANCH  20  21
ATOM     21  C   UNL     1      33.065  -7.530 -22.939  0.00  0.00    -0.003 C 
ATOM     22  C   UNL     1      32.766  -6.677 -24.002  0.00  0.00    -0.003 C 
ATOM     23  C   UNL     1      32.868  -7.104 -21.625  0.00  0.00    -0.003 C 
ATOM     24  C   UNL     1      32.269  -5.397 -23.750  0.00  0.00    +0.002 C 
ATOM     25  C   UNL     1      32.370  -5.825 -21.374  0.00  0.00    +0.002 C 
ATOM     26  C   UNL     1      32.071  -4.972 -22.436  0.00  0.00    +0.031 C 
BRANCH  26  29
ATOM     27  N   UNL     1      30.641  -3.034 -23.038  0.00  0.00    -0.343 N 
ATOM     28  N   UNL     1      31.947  -2.978 -21.102  0.00  0.00    -0.285 NA
ATOM     29  C   UNL     1      31.551  -3.639 -22.175  0.00  0.00    +0.117 C 
ATOM     30  H   UNL     1      30.302  -2.130 -22.842  0.00  0.00    +0.144 HD
ATOM     31  H   UNL     1      30.336  -3.509 -23.844  0.00  0.00    +0.144 HD
ATOM     32  H   UNL     1      31.597  -2.076 -20.923  0.00  0.00    +0.188 HD
ENDBRANCH  26  29
ENDBRANCH  20  21
ENDBRANCH   2  20
TORSDOF 7
ENDMDL
MODEL 7
REMARK VINA RESULT:      -9.6      3.174      7.712
REMARK  Name = 25113615
REMARK  7 active torsions:
REMARK  status: ('A' for Active; 'I' for Inactive)
REMARK    1  A    between atoms: N_2  and  C_20
REMARK    2  A    between atoms: C_3  and  C_7
REMARK    3  A    between atoms: C_11  and  C_12
REMARK    4  A    between atoms: C_12  and  C_13
REMARK    5  A    between atoms: C_13  and  C_14
REMARK    6  A    between atoms: C_20  and  C_21
REMARK    7  A    between atoms: C_26  and  C_29
REMARK                            x       y       z     vdW  Elec       q    Type
REMARK                         _______ _______ _______ _____ _____    ______ ____
ROOT
ATOM      1  O   UNL     1      35.373 -22.456 -15.440  0.00  0.00    -0.273 OA
ATOM      2  N   UNL     1      35.337 -22.758 -17.748  0.00  0.00    -0.299 N 
ATOM      3  C   UNL     1      34.922 -22.994 -16.449  0.00  0.00    +0.241 C 
ATOM      4  H   UNL     1      34.898 -23.253 -18.477  0.00  0.00    +0.150 HD
ENDROOT
BRANCH   3   7
ATOM      5  O   UNL     1      33.331 -24.825 -12.834  0.00  0.00    -0.275 OA
ATOM      6  N   UNL     1      33.318 -24.033 -15.004  0.00  0.00    -0.273 N 
ATOM      7  C   UNL     1      33.805 -23.991 -16.381  0.00  0.00    +0.152 C 
ATOM      8  C   UNL     1      32.605 -23.513 -17.195  0.00  0.00    +0.031 C 
ATOM      9  C   UNL     1      31.831 -22.643 -16.208  0.00  0.00    +0.024 C 
ATOM     10  C   UNL     1      32.031 -23.361 -14.883  0.00  0.00    +0.094 C 
ATOM     11  C   UNL     1      33.870 -24.725 -13.939  0.00  0.00    +0.226 C 
BRANCH  11  12
ATOM     12  C   UNL     1      35.204 -25.379 -14.191  0.00  0.00    +0.090 C 
BRANCH  12  13
ATOM     13  C   UNL     1      36.228 -24.923 -13.161  0.00  0.00    +0.036 C 
BRANCH  13  14
ATOM     14  C   UNL     1      37.655 -25.121 -13.610  0.00  0.00    -0.022 C 
ATOM     15  C   UNL     1      38.137 -24.436 -14.725  0.00  0.00    -0.004 C 
ATOM     16  C   UNL     1      38.491 -25.990 -12.910  0.00  0.00    -0.004 C 
ATOM     17  C   UNL     1      39.456 -24.618 -15.141  0.00  0.00    -0.000 C 
ATOM     18  C   UNL     1      39.811 -26.173 -13.326  0.00  0.00    -0.000 C 
ATOM     19  C   UNL     1      40.293 -25.487 -14.441  0.00  0.00    -0.000 C 
ENDBRANCH  13  14
ENDBRANCH  12  13
ENDBRANCH  11  12
ENDBRANCH   3   7
BRANCH   2  20
ATOM     20  C   UNL     1      36.385 -21.822 -18.086  0.00  0.00    +0.116 C 
BRANCH  20  21
ATOM     21  C   UNL     1      36.025 -20.984 -19.279  0.00  0.00    -0.003 C 
ATOM     22  C   UNL     1      36.977 -20.140 -19.850  0.00  0.00    -0.003 C 
ATOM     23  C   UNL     1      34.738 -21.048 -19.815  0.00  0.00    -0.003 C 
ATOM     24  C   UNL     1      36.643 -19.359 -20.957  0.00  0.00    +0.002 C 
ATOM     25  C   UNL     1      34.405 -20.268 -20.922  0.00  0.00    +0.002 C 
ATOM     26  C   UNL     1      35.357 -19.424 -21.493  0.00  0.00    +0.031 C 
BRANCH  26  29
ATOM     27  N   UNL     1      35.548 -17.339 -22.827  0.00  0.00    -0.343 N 
ATOM     28  N   UNL     1      34.164 -19.077 -23.550  0.00  0.00    -0.285 NA
ATOM     29  C   UNL     1      35.010 -18.611 -22.648  0.00  0.00    +0.117 C 
ATOM     30  H   UNL     1      35.298 -16.805 -23.616  0.00  0.00    +0.144 HD
ATOM     31  H   UNL     1      36.177 -16.972 -22.165  0.00  0.00    +0.144 HD
ATOM     32  H   UNL     1      33.927 -18.528 -24.332  0.00  0.00    +0.188 HD
ENDBRANCH  26  29
ENDBRANCH  20  21
ENDBRANCH   2  20
TORSDOF 7
ENDMDL
MODEL 8
REMARK VINA RESULT:      -9.5      2.889      7.201
REMARK  Name = 25113615
REMARK  7 active torsions:
REMARK  status: ('A' for Active; 'I' for Inactive)
REMARK    1  A    between atoms: N_2  and  C_20
REMARK    2  A    between atoms: C_3  and  C_7
REMARK    3  A    between atoms: C_11  and  C_12
REMARK    4  A    between atoms: C_12  and  C_13
REMARK    5  A    between atoms: C_13  and  C_14
REMARK    6  A    between atoms: C_20  and  C_21
REMARK    7  A    between atoms: C_26  and  C_29
REMARK                            x       y       z     vdW  Elec       q    Type
REMARK                         _______ _______ _______ _____ _____    ______ ____
ROOT
ATOM      1  O   UNL     1      36.710 -20.560 -18.267  0.00  0.00    -0.273 OA
ATOM      2  N   UNL     1      36.719 -22.670 -17.283  0.00  0.00    -0.299 N 
ATOM      3  C   UNL     1      36.355 -21.736 -18.237  0.00  0.00    +0.241 C 
ATOM      4  H   UNL     1      36.369 -23.586 -17.367  0.00  0.00    +0.150 HD
ENDROOT
BRANCH   3   7
ATOM      5  O   UNL     1      32.025 -22.134 -18.018  0.00  0.00    -0.275 OA
ATOM      6  N   UNL     1      34.095 -21.898 -19.016  0.00  0.00    -0.273 N 
ATOM      7  C   UNL     1      35.466 -22.320 -19.294  0.00  0.00    +0.152 C 
ATOM      8  C   UNL     1      35.782 -21.716 -20.659  0.00  0.00    +0.031 C 
ATOM      9  C   UNL     1      34.923 -20.454 -20.696  0.00  0.00    +0.024 C 
ATOM     10  C   UNL     1      33.663 -20.871 -19.955  0.00  0.00    +0.094 C 
ATOM     11  C   UNL     1      33.213 -22.454 -18.105  0.00  0.00    +0.226 C 
BRANCH  11  12
ATOM     12  C   UNL     1      33.781 -23.509 -17.190  0.00  0.00    +0.090 C 
BRANCH  12  13
ATOM     13  C   UNL     1      33.566 -23.125 -15.733  0.00  0.00    +0.036 C 
BRANCH  13  14
ATOM     14  C   UNL     1      32.481 -23.929 -15.058  0.00  0.00    -0.022 C 
ATOM     15  C   UNL     1      32.772 -24.670 -13.914  0.00  0.00    -0.004 C 
ATOM     16  C   UNL     1      31.188 -23.930 -15.580  0.00  0.00    -0.004 C 
ATOM     17  C   UNL     1      31.770 -25.414 -13.289  0.00  0.00    -0.000 C 
ATOM     18  C   UNL     1      30.185 -24.674 -14.956  0.00  0.00    -0.000 C 
ATOM     19  C   UNL     1      30.477 -25.416 -13.810  0.00  0.00    -0.000 C 
ENDBRANCH  13  14
ENDBRANCH  12  13
ENDBRANCH  11  12
ENDBRANCH   3   7
BRANCH   2  20
ATOM     20  C   UNL     1      37.590 -22.365 -16.171  0.00  0.00    +0.116 C 
BRANCH  20  21
ATOM     21  C   UNL     1      37.282 -23.210 -14.969  0.00  0.00    -0.003 C 
ATOM     22  C   UNL     1      36.320 -22.790 -14.050  0.00  0.00    -0.003 C 
ATOM     23  C   UNL     1      37.958 -24.415 -14.769  0.00  0.00    -0.003 C 
ATOM     24  C   UNL     1      36.035 -23.573 -12.932  0.00  0.00    +0.002 C 
ATOM     25  C   UNL     1      37.672 -25.198 -13.651  0.00  0.00    +0.002 C 
ATOM     26  C   UNL     1      36.710 -24.777 -12.732  0.00  0.00    +0.031 C 
BRANCH  26  29
ATOM     27  N   UNL     1      35.620 -25.111 -10.526  0.00  0.00    -0.343 N 
ATOM     28  N   UNL     1      36.896 -26.819 -11.480  0.00  0.00    -0.285 NA
ATOM     29  C   UNL     1      36.411 -25.594 -11.567  0.00  0.00    +0.117 C 
ATOM     30  H   UNL     1      35.431 -25.680  -9.746  0.00  0.00    +0.144 HD
ATOM     31  H   UNL     1      35.252 -24.199 -10.571  0.00  0.00    +0.144 HD
ATOM     32  H   UNL     1      36.695 -27.374 -10.692  0.00  0.00    +0.188 HD
ENDBRANCH  26  29
ENDBRANCH  20  21
ENDBRANCH   2  20
TORSDOF 7
ENDMDL
MODEL 9
REMARK VINA RESULT:      -9.4      3.624      5.974
REMARK  Name = 25113615
REMARK  7 active torsions:
REMARK  status: ('A' for Active; 'I' for Inactive)
REMARK    1  A    between atoms: N_2  and  C_20
REMARK    2  A    between atoms: C_3  and  C_7
REMARK    3  A    between atoms: C_11  and  C_12
REMARK    4  A    between atoms: C_12  and  C_13
REMARK    5  A    between atoms: C_13  and  C_14
REMARK    6  A    between atoms: C_20  and  C_21
REMARK    7  A    between atoms: C_26  and  C_29
REMARK                            x       y       z     vdW  Elec       q    Type
REMARK                         _______ _______ _______ _____ _____    ______ ____
ROOT
ATOM      1  O   UNL     1      32.956 -20.292 -20.098  0.00  0.00    -0.273 OA
ATOM      2  N   UNL     1      33.122 -22.185 -18.752  0.00  0.00    -0.299 N 
ATOM      3  C   UNL     1      33.563 -21.287 -19.709  0.00  0.00    +0.241 C 
ATOM      4  H   UNL     1      33.701 -22.949 -18.524  0.00  0.00    +0.150 HD
ENDROOT
BRANCH   3   7
ATOM      5  O   UNL     1      36.744 -18.483 -20.695  0.00  0.00    -0.275 OA
ATOM      6  N   UNL     1      35.796 -20.487 -20.043  0.00  0.00    -0.273 N 
ATOM      7  C   UNL     1      34.921 -21.641 -20.237  0.00  0.00    +0.152 C 
ATOM      8  C   UNL     1      35.555 -22.746 -19.397  0.00  0.00    +0.031 C 
ATOM      9  C   UNL     1      36.241 -21.982 -18.266  0.00  0.00    +0.024 C 
ATOM     10  C   UNL     1      36.732 -20.717 -18.951  0.00  0.00    +0.094 C 
ATOM     11  C   UNL     1      35.888 -19.358 -20.841  0.00  0.00    +0.226 C 
BRANCH  11  12
ATOM     12  C   UNL     1      34.862 -19.237 -21.940  0.00  0.00    +0.090 C 
BRANCH  12  13
ATOM     13  C   UNL     1      35.461 -18.546 -23.156  0.00  0.00    +0.036 C 
BRANCH  13  14
ATOM     14  C   UNL     1      34.870 -17.183 -23.420  0.00  0.00    -0.022 C 
ATOM     15  C   UNL     1      34.213 -16.929 -24.624  0.00  0.00    -0.004 C 
ATOM     16  C   UNL     1      34.980 -16.178 -22.460  0.00  0.00    -0.004 C 
ATOM     17  C   UNL     1      33.666 -15.669 -24.869  0.00  0.00    -0.000 C 
ATOM     18  C   UNL     1      34.434 -14.918 -22.705  0.00  0.00    -0.000 C 
ATOM     19  C   UNL     1      33.776 -14.663 -23.909  0.00  0.00    -0.000 C 
ENDBRANCH  13  14
ENDBRANCH  12  13
ENDBRANCH  11  12
ENDBRANCH   3   7
BRANCH   2  20
ATOM     20  C   UNL     1      31.854 -22.056 -18.072  0.00  0.00    +0.116 C 
BRANCH  20  21
ATOM     21  C   UNL     1      31.817 -22.850 -16.799  0.00  0.00    -0.003 C 
ATOM     22  C   UNL     1      30.602 -23.069 -16.149  0.00  0.00    -0.003 C 
ATOM     23  C   UNL     1      32.997 -23.368 -16.263  0.00  0.00    -0.003 C 
ATOM     24  C   UNL     1      30.568 -23.804 -14.964  0.00  0.00    +0.002 C 
ATOM     25  C   UNL     1      32.962 -24.104 -15.079  0.00  0.00    +0.002 C 
ATOM     26  C   UNL     1      31.747 -24.322 -14.429  0.00  0.00    +0.031 C 
BRANCH  26  29
ATOM     27  N   UNL     1      30.502 -25.462 -12.608  0.00  0.00    -0.343 N 
ATOM     28  N   UNL     1      32.839 -25.446 -12.607  0.00  0.00    -0.285 NA
ATOM     29  C   UNL     1      31.710 -25.090 -13.195  0.00  0.00    +0.117 C 
ATOM     30  H   UNL     1      30.500 -25.981 -11.772  0.00  0.00    +0.144 HD
ATOM     31  H   UNL     1      29.651 -25.204 -13.029  0.00  0.00    +0.144 HD
ATOM     32  H   UNL     1      32.816 -25.966 -11.772  0.00  0.00    +0.188 HD
ENDBRANCH  26  29
ENDBRANCH  20  21
ENDBRANCH   2  20
TORSDOF 7
ENDMDL
