MODEL 1
REMARK VINA RESULT:     -13.0      0.000      0.000
REMARK  Name = 10224181
REMARK  7 active torsions:
REMARK  status: ('A' for Active; 'I' for Inactive)
REMARK    1  A    between atoms: N_3  and  C_23
REMARK    2  A    between atoms: C_12  and  C_14
REMARK    3  A    between atoms: C_15  and  C_16
REMARK    4  A    between atoms: C_16  and  C_17
REMARK    5  A    between atoms: C_23  and  C_24
REMARK    6  A    between atoms: C_29  and  C_31
REMARK    7  A    between atoms: C_31  and  O_32
REMARK                            x       y       z     vdW  Elec       q    Type
REMARK                         _______ _______ _______ _____ _____    ______ ____
ROOT
ATOM      1  O   UNL     1      32.276 -23.820 -16.787  0.00  0.00    -0.267 OA
ATOM      2  O   UNL     1      34.752 -24.727 -12.960  0.00  0.00    -0.246 OA
ATOM      3  N   UNL     1      33.495 -24.290 -14.854  0.00  0.00    -0.244 N 
ATOM      4  N   UNL     1      35.748 -23.522 -14.669  0.00  0.00    -0.279 N 
ATOM      5  C   UNL     1      35.656 -22.930 -15.964  0.00  0.00    +0.069 A 
ATOM      6  C   UNL     1      34.470 -23.030 -16.693  0.00  0.00    +0.073 A 
ATOM      7  C   UNL     1      33.311 -23.743 -16.130  0.00  0.00    +0.266 A 
ATOM      8  C   UNL     1      34.676 -24.213 -14.082  0.00  0.00    +0.334 A 
ATOM      9  C   UNL     1      34.360 -22.453 -17.969  0.00  0.00    +0.014 C 
ATOM     10  C   UNL     1      36.735 -22.239 -16.545  0.00  0.00    +0.018 C 
ATOM     11  C   UNL     1      37.003 -23.404 -13.927  0.00  0.00    +0.135 C 
ATOM     12  C   UNL     1      35.439 -21.774 -18.527  0.00  0.00    +0.042 C 
ATOM     13  C   UNL     1      36.626 -21.666 -17.814  0.00  0.00    +0.010 C 
ENDROOT
BRANCH  12  14
ATOM     14  C   UNL     1      35.324 -21.188 -19.825  0.00  0.00    -0.064 C 
ATOM     15  C   UNL     1      35.226 -20.697 -20.921  0.00  0.00    -0.082 C 
BRANCH  15  16
ATOM     16  C   UNL     1      35.104 -20.103 -22.257  0.00  0.00    +0.103 C 
BRANCH  16  17
ATOM     17  C   UNL     1      35.030 -18.598 -22.199  0.00  0.00    -0.009 C 
ATOM     18  C   UNL     1      34.975 -17.872 -23.379  0.00  0.00    -0.003 C 
ATOM     19  C   UNL     1      35.017 -17.963 -20.966  0.00  0.00    -0.003 C 
ATOM     20  C   UNL     1      34.905 -16.480 -23.326  0.00  0.00    -0.000 C 
ATOM     21  C   UNL     1      34.949 -16.571 -20.912  0.00  0.00    -0.000 C 
ATOM     22  C   UNL     1      34.893 -15.830 -22.092  0.00  0.00    -0.000 C 
ENDBRANCH  16  17
ENDBRANCH  15  16
ENDBRANCH  12  14
BRANCH   3  23
ATOM     23  C   UNL     1      32.363 -25.003 -14.268  0.00  0.00    +0.140 C 
BRANCH  23  24
ATOM     24  C   UNL     1      31.048 -24.374 -14.642  0.00  0.00    +0.001 C 
ATOM     25  C   UNL     1      30.107 -25.120 -15.338  0.00  0.00    -0.002 C 
ATOM     26  C   UNL     1      30.794 -23.057 -14.285  0.00  0.00    -0.002 C 
ATOM     27  C   UNL     1      28.888 -24.537 -15.685  0.00  0.00    +0.006 C 
ATOM     28  C   UNL     1      29.576 -22.473 -14.632  0.00  0.00    +0.006 C 
ATOM     29  C   UNL     1      28.623 -23.214 -15.332  0.00  0.00    +0.075 C 
BRANCH  29  31
ATOM     30  O   UNL     1      26.314 -22.666 -15.026  0.00  0.00    -0.245 OA
ATOM     31  C   UNL     1      27.351 -22.605 -15.693  0.00  0.00    +0.338 C 
BRANCH  31  32
ATOM     32  O   UNL     1      27.411 -21.939 -16.879  0.00  0.00    -0.477 OA
ATOM     33  H   UNL     1      26.725 -22.042 -17.508  0.00  0.00    +0.295 HD
ENDBRANCH  31  32
ENDBRANCH  29  31
ENDBRANCH  23  24
ENDBRANCH   3  23
TORSDOF 7
ENDMDL
MODEL 2
REMARK VINA RESULT:     -12.5      5.538      9.522
REMARK  Name = 10224181
REMARK  7 active torsions:
REMARK  status: ('A' for Active; 'I' for Inactive)
REMARK    1  A    between atoms: N_3  and  C_23
REMARK    2  A    between atoms: C_12  and  C_14
REMARK    3  A    between atoms: C_15  and  C_16
REMARK    4  A    between atoms: C_16  and  C_17
REMARK    5  A    between atoms: C_23  and  C_24
REMARK    6  A    between atoms: C_29  and  C_31
REMARK    7  A    between atoms: C_31  and  O_32
REMARK                            x       y       z     vdW  Elec       q    Type
REMARK                         _______ _______ _______ _____ _____    ______ ____
ROOT
ATOM      1  O   UNL     1      35.345 -16.397 -19.828  0.00  0.00    -0.267 OA
ATOM      2  O   UNL     1      35.756 -18.845 -23.757  0.00  0.00    -0.246 OA
ATOM      3  N   UNL     1      35.569 -17.646 -21.786  0.00  0.00    -0.244 N 
ATOM      4  N   UNL     1      34.492 -16.903 -23.784  0.00  0.00    -0.279 N 
ATOM      5  C   UNL     1      33.971 -15.773 -23.087  0.00  0.00    +0.069 A 
ATOM      6  C   UNL     1      34.259 -15.595 -21.733  0.00  0.00    +0.073 A 
ATOM      7  C   UNL     1      35.102 -16.570 -21.020  0.00  0.00    +0.266 A 
ATOM      8  C   UNL     1      35.301 -17.865 -23.157  0.00  0.00    +0.334 A 
ATOM      9  C   UNL     1      33.756 -14.489 -21.029  0.00  0.00    +0.014 C 
ATOM     10  C   UNL     1      33.162 -14.814 -23.723  0.00  0.00    +0.018 C 
ATOM     11  C   UNL     1      34.173 -17.066 -25.202  0.00  0.00    +0.135 C 
ATOM     12  C   UNL     1      32.957 -13.551 -21.676  0.00  0.00    +0.042 C 
ATOM     13  C   UNL     1      32.660 -13.714 -23.023  0.00  0.00    +0.010 C 
ENDROOT
BRANCH  12  14
ATOM     14  C   UNL     1      32.446 -12.427 -20.959  0.00  0.00    -0.064 C 
ATOM     15  C   UNL     1      32.014 -11.476 -20.357  0.00  0.00    -0.082 C 
BRANCH  15  16
ATOM     16  C   UNL     1      31.490 -10.317 -19.627  0.00  0.00    +0.103 C 
BRANCH  16  17
ATOM     17  C   UNL     1      31.803  -9.020 -20.329  0.00  0.00    -0.009 C 
ATOM     18  C   UNL     1      31.499  -8.883 -21.676  0.00  0.00    -0.003 C 
ATOM     19  C   UNL     1      32.388  -7.983 -19.618  0.00  0.00    -0.003 C 
ATOM     20  C   UNL     1      31.787  -7.683 -22.325  0.00  0.00    -0.000 C 
ATOM     21  C   UNL     1      32.677  -6.783 -20.267  0.00  0.00    -0.000 C 
ATOM     22  C   UNL     1      32.377  -6.633 -21.621  0.00  0.00    -0.000 C 
ENDBRANCH  16  17
ENDBRANCH  15  16
ENDBRANCH  12  14
BRANCH   3  23
ATOM     23  C   UNL     1      36.408 -18.630 -21.107  0.00  0.00    +0.140 C 
BRANCH  23  24
ATOM     24  C   UNL     1      35.591 -19.730 -20.484  0.00  0.00    +0.001 C 
ATOM     25  C   UNL     1      36.224 -20.704 -19.723  0.00  0.00    -0.002 C 
ATOM     26  C   UNL     1      34.217 -19.755 -20.678  0.00  0.00    -0.002 C 
ATOM     27  C   UNL     1      35.467 -21.723 -19.145  0.00  0.00    +0.006 C 
ATOM     28  C   UNL     1      33.460 -20.774 -20.099  0.00  0.00    +0.006 C 
ATOM     29  C   UNL     1      34.085 -21.758 -19.333  0.00  0.00    +0.075 C 
BRANCH  29  31
ATOM     30  O   UNL     1      32.317 -22.655 -17.994  0.00  0.00    -0.245 OA
ATOM     31  C   UNL     1      33.295 -22.821 -18.730  0.00  0.00    +0.338 C 
BRANCH  31  32
ATOM     32  O   UNL     1      33.751 -24.060 -19.061  0.00  0.00    -0.477 OA
ATOM     33  H   UNL     1      34.237 -24.184 -19.852  0.00  0.00    +0.295 HD
ENDBRANCH  31  32
ENDBRANCH  29  31
ENDBRANCH  23  24
ENDBRANCH   3  23
TORSDOF 7
ENDMDL
MODEL 3
REMARK VINA RESULT:     -12.3      2.519      6.250
REMARK  Name = 10224181
REMARK  7 active torsions:
REMARK  status: ('A' for Active; 'I' for Inactive)
REMARK    1  A    between atoms: N_3  and  C_23
REMARK    2  A    between atoms: C_12  and  C_14
REMARK    3  A    between atoms: C_15  and  C_16
REMARK    4  A    between atoms: C_16  and  C_17
REMARK    5  A    between atoms: C_23  and  C_24
REMARK    6  A    between atoms: C_29  and  C_31
REMARK    7  A    between atoms: C_31  and  O_32
REMARK                            x       y       z     vdW  Elec       q    Type
REMARK                         _______ _______ _______ _____ _____    ______ ____
ROOT
ATOM      1  O   UNL     1      36.543 -22.916 -15.106  0.00  0.00    -0.267 OA
ATOM      2  O   UNL     1      32.686 -24.987 -13.545  0.00  0.00    -0.246 OA
ATOM      3  N   UNL     1      34.621 -23.964 -14.297  0.00  0.00    -0.244 N 
ATOM      4  N   UNL     1      32.633 -23.956 -15.619  0.00  0.00    -0.279 N 
ATOM      5  C   UNL     1      33.308 -23.218 -16.636  0.00  0.00    +0.069 A 
ATOM      6  C   UNL     1      34.646 -22.860 -16.466  0.00  0.00    +0.073 A 
ATOM      7  C   UNL     1      35.365 -23.241 -15.239  0.00  0.00    +0.266 A 
ATOM      8  C   UNL     1      33.267 -24.347 -14.429  0.00  0.00    +0.334 A 
ATOM      9  C   UNL     1      35.328 -22.134 -17.456  0.00  0.00    +0.014 C 
ATOM     10  C   UNL     1      32.665 -22.831 -17.826  0.00  0.00    +0.018 C 
ATOM     11  C   UNL     1      31.231 -24.317 -15.823  0.00  0.00    +0.135 C 
ATOM     12  C   UNL     1      34.675 -21.759 -18.626  0.00  0.00    +0.042 C 
ATOM     13  C   UNL     1      33.343 -22.109 -18.811  0.00  0.00    +0.010 C 
ENDROOT
BRANCH  12  14
ATOM     14  C   UNL     1      35.370 -21.021 -19.632  0.00  0.00    -0.064 C 
ATOM     15  C   UNL     1      35.955 -20.396 -20.479  0.00  0.00    -0.082 C 
BRANCH  15  16
ATOM     16  C   UNL     1      36.665 -19.631 -21.511  0.00  0.00    +0.103 C 
BRANCH  16  17
ATOM     17  C   UNL     1      35.715 -18.972 -22.478  0.00  0.00    -0.009 C 
ATOM     18  C   UNL     1      34.903 -19.760 -23.281  0.00  0.00    -0.003 C 
ATOM     19  C   UNL     1      35.666 -17.588 -22.549  0.00  0.00    -0.003 C 
ATOM     20  C   UNL     1      34.023 -19.150 -24.174  0.00  0.00    -0.000 C 
ATOM     21  C   UNL     1      34.787 -16.977 -23.444  0.00  0.00    -0.000 C 
ATOM     22  C   UNL     1      33.965 -17.758 -24.256  0.00  0.00    -0.000 C 
ENDBRANCH  16  17
ENDBRANCH  15  16
ENDBRANCH  12  14
BRANCH   3  23
ATOM     23  C   UNL     1      35.307 -24.357 -13.069  0.00  0.00    +0.140 C 
BRANCH  23  24
ATOM     24  C   UNL     1      36.663 -24.948 -13.348  0.00  0.00    +0.001 C 
ATOM     25  C   UNL     1      36.783 -25.980 -14.269  0.00  0.00    -0.002 C 
ATOM     26  C   UNL     1      37.775 -24.451 -12.682  0.00  0.00    -0.002 C 
ATOM     27  C   UNL     1      38.040 -26.526 -14.528  0.00  0.00    +0.006 C 
ATOM     28  C   UNL     1      39.032 -24.998 -12.941  0.00  0.00    +0.006 C 
ATOM     29  C   UNL     1      39.164 -26.036 -13.864  0.00  0.00    +0.075 C 
BRANCH  29  31
ATOM     30  O   UNL     1      41.224 -27.109 -13.291  0.00  0.00    -0.245 OA
ATOM     31  C   UNL     1      40.475 -26.606 -14.135  0.00  0.00    +0.338 C 
BRANCH  31  32
ATOM     32  O   UNL     1      40.814 -26.530 -15.451  0.00  0.00    -0.477 OA
ATOM     33  H   UNL     1      41.712 -26.421 -15.697  0.00  0.00    +0.295 HD
ENDBRANCH  31  32
ENDBRANCH  29  31
ENDBRANCH  23  24
ENDBRANCH   3  23
TORSDOF 7
ENDMDL
MODEL 4
REMARK VINA RESULT:     -12.1      0.655      1.198
REMARK  Name = 10224181
REMARK  7 active torsions:
REMARK  status: ('A' for Active; 'I' for Inactive)
REMARK    1  A    between atoms: N_3  and  C_23
REMARK    2  A    between atoms: C_12  and  C_14
REMARK    3  A    between atoms: C_15  and  C_16
REMARK    4  A    between atoms: C_16  and  C_17
REMARK    5  A    between atoms: C_23  and  C_24
REMARK    6  A    between atoms: C_29  and  C_31
REMARK    7  A    between atoms: C_31  and  O_32
REMARK                            x       y       z     vdW  Elec       q    Type
REMARK                         _______ _______ _______ _____ _____    ______ ____
ROOT
ATOM      1  O   UNL     1      32.253 -23.780 -17.591  0.00  0.00    -0.267 OA
ATOM      2  O   UNL     1      34.617 -24.713 -13.700  0.00  0.00    -0.246 OA
ATOM      3  N   UNL     1      33.416 -24.265 -15.627  0.00  0.00    -0.244 N 
ATOM      4  N   UNL     1      35.618 -23.394 -15.321  0.00  0.00    -0.279 N 
ATOM      5  C   UNL     1      35.548 -22.758 -16.595  0.00  0.00    +0.069 A 
ATOM      6  C   UNL     1      34.399 -22.887 -17.376  0.00  0.00    +0.073 A 
ATOM      7  C   UNL     1      33.256 -23.678 -16.889  0.00  0.00    +0.266 A 
ATOM      8  C   UNL     1      34.561 -24.160 -14.804  0.00  0.00    +0.334 A 
ATOM      9  C   UNL     1      34.310 -22.268 -18.634  0.00  0.00    +0.014 C 
ATOM     10  C   UNL     1      36.613 -21.992 -17.105  0.00  0.00    +0.018 C 
ATOM     11  C   UNL     1      36.835 -23.243 -14.523  0.00  0.00    +0.135 C 
ATOM     12  C   UNL     1      35.374 -21.514 -19.120  0.00  0.00    +0.042 C 
ATOM     13  C   UNL     1      36.525 -21.376 -18.355  0.00  0.00    +0.010 C 
ENDROOT
BRANCH  12  14
ATOM     14  C   UNL     1      35.282 -20.885 -20.400  0.00  0.00    -0.064 C 
ATOM     15  C   UNL     1      35.201 -20.357 -21.479  0.00  0.00    -0.082 C 
BRANCH  15  16
ATOM     16  C   UNL     1      35.100 -19.715 -22.795  0.00  0.00    +0.103 C 
BRANCH  16  17
ATOM     17  C   UNL     1      34.984 -18.217 -22.684  0.00  0.00    -0.009 C 
ATOM     18  C   UNL     1      34.704 -17.468 -23.818  0.00  0.00    -0.003 C 
ATOM     19  C   UNL     1      35.158 -17.609 -21.450  0.00  0.00    -0.003 C 
ATOM     20  C   UNL     1      34.595 -16.082 -23.715  0.00  0.00    -0.000 C 
ATOM     21  C   UNL     1      35.050 -16.222 -21.347  0.00  0.00    -0.000 C 
ATOM     22  C   UNL     1      34.769 -15.459 -22.479  0.00  0.00    -0.000 C 
ENDBRANCH  16  17
ENDBRANCH  15  16
ENDBRANCH  12  14
BRANCH   3  23
ATOM     23  C   UNL     1      32.300 -25.055 -15.116  0.00  0.00    +0.140 C 
BRANCH  23  24
ATOM     24  C   UNL     1      30.977 -24.377 -15.352  0.00  0.00    +0.001 C 
ATOM     25  C   UNL     1      30.900 -22.992 -15.297  0.00  0.00    -0.002 C 
ATOM     26  C   UNL     1      29.854 -25.145 -15.623  0.00  0.00    -0.002 C 
ATOM     27  C   UNL     1      29.675 -22.363 -15.516  0.00  0.00    +0.006 C 
ATOM     28  C   UNL     1      28.628 -24.516 -15.842  0.00  0.00    +0.006 C 
ATOM     29  C   UNL     1      28.539 -23.125 -15.789  0.00  0.00    +0.075 C 
BRANCH  29  31
ATOM     30  O   UNL     1      26.980 -21.771 -16.998  0.00  0.00    -0.245 OA
ATOM     31  C   UNL     1      27.260 -22.469 -16.018  0.00  0.00    +0.338 C 
BRANCH  31  32
ATOM     32  O   UNL     1      26.368 -22.703 -15.017  0.00  0.00    -0.477 OA
ATOM     33  H   UNL     1      26.650 -23.121 -14.227  0.00  0.00    +0.295 HD
ENDBRANCH  31  32
ENDBRANCH  29  31
ENDBRANCH  23  24
ENDBRANCH   3  23
TORSDOF 7
ENDMDL
MODEL 5
REMARK VINA RESULT:     -11.8     10.324     15.916
REMARK  Name = 10224181
REMARK  7 active torsions:
REMARK  status: ('A' for Active; 'I' for Inactive)
REMARK    1  A    between atoms: N_3  and  C_23
REMARK    2  A    between atoms: C_12  and  C_14
REMARK    3  A    between atoms: C_15  and  C_16
REMARK    4  A    between atoms: C_16  and  C_17
REMARK    5  A    between atoms: C_23  and  C_24
REMARK    6  A    between atoms: C_29  and  C_31
REMARK    7  A    between atoms: C_31  and  O_32
REMARK                            x       y       z     vdW  Elec       q    Type
REMARK                         _______ _______ _______ _____ _____    ______ ____
ROOT
ATOM      1  O   UNL     1      35.774  -9.660 -24.391  0.00  0.00    -0.267 OA
ATOM      2  O   UNL     1      33.119  -6.745 -21.929  0.00  0.00    -0.246 OA
ATOM      3  N   UNL     1      34.459  -8.173 -23.164  0.00  0.00    -0.244 N 
ATOM      4  N   UNL     1      32.572  -8.995 -21.955  0.00  0.00    -0.279 N 
ATOM      5  C   UNL     1      32.855 -10.319 -22.405  0.00  0.00    +0.069 A 
ATOM      6  C   UNL     1      33.949 -10.551 -23.239  0.00  0.00    +0.073 A 
ATOM      7  C   UNL     1      34.815  -9.435 -23.656  0.00  0.00    +0.266 A 
ATOM      8  C   UNL     1      33.361  -7.893 -22.318  0.00  0.00    +0.334 A 
ATOM      9  C   UNL     1      34.245 -11.847 -23.693  0.00  0.00    +0.014 C 
ATOM     10  C   UNL     1      32.059 -11.418 -22.035  0.00  0.00    +0.018 C 
ATOM     11  C   UNL     1      31.418  -8.780 -21.082  0.00  0.00    +0.135 C 
ATOM     12  C   UNL     1      33.445 -12.922 -23.317  0.00  0.00    +0.042 C 
ATOM     13  C   UNL     1      32.353 -12.707 -22.487  0.00  0.00    +0.010 C 
ENDROOT
BRANCH  12  14
ATOM     14  C   UNL     1      33.748 -14.239 -23.779  0.00  0.00    -0.064 C 
ATOM     15  C   UNL     1      34.007 -15.349 -24.168  0.00  0.00    -0.082 C 
BRANCH  15  16
ATOM     16  C   UNL     1      34.326 -16.701 -24.642  0.00  0.00    +0.103 C 
BRANCH  16  17
ATOM     17  C   UNL     1      34.676 -17.628 -23.505  0.00  0.00    -0.009 C 
ATOM     18  C   UNL     1      35.309 -17.120 -22.381  0.00  0.00    -0.003 C 
ATOM     19  C   UNL     1      34.357 -18.975 -23.601  0.00  0.00    -0.003 C 
ATOM     20  C   UNL     1      35.632 -17.977 -21.329  0.00  0.00    -0.000 C 
ATOM     21  C   UNL     1      34.680 -19.832 -22.550  0.00  0.00    -0.000 C 
ATOM     22  C   UNL     1      35.317 -19.334 -21.414  0.00  0.00    -0.000 C 
ENDBRANCH  16  17
ENDBRANCH  15  16
ENDBRANCH  12  14
BRANCH   3  23
ATOM     23  C   UNL     1      35.299  -7.045 -23.558  0.00  0.00    +0.140 C 
BRANCH  23  24
ATOM     24  C   UNL     1      34.792  -6.379 -24.809  0.00  0.00    +0.001 C 
ATOM     25  C   UNL     1      35.052  -6.957 -26.045  0.00  0.00    -0.002 C 
ATOM     26  C   UNL     1      34.070  -5.197 -24.711  0.00  0.00    -0.002 C 
ATOM     27  C   UNL     1      34.582  -6.340 -27.204  0.00  0.00    +0.006 C 
ATOM     28  C   UNL     1      33.600  -4.581 -25.870  0.00  0.00    +0.006 C 
ATOM     29  C   UNL     1      33.856  -5.152 -27.117  0.00  0.00    +0.075 C 
BRANCH  29  31
ATOM     30  O   UNL     1      33.878  -4.606 -29.446  0.00  0.00    -0.245 OA
ATOM     31  C   UNL     1      33.366  -4.509 -28.326  0.00  0.00    +0.338 C 
BRANCH  31  32
ATOM     32  O   UNL     1      32.250  -3.762 -28.102  0.00  0.00    -0.477 OA
ATOM     33  H   UNL     1      31.950  -3.620 -27.226  0.00  0.00    +0.295 HD
ENDBRANCH  31  32
ENDBRANCH  29  31
ENDBRANCH  23  24
ENDBRANCH   3  23
TORSDOF 7
ENDMDL
MODEL 6
REMARK VINA RESULT:     -11.8      3.012      6.568
REMARK  Name = 10224181
REMARK  7 active torsions:
REMARK  status: ('A' for Active; 'I' for Inactive)
REMARK    1  A    between atoms: N_3  and  C_23
REMARK    2  A    between atoms: C_12  and  C_14
REMARK    3  A    between atoms: C_15  and  C_16
REMARK    4  A    between atoms: C_16  and  C_17
REMARK    5  A    between atoms: C_23  and  C_24
REMARK    6  A    between atoms: C_29  and  C_31
REMARK    7  A    between atoms: C_31  and  O_32
REMARK                            x       y       z     vdW  Elec       q    Type
REMARK                         _______ _______ _______ _____ _____    ______ ____
ROOT
ATOM      1  O   UNL     1      35.894 -22.970 -14.484  0.00  0.00    -0.267 OA
ATOM      2  O   UNL     1      33.250 -25.563 -11.675  0.00  0.00    -0.246 OA
ATOM      3  N   UNL     1      34.590 -24.273 -13.053  0.00  0.00    -0.244 N 
ATOM      4  N   UNL     1      32.357 -24.836 -13.684  0.00  0.00    -0.279 N 
ATOM      5  C   UNL     1      32.515 -24.112 -14.904  0.00  0.00    +0.069 A 
ATOM      6  C   UNL     1      33.724 -23.472 -15.182  0.00  0.00    +0.073 A 
ATOM      7  C   UNL     1      34.838 -23.541 -14.221  0.00  0.00    +0.266 A 
ATOM      8  C   UNL     1      33.384 -24.937 -12.732  0.00  0.00    +0.334 A 
ATOM      9  C   UNL     1      33.899 -22.755 -16.377  0.00  0.00    +0.014 C 
ATOM     10  C   UNL     1      31.481 -24.017 -15.853  0.00  0.00    +0.018 C 
ATOM     11  C   UNL     1      31.079 -25.497 -13.418  0.00  0.00    +0.135 C 
ATOM     12  C   UNL     1      32.864 -22.672 -17.303  0.00  0.00    +0.042 C 
ATOM     13  C   UNL     1      31.655 -23.304 -17.041  0.00  0.00    +0.010 C 
ENDROOT
BRANCH  12  14
ATOM     14  C   UNL     1      33.045 -21.943 -18.518  0.00  0.00    -0.064 C 
ATOM     15  C   UNL     1      33.199 -21.324 -19.541  0.00  0.00    -0.082 C 
BRANCH  15  16
ATOM     16  C   UNL     1      33.387 -20.568 -20.784  0.00  0.00    +0.103 C 
BRANCH  16  17
ATOM     17  C   UNL     1      34.787 -20.021 -20.904  0.00  0.00    -0.009 C 
ATOM     18  C   UNL     1      35.789 -20.523 -20.087  0.00  0.00    -0.003 C 
ATOM     19  C   UNL     1      35.051 -19.024 -21.832  0.00  0.00    -0.003 C 
ATOM     20  C   UNL     1      37.083 -20.018 -20.199  0.00  0.00    -0.000 C 
ATOM     21  C   UNL     1      36.346 -18.518 -21.943  0.00  0.00    -0.000 C 
ATOM     22  C   UNL     1      37.362 -19.014 -21.128  0.00  0.00    -0.000 C 
ENDBRANCH  16  17
ENDBRANCH  15  16
ENDBRANCH  12  14
BRANCH   3  23
ATOM     23  C   UNL     1      35.676 -24.361 -12.081  0.00  0.00    +0.140 C 
BRANCH  23  24
ATOM     24  C   UNL     1      36.929 -24.931 -12.689  0.00  0.00    +0.001 C 
ATOM     25  C   UNL     1      36.849 -26.072 -13.475  0.00  0.00    -0.002 C 
ATOM     26  C   UNL     1      38.147 -24.306 -12.457  0.00  0.00    -0.002 C 
ATOM     27  C   UNL     1      38.010 -26.600 -14.040  0.00  0.00    +0.006 C 
ATOM     28  C   UNL     1      39.308 -24.834 -13.021  0.00  0.00    +0.006 C 
ATOM     29  C   UNL     1      39.240 -25.981 -13.813  0.00  0.00    +0.075 C 
BRANCH  29  31
ATOM     30  O   UNL     1      41.323 -27.159 -13.790  0.00  0.00    -0.245 OA
ATOM     31  C   UNL     1      40.451 -26.531 -14.401  0.00  0.00    +0.338 C 
BRANCH  31  32
ATOM     32  O   UNL     1      40.541 -26.282 -15.736  0.00  0.00    -0.477 OA
ATOM     33  H   UNL     1      40.519 -26.991 -16.347  0.00  0.00    +0.295 HD
ENDBRANCH  31  32
ENDBRANCH  29  31
ENDBRANCH  23  24
ENDBRANCH   3  23
TORSDOF 7
ENDMDL
MODEL 7
REMARK VINA RESULT:     -11.7      4.981      9.104
REMARK  Name = 10224181
REMARK  7 active torsions:
REMARK  status: ('A' for Active; 'I' for Inactive)
REMARK    1  A    between atoms: N_3  and  C_23
REMARK    2  A    between atoms: C_12  and  C_14
REMARK    3  A    between atoms: C_15  and  C_16
REMARK    4  A    between atoms: C_16  and  C_17
REMARK    5  A    between atoms: C_23  and  C_24
REMARK    6  A    between atoms: C_29  and  C_31
REMARK    7  A    between atoms: C_31  and  O_32
REMARK                            x       y       z     vdW  Elec       q    Type
REMARK                         _______ _______ _______ _____ _____    ______ ____
ROOT
ATOM      1  O   UNL     1      35.695 -16.339 -20.743  0.00  0.00    -0.267 OA
ATOM      2  O   UNL     1      35.413 -20.191 -23.329  0.00  0.00    -0.246 OA
ATOM      3  N   UNL     1      35.569 -18.288 -22.020  0.00  0.00    -0.244 N 
ATOM      4  N   UNL     1      34.404 -18.255 -24.104  0.00  0.00    -0.279 N 
ATOM      5  C   UNL     1      34.097 -16.875 -23.915  0.00  0.00    +0.069 A 
ATOM      6  C   UNL     1      34.536 -16.214 -22.766  0.00  0.00    +0.073 A 
ATOM      7  C   UNL     1      35.317 -16.937 -21.748  0.00  0.00    +0.266 A 
ATOM      8  C   UNL     1      35.145 -18.995 -23.168  0.00  0.00    +0.334 A 
ATOM      9  C   UNL     1      34.245 -14.856 -22.562  0.00  0.00    +0.014 C 
ATOM     10  C   UNL     1      33.355 -16.141 -24.858  0.00  0.00    +0.018 C 
ATOM     11  C   UNL     1      33.930 -18.923 -25.316  0.00  0.00    +0.135 C 
ATOM     12  C   UNL     1      33.509 -14.147 -23.506  0.00  0.00    +0.042 C 
ATOM     13  C   UNL     1      33.065 -14.789 -24.655  0.00  0.00    +0.010 C 
ENDROOT
BRANCH  12  14
ATOM     14  C   UNL     1      33.214 -12.765 -23.297  0.00  0.00    -0.064 C 
ATOM     15  C   UNL     1      32.962 -11.600 -23.123  0.00  0.00    -0.082 C 
BRANCH  15  16
ATOM     16  C   UNL     1      32.654 -10.180 -22.914  0.00  0.00    +0.103 C 
BRANCH  16  17
ATOM     17  C   UNL     1      32.224  -9.900 -21.496  0.00  0.00    -0.009 C 
ATOM     18  C   UNL     1      31.585 -10.893 -20.768  0.00  0.00    -0.003 C 
ATOM     19  C   UNL     1      32.475  -8.654 -20.942  0.00  0.00    -0.003 C 
ATOM     20  C   UNL     1      31.188 -10.634 -19.457  0.00  0.00    -0.000 C 
ATOM     21  C   UNL     1      32.077  -8.394 -19.630  0.00  0.00    -0.000 C 
ATOM     22  C   UNL     1      31.434  -9.383 -18.888  0.00  0.00    -0.000 C 
ENDBRANCH  16  17
ENDBRANCH  15  16
ENDBRANCH  12  14
BRANCH   3  23
ATOM     23  C   UNL     1      36.342 -19.032 -21.029  0.00  0.00    +0.140 C 
BRANCH  23  24
ATOM     24  C   UNL     1      35.505 -20.067 -20.327  0.00  0.00    +0.001 C 
ATOM     25  C   UNL     1      36.128 -21.054 -19.575  0.00  0.00    -0.002 C 
ATOM     26  C   UNL     1      34.123 -20.020 -20.439  0.00  0.00    -0.002 C 
ATOM     27  C   UNL     1      35.353 -22.013 -18.924  0.00  0.00    +0.006 C 
ATOM     28  C   UNL     1      33.347 -20.979 -19.788  0.00  0.00    +0.006 C 
ATOM     29  C   UNL     1      33.962 -21.976 -19.030  0.00  0.00    +0.075 C 
BRANCH  29  31
ATOM     30  O   UNL     1      32.128 -22.745 -17.700  0.00  0.00    -0.245 OA
ATOM     31  C   UNL     1      33.153 -22.976 -18.350  0.00  0.00    +0.338 C 
BRANCH  31  32
ATOM     32  O   UNL     1      33.647 -24.235 -18.500  0.00  0.00    -0.477 OA
ATOM     33  H   UNL     1      33.061 -24.962 -18.572  0.00  0.00    +0.295 HD
ENDBRANCH  31  32
ENDBRANCH  29  31
ENDBRANCH  23  24
ENDBRANCH   3  23
TORSDOF 7
ENDMDL
MODEL 8
REMARK VINA RESULT:     -11.6      5.180      9.284
REMARK  Name = 10224181
REMARK  7 active torsions:
REMARK  status: ('A' for Active; 'I' for Inactive)
REMARK    1  A    between atoms: N_3  and  C_23
REMARK    2  A    between atoms: C_12  and  C_14
REMARK    3  A    between atoms: C_15  and  C_16
REMARK    4  A    between atoms: C_16  and  C_17
REMARK    5  A    between atoms: C_23  and  C_24
REMARK    6  A    between atoms: C_29  and  C_31
REMARK    7  A    between atoms: C_31  and  O_32
REMARK                            x       y       z     vdW  Elec       q    Type
REMARK                         _______ _______ _______ _____ _____    ______ ____
ROOT
ATOM      1  O   UNL     1      35.532 -16.196 -20.496  0.00  0.00    -0.267 OA
ATOM      2  O   UNL     1      35.654 -19.855 -23.359  0.00  0.00    -0.246 OA
ATOM      3  N   UNL     1      35.609 -18.048 -21.913  0.00  0.00    -0.244 N 
ATOM      4  N   UNL     1      34.557 -17.936 -24.053  0.00  0.00    -0.279 N 
ATOM      5  C   UNL     1      34.147 -16.597 -23.785  0.00  0.00    +0.069 A 
ATOM      6  C   UNL     1      34.478 -15.996 -22.569  0.00  0.00    +0.073 A 
ATOM      7  C   UNL     1      35.251 -16.741 -21.561  0.00  0.00    +0.266 A 
ATOM      8  C   UNL     1      35.296 -18.694 -23.130  0.00  0.00    +0.334 A 
ATOM      9  C   UNL     1      34.084 -14.678 -22.287  0.00  0.00    +0.014 C 
ATOM     10  C   UNL     1      33.407 -15.844 -24.715  0.00  0.00    +0.018 C 
ATOM     11  C   UNL     1      34.196 -18.541 -25.335  0.00  0.00    +0.135 C 
ATOM     12  C   UNL     1      33.352 -13.950 -23.220  0.00  0.00    +0.042 C 
ATOM     13  C   UNL     1      33.015 -14.533 -24.435  0.00  0.00    +0.010 C 
ENDROOT
BRANCH  12  14
ATOM     14  C   UNL     1      32.952 -12.610 -22.931  0.00  0.00    -0.064 C 
ATOM     15  C   UNL     1      32.614 -11.480 -22.683  0.00  0.00    -0.082 C 
BRANCH  15  16
ATOM     16  C   UNL     1      32.201 -10.105 -22.378  0.00  0.00    +0.103 C 
BRANCH  16  17
ATOM     17  C   UNL     1      33.267  -9.103 -22.741  0.00  0.00    -0.009 C 
ATOM     18  C   UNL     1      34.377  -9.518 -23.462  0.00  0.00    -0.003 C 
ATOM     19  C   UNL     1      33.121  -7.781 -22.349  0.00  0.00    -0.003 C 
ATOM     20  C   UNL     1      35.363  -8.591 -23.798  0.00  0.00    -0.000 C 
ATOM     21  C   UNL     1      34.107  -6.853 -22.685  0.00  0.00    -0.000 C 
ATOM     22  C   UNL     1      35.227  -7.258 -23.409  0.00  0.00    -0.000 C 
ENDBRANCH  16  17
ENDBRANCH  15  16
ENDBRANCH  12  14
BRANCH   3  23
ATOM     23  C   UNL     1      36.378 -18.813 -20.934  0.00  0.00    +0.140 C 
BRANCH  23  24
ATOM     24  C   UNL     1      35.558 -19.911 -20.311  0.00  0.00    +0.001 C 
ATOM     25  C   UNL     1      36.196 -20.926 -19.610  0.00  0.00    -0.002 C 
ATOM     26  C   UNL     1      34.177 -19.894 -20.446  0.00  0.00    -0.002 C 
ATOM     27  C   UNL     1      35.436 -21.944 -19.033  0.00  0.00    +0.006 C 
ATOM     28  C   UNL     1      33.418 -20.912 -19.869  0.00  0.00    +0.006 C 
ATOM     29  C   UNL     1      34.047 -21.937 -19.162  0.00  0.00    +0.075 C 
BRANCH  29  31
ATOM     30  O   UNL     1      32.269 -22.831 -17.835  0.00  0.00    -0.245 OA
ATOM     31  C   UNL     1      33.255 -22.998 -18.560  0.00  0.00    +0.338 C 
BRANCH  31  32
ATOM     32  O   UNL     1      33.717 -24.238 -18.879  0.00  0.00    -0.477 OA
ATOM     33  H   UNL     1      34.265 -24.354 -19.630  0.00  0.00    +0.295 HD
ENDBRANCH  31  32
ENDBRANCH  29  31
ENDBRANCH  23  24
ENDBRANCH   3  23
TORSDOF 7
ENDMDL
MODEL 9
REMARK VINA RESULT:     -11.4      9.956     15.406
REMARK  Name = 10224181
REMARK  7 active torsions:
REMARK  status: ('A' for Active; 'I' for Inactive)
REMARK    1  A    between atoms: N_3  and  C_23
REMARK    2  A    between atoms: C_12  and  C_14
REMARK    3  A    between atoms: C_15  and  C_16
REMARK    4  A    between atoms: C_16  and  C_17
REMARK    5  A    between atoms: C_23  and  C_24
REMARK    6  A    between atoms: C_29  and  C_31
REMARK    7  A    between atoms: C_31  and  O_32
REMARK                            x       y       z     vdW  Elec       q    Type
REMARK                         _______ _______ _______ _____ _____    ______ ____
ROOT
ATOM      1  O   UNL     1      32.313  -9.051 -24.372  0.00  0.00    -0.267 OA
ATOM      2  O   UNL     1      31.342  -7.106 -20.264  0.00  0.00    -0.246 OA
ATOM      3  N   UNL     1      31.822  -8.047 -22.323  0.00  0.00    -0.244 N 
ATOM      4  N   UNL     1      31.799  -9.376 -20.339  0.00  0.00    -0.279 N 
ATOM      5  C   UNL     1      32.137 -10.531 -21.105  0.00  0.00    +0.069 A 
ATOM      6  C   UNL     1      32.314 -10.425 -22.485  0.00  0.00    +0.073 A 
ATOM      7  C   UNL     1      32.154  -9.124 -23.155  0.00  0.00    +0.266 A 
ATOM      8  C   UNL     1      31.635  -8.110 -20.924  0.00  0.00    +0.334 A 
ATOM      9  C   UNL     1      32.647 -11.551 -23.256  0.00  0.00    +0.014 C 
ATOM     10  C   UNL     1      32.301 -11.796 -20.511  0.00  0.00    +0.018 C 
ATOM     11  C   UNL     1      31.619  -9.515 -18.895  0.00  0.00    +0.135 C 
ATOM     12  C   UNL     1      32.805 -12.794 -22.650  0.00  0.00    +0.042 C 
ATOM     13  C   UNL     1      32.633 -12.916 -21.277  0.00  0.00    +0.010 C 
ENDROOT
BRANCH  12  14
ATOM     14  C   UNL     1      33.144 -13.937 -23.436  0.00  0.00    -0.064 C 
ATOM     15  C   UNL     1      33.432 -14.903 -24.096  0.00  0.00    -0.082 C 
BRANCH  15  16
ATOM     16  C   UNL     1      33.785 -16.081 -24.897  0.00  0.00    +0.103 C 
BRANCH  16  17
ATOM     17  C   UNL     1      34.321 -17.202 -24.045  0.00  0.00    -0.009 C 
ATOM     18  C   UNL     1      35.092 -16.904 -22.931  0.00  0.00    -0.003 C 
ATOM     19  C   UNL     1      34.035 -18.516 -24.387  0.00  0.00    -0.003 C 
ATOM     20  C   UNL     1      35.587 -17.942 -22.142  0.00  0.00    -0.000 C 
ATOM     21  C   UNL     1      34.531 -19.553 -23.599  0.00  0.00    -0.000 C 
ATOM     22  C   UNL     1      35.307 -19.267 -22.476  0.00  0.00    -0.000 C 
ENDBRANCH  16  17
ENDBRANCH  15  16
ENDBRANCH  12  14
BRANCH   3  23
ATOM     23  C   UNL     1      31.657  -6.742 -22.958  0.00  0.00    +0.140 C 
BRANCH  23  24
ATOM     24  C   UNL     1      32.794  -6.425 -23.891  0.00  0.00    +0.001 C 
ATOM     25  C   UNL     1      34.102  -6.557 -23.445  0.00  0.00    -0.002 C 
ATOM     26  C   UNL     1      32.520  -6.006 -25.186  0.00  0.00    -0.002 C 
ATOM     27  C   UNL     1      35.156  -6.263 -24.309  0.00  0.00    +0.006 C 
ATOM     28  C   UNL     1      33.574  -5.712 -26.051  0.00  0.00    +0.006 C 
ATOM     29  C   UNL     1      34.892  -5.840 -25.612  0.00  0.00    +0.075 C 
BRANCH  29  31
ATOM     30  O   UNL     1      36.848  -4.663 -26.329  0.00  0.00    -0.245 OA
ATOM     31  C   UNL     1      35.992  -5.534 -26.515  0.00  0.00    +0.338 C 
BRANCH  31  32
ATOM     32  O   UNL     1      35.990  -6.323 -27.624  0.00  0.00    -0.477 OA
ATOM     33  H   UNL     1      36.481  -6.068 -28.380  0.00  0.00    +0.295 HD
ENDBRANCH  31  32
ENDBRANCH  29  31
ENDBRANCH  23  24
ENDBRANCH   3  23
TORSDOF 7
ENDMDL
