MODEL 1
REMARK VINA RESULT:     -12.3      0.000      0.000
REMARK  Name = 7297549
REMARK  3 active torsions:
REMARK  status: ('A' for Active; 'I' for Inactive)
REMARK    1  A    between atoms: N_3  and  S_16
REMARK    2  A    between atoms: C_7  and  C_11
REMARK    3  A    between atoms: S_16  and  C_19
REMARK                            x       y       z     vdW  Elec       q    Type
REMARK                         _______ _______ _______ _____ _____    ______ ____
ROOT
ATOM      1  S   UNL     1      34.224 -15.225 -21.620  0.00  0.00    -0.025 S 
ATOM      2  O   UNL     1      34.248 -15.943 -25.364  0.00  0.00    -0.209 OA
ATOM      3  N   UNL     1      35.549 -17.512 -21.145  0.00  0.00    -0.183 N 
ATOM      4  N   UNL     1      35.002 -16.943 -23.411  0.00  0.00    -0.309 NA
ATOM      5  C   UNL     1      34.990 -16.691 -22.144  0.00  0.00    +0.243 C 
ATOM      6  C   UNL     1      33.860 -14.869 -23.261  0.00  0.00    +0.131 C 
ATOM      7  C   UNL     1      33.213 -13.791 -23.704  0.00  0.00    +0.057 C 
ATOM      8  C   UNL     1      34.375 -15.952 -24.147  0.00  0.00    +0.213 C 
ATOM      9  H   UNL     1      35.447 -17.229 -20.207  0.00  0.00    +0.177 HD
ENDROOT
BRANCH   7  11
ATOM     10  O   UNL     1      32.951 -11.442 -23.153  0.00  0.00    -0.458 OA
ATOM     11  C   UNL     1      32.711 -12.738 -22.869  0.00  0.00    +0.146 C 
ATOM     12  C   UNL     1      32.340 -10.728 -22.172  0.00  0.00    +0.123 C 
ATOM     13  C   UNL     1      31.965 -12.884 -21.738  0.00  0.00    +0.040 C 
ATOM     14  C   UNL     1      31.720 -11.569 -21.277  0.00  0.00    +0.036 C 
ATOM     15  C   UNL     1      32.460  -9.266 -22.261  0.00  0.00    +0.072 C 
ENDBRANCH   7  11
BRANCH   3  16
ATOM     16  S   UNL     1      36.394 -18.970 -21.451  0.00  0.00    +0.076 S 
ATOM     17  O   UNL     1      37.738 -18.860 -20.898  0.00  0.00    -0.150 OA
ATOM     18  O   UNL     1      36.223 -19.323 -22.854  0.00  0.00    -0.150 OA
BRANCH  16  19
ATOM     19  C   UNL     1      35.484 -20.113 -20.496  0.00  0.00    +0.125 C 
ATOM     20  C   UNL     1      36.149 -21.015 -19.665  0.00  0.00    +0.020 C 
ATOM     21  C   UNL     1      34.091 -20.124 -20.563  0.00  0.00    +0.020 C 
ATOM     22  C   UNL     1      34.029 -21.938 -18.968  0.00  0.00    -0.022 C 
ATOM     23  C   UNL     1      35.422 -21.927 -18.901  0.00  0.00    -0.003 C 
ATOM     24  C   UNL     1      33.363 -21.036 -19.799  0.00  0.00    -0.003 C 
ATOM     25  C   UNL     1      33.251 -22.914 -18.152  0.00  0.00    +0.031 C 
ENDBRANCH  16  19
ENDBRANCH   3  16
TORSDOF 3
ENDMDL
MODEL 2
REMARK VINA RESULT:     -10.3      5.340     10.148
REMARK  Name = 7297549
REMARK  3 active torsions:
REMARK  status: ('A' for Active; 'I' for Inactive)
REMARK    1  A    between atoms: N_3  and  S_16
REMARK    2  A    between atoms: C_7  and  C_11
REMARK    3  A    between atoms: S_16  and  C_19
REMARK                            x       y       z     vdW  Elec       q    Type
REMARK                         _______ _______ _______ _____ _____    ______ ____
ROOT
ATOM      1  S   UNL     1      32.773 -23.101 -16.935  0.00  0.00    -0.025 S 
ATOM      2  O   UNL     1      35.373 -23.985 -14.290  0.00  0.00    -0.209 OA
ATOM      3  N   UNL     1      34.678 -22.015 -18.485  0.00  0.00    -0.183 N 
ATOM      4  N   UNL     1      35.308 -22.960 -16.371  0.00  0.00    -0.309 NA
ATOM      5  C   UNL     1      34.421 -22.666 -17.262  0.00  0.00    +0.243 C 
ATOM      6  C   UNL     1      33.283 -23.763 -15.433  0.00  0.00    +0.131 C 
ATOM      7  C   UNL     1      32.497 -24.344 -14.526  0.00  0.00    +0.057 C 
ATOM      8  C   UNL     1      34.756 -23.598 -15.273  0.00  0.00    +0.213 C 
ATOM      9  H   UNL     1      33.912 -21.814 -19.069  0.00  0.00    +0.177 HD
ENDROOT
BRANCH   7  11
ATOM     10  O   UNL     1      30.297 -23.526 -15.146  0.00  0.00    -0.458 OA
ATOM     11  C   UNL     1      31.079 -24.513 -14.661  0.00  0.00    +0.146 C 
ATOM     12  C   UNL     1      29.031 -24.017 -15.136  0.00  0.00    +0.123 C 
ATOM     13  C   UNL     1      30.358 -25.624 -14.340  0.00  0.00    +0.040 C 
ATOM     14  C   UNL     1      29.015 -25.303 -14.648  0.00  0.00    +0.036 C 
ATOM     15  C   UNL     1      27.980 -23.114 -15.626  0.00  0.00    +0.072 C 
ENDBRANCH   7  11
BRANCH   3  16
ATOM     16  S   UNL     1      36.236 -21.550 -19.024  0.00  0.00    +0.076 S 
ATOM     17  O   UNL     1      36.890 -22.705 -19.626  0.00  0.00    -0.150 OA
ATOM     18  O   UNL     1      36.905 -20.826 -17.951  0.00  0.00    -0.150 OA
BRANCH  16  19
ATOM     19  C   UNL     1      35.847 -20.404 -20.282  0.00  0.00    +0.125 C 
ATOM     20  C   UNL     1      36.802 -19.478 -20.703  0.00  0.00    +0.020 C 
ATOM     21  C   UNL     1      34.581 -20.413 -20.867  0.00  0.00    +0.020 C 
ATOM     22  C   UNL     1      35.226 -18.573 -22.294  0.00  0.00    -0.022 C 
ATOM     23  C   UNL     1      36.491 -18.564 -21.709  0.00  0.00    -0.003 C 
ATOM     24  C   UNL     1      34.270 -19.499 -21.873  0.00  0.00    -0.003 C 
ATOM     25  C   UNL     1      34.893 -17.595 -23.369  0.00  0.00    +0.031 C 
ENDBRANCH  16  19
ENDBRANCH   3  16
TORSDOF 3
ENDMDL
MODEL 3
REMARK VINA RESULT:     -10.3      1.848      8.471
REMARK  Name = 7297549
REMARK  3 active torsions:
REMARK  status: ('A' for Active; 'I' for Inactive)
REMARK    1  A    between atoms: N_3  and  S_16
REMARK    2  A    between atoms: C_7  and  C_11
REMARK    3  A    between atoms: S_16  and  C_19
REMARK                            x       y       z     vdW  Elec       q    Type
REMARK                         _______ _______ _______ _____ _____    ______ ____
ROOT
ATOM      1  S   UNL     1      34.966 -16.577 -21.542  0.00  0.00    -0.025 S 
ATOM      2  O   UNL     1      34.475 -17.750 -25.136  0.00  0.00    -0.209 OA
ATOM      3  N   UNL     1      34.016 -14.146 -22.177  0.00  0.00    -0.183 N 
ATOM      4  N   UNL     1      34.147 -15.819 -23.892  0.00  0.00    -0.309 NA
ATOM      5  C   UNL     1      34.316 -15.431 -22.671  0.00  0.00    +0.243 C 
ATOM      6  C   UNL     1      35.036 -17.734 -22.810  0.00  0.00    +0.131 C 
ATOM      7  C   UNL     1      35.472 -18.989 -22.702  0.00  0.00    +0.057 C 
ATOM      8  C   UNL     1      34.532 -17.137 -24.079  0.00  0.00    +0.213 C 
ATOM      9  H   UNL     1      34.221 -13.958 -21.232  0.00  0.00    +0.177 HD
ENDROOT
BRANCH   7  11
ATOM     10  O   UNL     1      35.269 -20.553 -20.856  0.00  0.00    -0.458 OA
ATOM     11  C   UNL     1      35.960 -19.584 -21.491  0.00  0.00    +0.146 C 
ATOM     12  C   UNL     1      36.007 -20.880 -19.764  0.00  0.00    +0.123 C 
ATOM     13  C   UNL     1      37.119 -19.276 -20.844  0.00  0.00    +0.040 C 
ATOM     14  C   UNL     1      37.154 -20.123 -19.711  0.00  0.00    +0.036 C 
ATOM     15  C   UNL     1      35.455 -21.931 -18.898  0.00  0.00    +0.072 C 
ENDBRANCH   7  11
BRANCH   3  16
ATOM     16  S   UNL     1      33.320 -12.888 -23.108  0.00  0.00    +0.076 S 
ATOM     17  O   UNL     1      32.243 -13.443 -23.918  0.00  0.00    -0.150 OA
ATOM     18  O   UNL     1      34.389 -12.139 -23.754  0.00  0.00    -0.150 OA
BRANCH  16  19
ATOM     19  C   UNL     1      32.627 -11.873 -21.869  0.00  0.00    +0.125 C 
ATOM     20  C   UNL     1      32.439 -12.374 -20.580  0.00  0.00    +0.020 C 
ATOM     21  C   UNL     1      32.262 -10.560 -22.166  0.00  0.00    +0.020 C 
ATOM     22  C   UNL     1      31.522 -10.250 -19.887  0.00  0.00    -0.022 C 
ATOM     23  C   UNL     1      31.887 -11.562 -19.590  0.00  0.00    -0.003 C 
ATOM     24  C   UNL     1      31.710  -9.748 -21.176  0.00  0.00    -0.003 C 
ATOM     25  C   UNL     1      30.931  -9.381 -18.829  0.00  0.00    +0.031 C 
ENDBRANCH  16  19
ENDBRANCH   3  16
TORSDOF 3
ENDMDL
MODEL 4
REMARK VINA RESULT:     -10.2      6.362     11.478
REMARK  Name = 7297549
REMARK  3 active torsions:
REMARK  status: ('A' for Active; 'I' for Inactive)
REMARK    1  A    between atoms: N_3  and  S_16
REMARK    2  A    between atoms: C_7  and  C_11
REMARK    3  A    between atoms: S_16  and  C_19
REMARK                            x       y       z     vdW  Elec       q    Type
REMARK                         _______ _______ _______ _____ _____    ______ ____
ROOT
ATOM      1  S   UNL     1      35.254 -23.400 -14.735  0.00  0.00    -0.025 S 
ATOM      2  O   UNL     1      31.799 -24.893 -14.123  0.00  0.00    -0.209 OA
ATOM      3  N   UNL     1      34.594 -22.845 -17.279  0.00  0.00    -0.183 N 
ATOM      4  N   UNL     1      32.967 -23.904 -15.868  0.00  0.00    -0.309 NA
ATOM      5  C   UNL     1      34.139 -23.399 -16.065  0.00  0.00    +0.243 C 
ATOM      6  C   UNL     1      34.049 -24.157 -13.772  0.00  0.00    +0.131 C 
ATOM      7  C   UNL     1      34.177 -24.512 -12.493  0.00  0.00    +0.057 C 
ATOM      8  C   UNL     1      32.810 -24.371 -14.573  0.00  0.00    +0.213 C 
ATOM      9  H   UNL     1      35.523 -22.521 -17.317  0.00  0.00    +0.177 HD
ENDROOT
BRANCH   7  11
ATOM     10  O   UNL     1      36.575 -24.204 -12.279  0.00  0.00    -0.458 OA
ATOM     11  C   UNL     1      35.360 -24.315 -11.705  0.00  0.00    +0.146 C 
ATOM     12  C   UNL     1      37.453 -24.030 -11.257  0.00  0.00    +0.123 C 
ATOM     13  C   UNL     1      35.425 -24.219 -10.347  0.00  0.00    +0.040 C 
ATOM     14  C   UNL     1      36.795 -24.033 -10.048  0.00  0.00    +0.036 C 
ATOM     15  C   UNL     1      38.866 -23.881 -11.632  0.00  0.00    +0.072 C 
ENDBRANCH   7  11
BRANCH   3  16
ATOM     16  S   UNL     1      33.639 -22.698 -18.693  0.00  0.00    +0.076 S 
ATOM     17  O   UNL     1      32.329 -22.174 -18.325  0.00  0.00    -0.150 OA
ATOM     18  O   UNL     1      33.726 -23.941 -19.447  0.00  0.00    -0.150 OA
BRANCH  16  19
ATOM     19  C   UNL     1      34.507 -21.471 -19.580  0.00  0.00    +0.125 C 
ATOM     20  C   UNL     1      35.896 -21.386 -19.477  0.00  0.00    +0.020 C 
ATOM     21  C   UNL     1      33.813 -20.575 -20.393  0.00  0.00    +0.020 C 
ATOM     22  C   UNL     1      35.896 -19.511 -20.999  0.00  0.00    -0.022 C 
ATOM     23  C   UNL     1      36.590 -20.407 -20.187  0.00  0.00    -0.003 C 
ATOM     24  C   UNL     1      34.507 -19.595 -21.103  0.00  0.00    -0.003 C 
ATOM     25  C   UNL     1      36.638 -18.463 -21.758  0.00  0.00    +0.031 C 
ENDBRANCH  16  19
ENDBRANCH   3  16
TORSDOF 3
ENDMDL
MODEL 5
REMARK VINA RESULT:      -9.6      5.148     11.507
REMARK  Name = 7297549
REMARK  3 active torsions:
REMARK  status: ('A' for Active; 'I' for Inactive)
REMARK    1  A    between atoms: N_3  and  S_16
REMARK    2  A    between atoms: C_7  and  C_11
REMARK    3  A    between atoms: S_16  and  C_19
REMARK                            x       y       z     vdW  Elec       q    Type
REMARK                         _______ _______ _______ _____ _____    ______ ____
ROOT
ATOM      1  S   UNL     1      33.333 -11.194 -23.183  0.00  0.00    -0.025 S 
ATOM      2  O   UNL     1      30.292 -11.194 -20.883  0.00  0.00    -0.209 OA
ATOM      3  N   UNL     1      32.933  -8.602 -23.759  0.00  0.00    -0.183 N 
ATOM      4  N   UNL     1      31.424  -9.696 -22.248  0.00  0.00    -0.309 NA
ATOM      5  C   UNL     1      32.456  -9.706 -23.024  0.00  0.00    +0.243 C 
ATOM      6  C   UNL     1      32.222 -11.925 -22.095  0.00  0.00    +0.131 C 
ATOM      7  C   UNL     1      32.247 -13.193 -21.684  0.00  0.00    +0.057 C 
ATOM      8  C   UNL     1      31.200 -10.931 -21.660  0.00  0.00    +0.213 C 
ATOM      9  H   UNL     1      33.712  -8.741 -24.344  0.00  0.00    +0.177 HD
ENDROOT
BRANCH   7  11
ATOM     10  O   UNL     1      33.233 -14.665 -23.342  0.00  0.00    -0.458 OA
ATOM     11  C   UNL     1      33.221 -14.165 -22.090  0.00  0.00    +0.146 C 
ATOM     12  C   UNL     1      34.267 -15.545 -23.380  0.00  0.00    +0.123 C 
ATOM     13  C   UNL     1      34.212 -14.693 -21.319  0.00  0.00    +0.040 C 
ATOM     14  C   UNL     1      34.901 -15.599 -22.160  0.00  0.00    +0.036 C 
ATOM     15  C   UNL     1      34.490 -16.232 -24.659  0.00  0.00    +0.072 C 
ENDBRANCH   7  11
BRANCH   3  16
ATOM     16  S   UNL     1      32.248  -7.033 -23.702  0.00  0.00    +0.076 S 
ATOM     17  O   UNL     1      32.311  -6.541 -22.332  0.00  0.00    -0.150 OA
ATOM     18  O   UNL     1      30.967  -7.057 -24.397  0.00  0.00    -0.150 OA
BRANCH  16  19
ATOM     19  C   UNL     1      33.370  -6.122 -24.680  0.00  0.00    +0.125 C 
ATOM     20  C   UNL     1      32.913  -5.065 -25.467  0.00  0.00    +0.020 C 
ATOM     21  C   UNL     1      34.726  -6.451 -24.675  0.00  0.00    +0.020 C 
ATOM     22  C   UNL     1      35.165  -4.664 -26.242  0.00  0.00    -0.022 C 
ATOM     23  C   UNL     1      33.810  -4.336 -26.247  0.00  0.00    -0.003 C 
ATOM     24  C   UNL     1      35.624  -5.722 -25.455  0.00  0.00    -0.003 C 
ATOM     25  C   UNL     1      36.125  -3.886 -27.076  0.00  0.00    +0.031 C 
ENDBRANCH  16  19
ENDBRANCH   3  16
TORSDOF 3
ENDMDL
MODEL 6
REMARK VINA RESULT:      -9.4      2.860      4.886
REMARK  Name = 7297549
REMARK  3 active torsions:
REMARK  status: ('A' for Active; 'I' for Inactive)
REMARK    1  A    between atoms: N_3  and  S_16
REMARK    2  A    between atoms: C_7  and  C_11
REMARK    3  A    between atoms: S_16  and  C_19
REMARK                            x       y       z     vdW  Elec       q    Type
REMARK                         _______ _______ _______ _____ _____    ______ ____
ROOT
ATOM      1  S   UNL     1      34.215 -19.121 -21.030  0.00  0.00    -0.025 S 
ATOM      2  O   UNL     1      38.019 -19.141 -20.783  0.00  0.00    -0.209 OA
ATOM      3  N   UNL     1      34.087 -21.442 -19.685  0.00  0.00    -0.183 N 
ATOM      4  N   UNL     1      36.240 -20.474 -20.117  0.00  0.00    -0.309 NA
ATOM      5  C   UNL     1      34.951 -20.458 -20.205  0.00  0.00    +0.243 C 
ATOM      6  C   UNL     1      35.782 -18.475 -21.310  0.00  0.00    +0.131 C 
ATOM      7  C   UNL     1      36.058 -17.341 -21.953  0.00  0.00    +0.057 C 
ATOM      8  C   UNL     1      36.819 -19.371 -20.723  0.00  0.00    +0.213 C 
ATOM      9  H   UNL     1      33.121 -21.337 -19.845  0.00  0.00    +0.177 HD
ENDROOT
BRANCH   7  11
ATOM     10  O   UNL     1      34.562 -15.434 -21.820  0.00  0.00    -0.458 OA
ATOM     11  C   UNL     1      35.076 -16.464 -22.524  0.00  0.00    +0.146 C 
ATOM     12  C   UNL     1      33.676 -14.825 -22.650  0.00  0.00    +0.123 C 
ATOM     13  C   UNL     1      34.551 -16.539 -23.779  0.00  0.00    +0.040 C 
ATOM     14  C   UNL     1      33.632 -15.467 -23.866  0.00  0.00    +0.036 C 
ATOM     15  C   UNL     1      32.974 -13.655 -22.105  0.00  0.00    +0.072 C 
ENDBRANCH   7  11
BRANCH   3  16
ATOM     16  S   UNL     1      34.604 -22.810 -18.793  0.00  0.00    +0.076 S 
ATOM     17  O   UNL     1      35.879 -22.503 -18.157  0.00  0.00    -0.150 OA
ATOM     18  O   UNL     1      34.492 -23.990 -19.641  0.00  0.00    -0.150 OA
BRANCH  16  19
ATOM     19  C   UNL     1      33.371 -22.916 -17.563  0.00  0.00    +0.125 C 
ATOM     20  C   UNL     1      32.076 -22.469 -17.830  0.00  0.00    +0.020 C 
ATOM     21  C   UNL     1      33.679 -23.448 -16.310  0.00  0.00    +0.020 C 
ATOM     22  C   UNL     1      31.399 -23.087 -15.596  0.00  0.00    -0.022 C 
ATOM     23  C   UNL     1      31.091 -22.556 -16.847  0.00  0.00    -0.003 C 
ATOM     24  C   UNL     1      32.694 -23.534 -15.327  0.00  0.00    -0.003 C 
ATOM     25  C   UNL     1      30.346 -23.179 -14.544  0.00  0.00    +0.031 C 
ENDBRANCH  16  19
ENDBRANCH   3  16
TORSDOF 3
ENDMDL
