MODEL 1
REMARK VINA RESULT:     -13.3      0.000      0.000
REMARK  Name = 9800765
REMARK  5 active torsions:
REMARK  status: ('A' for Active; 'I' for Inactive)
REMARK    1  A    between atoms: C_3  and  C_17
REMARK    2  A    between atoms: C_5  and  N_8
REMARK    3  A    between atoms: N_8  and  C_14
REMARK    4  A    between atoms: C_17  and  C_20
REMARK    5  A    between atoms: C_23  and  C_26
REMARK                            x       y       z     vdW  Elec       q    Type
REMARK                         _______ _______ _______ _____ _____    ______ ____
ROOT
ATOM      1  O   UNL     1      37.299 -22.356 -15.966  0.00  0.00    -0.337 OA
ATOM      2  N   UNL     1      36.516 -22.441 -17.110  0.00  0.00    -0.079 NA
ATOM      3  C   UNL     1      35.347 -22.936 -16.692  0.00  0.00    +0.106 C 
ATOM      4  C   UNL     1      35.336 -23.180 -15.308  0.00  0.00    +0.076 C 
ATOM      5  C   UNL     1      36.582 -22.798 -14.909  0.00  0.00    +0.252 C 
ENDROOT
BRANCH   3   6
ATOM      6  C   UNL     1      34.259 -23.162 -17.657  0.00  0.00    +0.066 C 
ATOM      7  C   UNL     1      32.859 -23.276 -17.004  0.00  0.00    +0.011 C 
BRANCH   6   9
ATOM      8  F   UNL     1      36.953 -20.304 -20.520  0.00  0.00    -0.204 F 
ATOM      9  C   UNL     1      34.376 -22.086 -18.741  0.00  0.00    -0.015 C 
ATOM     10  C   UNL     1      35.629 -21.685 -19.136  0.00  0.00    +0.026 C 
ATOM     11  C   UNL     1      33.221 -21.562 -19.274  0.00  0.00    -0.004 C 
ATOM     12  C   UNL     1      34.585 -20.154 -20.685  0.00  0.00    +0.027 C 
ATOM     13  C   UNL     1      35.736 -20.705 -20.123  0.00  0.00    +0.140 C 
ATOM     14  C   UNL     1      33.328 -20.582 -20.260  0.00  0.00    +0.002 C 
BRANCH  12  15
ATOM     15  C   UNL     1      34.691 -19.138 -21.710  0.00  0.00    +0.002 C 
ATOM     16  C   UNL     1      35.153 -17.863 -21.381  0.00  0.00    +0.000 C 
ATOM     17  C   UNL     1      34.331 -19.432 -23.024  0.00  0.00    +0.000 C 
ATOM     18  C   UNL     1      35.256 -16.884 -22.369  0.00  0.00    +0.000 C 
ATOM     19  C   UNL     1      34.434 -18.452 -24.012  0.00  0.00    +0.000 C 
ATOM     20  C   UNL     1      34.896 -17.177 -23.684  0.00  0.00    +0.000 C 
ENDBRANCH  12  15
ENDBRANCH   6   9
ENDBRANCH   3   6
BRANCH   5  21
ATOM     21  N   UNL     1      37.131 -22.815 -13.662  0.00  0.00    -0.147 NA
BRANCH  21  29
ATOM     22  O   UNL     1      38.645 -27.361 -14.177  0.00  0.00    -0.350 OA
ATOM     23  N   UNL     1      37.535 -25.019 -13.112  0.00  0.00    -0.277 N 
ATOM     24  N   UNL     1      35.988 -23.949 -11.858  0.00  0.00    -0.373 N 
ATOM     25  C   UNL     1      36.932 -26.316 -12.815  0.00  0.00    +0.125 C 
ATOM     26  C   UNL     1      38.953 -25.064 -13.460  0.00  0.00    +0.125 C 
ATOM     27  C   UNL     1      37.235 -27.286 -13.950  0.00  0.00    +0.164 C 
ATOM     28  C   UNL     1      39.168 -26.089 -14.567  0.00  0.00    +0.164 C 
ATOM     29  C   UNL     1      36.881 -23.855 -12.906  0.00  0.00    +0.182 C 
ATOM     30  H   UNL     1      35.893 -24.797 -11.367  0.00  0.00    +0.158 HD
ATOM     31  H   UNL     1      35.445 -23.169 -11.602  0.00  0.00    +0.158 HD
ENDBRANCH  21  29
ENDBRANCH   5  21
TORSDOF 5
ENDMDL
MODEL 2
REMARK VINA RESULT:     -12.5      1.325      2.045
REMARK  Name = 9800765
REMARK  5 active torsions:
REMARK  status: ('A' for Active; 'I' for Inactive)
REMARK    1  A    between atoms: C_3  and  C_17
REMARK    2  A    between atoms: C_5  and  N_8
REMARK    3  A    between atoms: N_8  and  C_14
REMARK    4  A    between atoms: C_17  and  C_20
REMARK    5  A    between atoms: C_23  and  C_26
REMARK                            x       y       z     vdW  Elec       q    Type
REMARK                         _______ _______ _______ _____ _____    ______ ____
ROOT
ATOM      1  O   UNL     1      37.322 -21.820 -16.547  0.00  0.00    -0.337 OA
ATOM      2  N   UNL     1      36.465 -21.720 -17.637  0.00  0.00    -0.079 NA
ATOM      3  C   UNL     1      35.480 -22.587 -17.382  0.00  0.00    +0.106 C 
ATOM      4  C   UNL     1      35.661 -23.255 -16.159  0.00  0.00    +0.076 C 
ATOM      5  C   UNL     1      36.828 -22.735 -15.683  0.00  0.00    +0.252 C 
ENDROOT
BRANCH   3   6
ATOM      6  C   UNL     1      34.376 -22.746 -18.342  0.00  0.00    +0.066 C 
ATOM      7  C   UNL     1      32.988 -22.911 -17.676  0.00  0.00    +0.011 C 
BRANCH   6   9
ATOM      8  F   UNL     1      37.018 -19.695 -21.052  0.00  0.00    -0.204 F 
ATOM      9  C   UNL     1      34.473 -21.594 -19.348  0.00  0.00    -0.015 C 
ATOM     10  C   UNL     1      35.720 -21.170 -19.742  0.00  0.00    +0.026 C 
ATOM     11  C   UNL     1      33.310 -21.030 -19.816  0.00  0.00    -0.004 C 
ATOM     12  C   UNL     1      34.648 -19.527 -21.152  0.00  0.00    +0.027 C 
ATOM     13  C   UNL     1      35.808 -20.121 -20.657  0.00  0.00    +0.140 C 
ATOM     14  C   UNL     1      33.398 -19.982 -20.731  0.00  0.00    +0.002 C 
BRANCH  12  15
ATOM     15  C   UNL     1      34.734 -18.440 -22.103  0.00  0.00    +0.002 C 
ATOM     16  C   UNL     1      34.494 -18.679 -23.456  0.00  0.00    +0.000 C 
ATOM     17  C   UNL     1      35.057 -17.156 -21.667  0.00  0.00    +0.000 C 
ATOM     18  C   UNL     1      34.576 -17.632 -24.374  0.00  0.00    +0.000 C 
ATOM     19  C   UNL     1      35.139 -16.108 -22.585  0.00  0.00    +0.000 C 
ATOM     20  C   UNL     1      34.899 -16.346 -23.939  0.00  0.00    +0.000 C 
ENDBRANCH  12  15
ENDBRANCH   6   9
ENDBRANCH   3   6
BRANCH   5  21
ATOM     21  N   UNL     1      37.490 -23.017 -14.526  0.00  0.00    -0.147 NA
BRANCH  21  29
ATOM     22  O   UNL     1      36.210 -26.020 -10.981  0.00  0.00    -0.350 OA
ATOM     23  N   UNL     1      37.258 -25.001 -13.370  0.00  0.00    -0.277 N 
ATOM     24  N   UNL     1      38.831 -24.974 -14.995  0.00  0.00    -0.373 N 
ATOM     25  C   UNL     1      37.958 -26.070 -12.662  0.00  0.00    +0.125 C 
ATOM     26  C   UNL     1      35.823 -24.924 -13.110  0.00  0.00    +0.125 C 
ATOM     27  C   UNL     1      37.626 -25.991 -11.176  0.00  0.00    +0.164 C 
ATOM     28  C   UNL     1      35.585 -24.896 -11.605  0.00  0.00    +0.164 C 
ATOM     29  C   UNL     1      37.857 -24.259 -14.328  0.00  0.00    +0.182 C 
ATOM     30  H   UNL     1      39.012 -25.909 -14.746  0.00  0.00    +0.158 HD
ATOM     31  H   UNL     1      39.346 -24.549 -15.719  0.00  0.00    +0.158 HD
ENDBRANCH  21  29
ENDBRANCH   5  21
TORSDOF 5
ENDMDL
MODEL 3
REMARK VINA RESULT:     -12.2      3.721      6.892
REMARK  Name = 9800765
REMARK  5 active torsions:
REMARK  status: ('A' for Active; 'I' for Inactive)
REMARK    1  A    between atoms: C_3  and  C_17
REMARK    2  A    between atoms: C_5  and  N_8
REMARK    3  A    between atoms: N_8  and  C_14
REMARK    4  A    between atoms: C_17  and  C_20
REMARK    5  A    between atoms: C_23  and  C_26
REMARK                            x       y       z     vdW  Elec       q    Type
REMARK                         _______ _______ _______ _____ _____    ______ ____
ROOT
ATOM      1  O   UNL     1      36.018 -19.330 -20.409  0.00  0.00    -0.337 OA
ATOM      2  N   UNL     1      36.252 -18.544 -21.531  0.00  0.00    -0.079 NA
ATOM      3  C   UNL     1      35.218 -18.784 -22.343  0.00  0.00    +0.106 C 
ATOM      4  C   UNL     1      34.309 -19.703 -21.791  0.00  0.00    +0.076 C 
ATOM      5  C   UNL     1      34.861 -20.009 -20.583  0.00  0.00    +0.252 C 
ENDROOT
BRANCH   3   6
ATOM      6  C   UNL     1      35.137 -18.106 -23.647  0.00  0.00    +0.066 C 
ATOM      7  C   UNL     1      34.382 -18.920 -24.727  0.00  0.00    +0.011 C 
BRANCH   6   9
ATOM      8  F   UNL     1      34.583 -14.211 -20.793  0.00  0.00    -0.204 F 
ATOM      9  C   UNL     1      34.584 -16.699 -23.399  0.00  0.00    -0.015 C 
ATOM     10  C   UNL     1      34.843 -16.095 -22.192  0.00  0.00    +0.026 C 
ATOM     11  C   UNL     1      33.849 -16.097 -24.394  0.00  0.00    -0.004 C 
ATOM     12  C   UNL     1      33.591 -14.175 -22.954  0.00  0.00    +0.027 C 
ATOM     13  C   UNL     1      34.339 -14.814 -21.966  0.00  0.00    +0.140 C 
ATOM     14  C   UNL     1      33.346 -14.817 -24.168  0.00  0.00    +0.002 C 
BRANCH  12  15
ATOM     15  C   UNL     1      33.068 -12.846 -22.725  0.00  0.00    +0.002 C 
ATOM     16  C   UNL     1      32.027 -12.654 -21.815  0.00  0.00    +0.000 C 
ATOM     17  C   UNL     1      33.603 -11.757 -23.413  0.00  0.00    +0.000 C 
ATOM     18  C   UNL     1      31.523 -11.373 -21.593  0.00  0.00    +0.000 C 
ATOM     19  C   UNL     1      33.098 -10.475 -23.190  0.00  0.00    +0.000 C 
ATOM     20  C   UNL     1      32.058 -10.283 -22.281  0.00  0.00    +0.000 C 
ENDBRANCH  12  15
ENDBRANCH   6   9
ENDBRANCH   3   6
BRANCH   5  21
ATOM     21  N   UNL     1      34.407 -20.855 -19.617  0.00  0.00    -0.147 NA
BRANCH  21  29
ATOM     22  O   UNL     1      33.793 -23.778 -15.835  0.00  0.00    -0.350 OA
ATOM     23  N   UNL     1      34.896 -22.493 -18.066  0.00  0.00    -0.277 N 
ATOM     24  N   UNL     1      36.658 -21.625 -19.186  0.00  0.00    -0.373 N 
ATOM     25  C   UNL     1      35.750 -22.870 -16.942  0.00  0.00    +0.125 C 
ATOM     26  C   UNL     1      33.676 -23.284 -18.207  0.00  0.00    +0.125 C 
ATOM     27  C   UNL     1      34.916 -22.911 -15.667  0.00  0.00    +0.164 C 
ATOM     28  C   UNL     1      32.934 -23.306 -16.877  0.00  0.00    +0.164 C 
ATOM     29  C   UNL     1      35.290 -21.604 -19.005  0.00  0.00    +0.182 C 
ATOM     30  H   UNL     1      37.216 -22.240 -18.656  0.00  0.00    +0.158 HD
ATOM     31  H   UNL     1      37.078 -21.024 -19.843  0.00  0.00    +0.158 HD
ENDBRANCH  21  29
ENDBRANCH   5  21
TORSDOF 5
ENDMDL
MODEL 4
REMARK VINA RESULT:     -12.0      1.629      2.012
REMARK  Name = 9800765
REMARK  5 active torsions:
REMARK  status: ('A' for Active; 'I' for Inactive)
REMARK    1  A    between atoms: C_3  and  C_17
REMARK    2  A    between atoms: C_5  and  N_8
REMARK    3  A    between atoms: N_8  and  C_14
REMARK    4  A    between atoms: C_17  and  C_20
REMARK    5  A    between atoms: C_23  and  C_26
REMARK                            x       y       z     vdW  Elec       q    Type
REMARK                         _______ _______ _______ _____ _____    ______ ____
ROOT
ATOM      1  O   UNL     1      35.449 -24.805 -14.997  0.00  0.00    -0.337 OA
ATOM      2  N   UNL     1      34.613 -24.851 -16.106  0.00  0.00    -0.079 NA
ATOM      3  C   UNL     1      33.757 -23.839 -15.935  0.00  0.00    +0.106 C 
ATOM      4  C   UNL     1      34.003 -23.127 -14.749  0.00  0.00    +0.076 C 
ATOM      5  C   UNL     1      35.072 -23.776 -14.206  0.00  0.00    +0.252 C 
ENDROOT
BRANCH   3   6
ATOM      6  C   UNL     1      32.711 -23.585 -16.939  0.00  0.00    +0.066 C 
ATOM      7  C   UNL     1      31.367 -23.111 -16.334  0.00  0.00    +0.011 C 
BRANCH   6   9
ATOM      8  F   UNL     1      32.184 -20.165 -20.351  0.00  0.00    -0.204 F 
ATOM      9  C   UNL     1      33.306 -22.648 -17.994  0.00  0.00    -0.015 C 
ATOM     10  C   UNL     1      32.457 -21.827 -18.696  0.00  0.00    +0.026 C 
ATOM     11  C   UNL     1      34.666 -22.666 -18.198  0.00  0.00    -0.004 C 
ATOM     12  C   UNL     1      34.374 -20.967 -19.888  0.00  0.00    +0.027 C 
ATOM     13  C   UNL     1      32.999 -20.973 -19.657  0.00  0.00    +0.140 C 
ATOM     14  C   UNL     1      35.208 -21.814 -19.158  0.00  0.00    +0.002 C 
BRANCH  12  15
ATOM     15  C   UNL     1      34.941 -20.082 -20.883  0.00  0.00    +0.002 C 
ATOM     16  C   UNL     1      36.183 -19.486 -20.658  0.00  0.00    +0.000 C 
ATOM     17  C   UNL     1      34.249 -19.826 -22.066  0.00  0.00    +0.000 C 
ATOM     18  C   UNL     1      36.731 -18.634 -21.617  0.00  0.00    +0.000 C 
ATOM     19  C   UNL     1      34.797 -18.973 -23.024  0.00  0.00    +0.000 C 
ATOM     20  C   UNL     1      36.038 -18.377 -22.800  0.00  0.00    +0.000 C 
ENDBRANCH  12  15
ENDBRANCH   6   9
ENDBRANCH   3   6
BRANCH   5  21
ATOM     21  N   UNL     1      35.740 -23.517 -13.047  0.00  0.00    -0.147 NA
BRANCH  21  29
ATOM     22  O   UNL     1      39.027 -26.849 -14.194  0.00  0.00    -0.350 OA
ATOM     23  N   UNL     1      37.208 -25.274 -12.759  0.00  0.00    -0.277 N 
ATOM     24  N   UNL     1      35.629 -25.025 -11.160  0.00  0.00    -0.373 N 
ATOM     25  C   UNL     1      37.337 -26.698 -12.461  0.00  0.00    +0.125 C 
ATOM     26  C   UNL     1      38.388 -24.661 -13.364  0.00  0.00    +0.125 C 
ATOM     27  C   UNL     1      37.816 -27.433 -13.707  0.00  0.00    +0.164 C 
ATOM     28  C   UNL     1      38.821 -25.485 -14.571  0.00  0.00    +0.164 C 
ATOM     29  C   UNL     1      36.150 -24.543 -12.343  0.00  0.00    +0.182 C 
ATOM     30  H   UNL     1      36.033 -25.814 -10.729  0.00  0.00    +0.158 HD
ATOM     31  H   UNL     1      34.853 -24.583 -10.747  0.00  0.00    +0.158 HD
ENDBRANCH  21  29
ENDBRANCH   5  21
TORSDOF 5
ENDMDL
MODEL 5
REMARK VINA RESULT:     -11.9     10.375     14.211
REMARK  Name = 9800765
REMARK  5 active torsions:
REMARK  status: ('A' for Active; 'I' for Inactive)
REMARK    1  A    between atoms: C_3  and  C_17
REMARK    2  A    between atoms: C_5  and  N_8
REMARK    3  A    between atoms: N_8  and  C_14
REMARK    4  A    between atoms: C_17  and  C_20
REMARK    5  A    between atoms: C_23  and  C_26
REMARK                            x       y       z     vdW  Elec       q    Type
REMARK                         _______ _______ _______ _____ _____    ______ ____
ROOT
ATOM      1  O   UNL     1      32.024 -11.931 -20.000  0.00  0.00    -0.337 OA
ATOM      2  N   UNL     1      31.928 -10.590 -19.651  0.00  0.00    -0.079 NA
ATOM      3  C   UNL     1      31.773  -9.942 -20.808  0.00  0.00    +0.106 C 
ATOM      4  C   UNL     1      31.764 -10.813 -21.911  0.00  0.00    +0.076 C 
ATOM      5  C   UNL     1      31.924 -12.043 -21.344  0.00  0.00    +0.252 C 
ENDROOT
BRANCH   3   6
ATOM      6  C   UNL     1      31.635  -8.477 -20.816  0.00  0.00    +0.066 C 
ATOM      7  C   UNL     1      32.041  -7.804 -19.482  0.00  0.00    +0.011 C 
BRANCH   6   9
ATOM      8  F   UNL     1      35.754  -7.234 -23.078  0.00  0.00    -0.204 F 
ATOM      9  C   UNL     1      32.376  -7.953 -22.051  0.00  0.00    -0.015 C 
ATOM     10  C   UNL     1      33.744  -7.833 -21.994  0.00  0.00    +0.026 C 
ATOM     11  C   UNL     1      31.643  -7.623 -23.167  0.00  0.00    -0.004 C 
ATOM     12  C   UNL     1      33.706  -7.013 -24.265  0.00  0.00    +0.027 C 
ATOM     13  C   UNL     1      34.419  -7.357 -23.118  0.00  0.00    +0.140 C 
ATOM     14  C   UNL     1      32.318  -7.146 -24.290  0.00  0.00    +0.002 C 
BRANCH  12  15
ATOM     15  C   UNL     1      34.401  -6.519 -25.434  0.00  0.00    +0.002 C 
ATOM     16  C   UNL     1      35.405  -5.561 -25.294  0.00  0.00    +0.000 C 
ATOM     17  C   UNL     1      34.070  -7.002 -26.700  0.00  0.00    +0.000 C 
ATOM     18  C   UNL     1      36.077  -5.085 -26.420  0.00  0.00    +0.000 C 
ATOM     19  C   UNL     1      34.742  -6.526 -27.826  0.00  0.00    +0.000 C 
ATOM     20  C   UNL     1      35.745  -5.567 -27.687  0.00  0.00    +0.000 C 
ENDBRANCH  12  15
ENDBRANCH   6   9
ENDBRANCH   3   6
BRANCH   5  21
ATOM     21  N   UNL     1      31.989 -13.266 -21.941  0.00  0.00    -0.147 NA
BRANCH  21  29
ATOM     22  O   UNL     1      34.192 -15.564 -25.558  0.00  0.00    -0.350 OA
ATOM     23  N   UNL     1      33.683 -14.319 -23.101  0.00  0.00    -0.277 N 
ATOM     24  N   UNL     1      33.961 -14.159 -20.863  0.00  0.00    -0.373 N 
ATOM     25  C   UNL     1      34.553 -15.491 -23.161  0.00  0.00    +0.125 C 
ATOM     26  C   UNL     1      33.593 -13.553 -24.341  0.00  0.00    +0.125 C 
ATOM     27  C   UNL     1      34.165 -16.345 -24.362  0.00  0.00    +0.164 C 
ATOM     28  C   UNL     1      33.248 -14.492 -25.490  0.00  0.00    +0.164 C 
ATOM     29  C   UNL     1      33.147 -13.877 -21.941  0.00  0.00    +0.182 C 
ATOM     30  H   UNL     1      34.815 -14.630 -21.000  0.00  0.00    +0.158 HD
ATOM     31  H   UNL     1      33.688 -13.891 -19.956  0.00  0.00    +0.158 HD
ENDBRANCH  21  29
ENDBRANCH   5  21
TORSDOF 5
ENDMDL
MODEL 6
REMARK VINA RESULT:     -11.9      9.933     13.820
REMARK  Name = 9800765
REMARK  5 active torsions:
REMARK  status: ('A' for Active; 'I' for Inactive)
REMARK    1  A    between atoms: C_3  and  C_17
REMARK    2  A    between atoms: C_5  and  N_8
REMARK    3  A    between atoms: N_8  and  C_14
REMARK    4  A    between atoms: C_17  and  C_20
REMARK    5  A    between atoms: C_23  and  C_26
REMARK                            x       y       z     vdW  Elec       q    Type
REMARK                         _______ _______ _______ _____ _____    ______ ____
ROOT
ATOM      1  O   UNL     1      32.342 -12.601 -19.734  0.00  0.00    -0.337 OA
ATOM      2  N   UNL     1      32.072 -11.317 -19.276  0.00  0.00    -0.079 NA
ATOM      3  C   UNL     1      31.705 -10.633 -20.363  0.00  0.00    +0.106 C 
ATOM      4  C   UNL     1      31.725 -11.424 -21.524  0.00  0.00    +0.076 C 
ATOM      5  C   UNL     1      32.130 -12.644 -21.069  0.00  0.00    +0.252 C 
ENDROOT
BRANCH   3   6
ATOM      6  C   UNL     1      31.339  -9.212 -20.247  0.00  0.00    +0.066 C 
ATOM      7  C   UNL     1      31.601  -8.612 -18.843  0.00  0.00    +0.011 C 
BRANCH   6   9
ATOM      8  F   UNL     1      31.322  -7.549 -24.814  0.00  0.00    -0.204 F 
ATOM      9  C   UNL     1      32.019  -8.467 -21.400  0.00  0.00    -0.015 C 
ATOM     10  C   UNL     1      31.347  -8.350 -22.593  0.00  0.00    +0.026 C 
ATOM     11  C   UNL     1      33.276  -7.947 -21.197  0.00  0.00    -0.004 C 
ATOM     12  C   UNL     1      33.239  -7.133 -23.470  0.00  0.00    +0.027 C 
ATOM     13  C   UNL     1      31.965  -7.672 -23.643  0.00  0.00    +0.140 C 
ATOM     14  C   UNL     1      33.895  -7.270 -22.247  0.00  0.00    +0.002 C 
BRANCH  12  15
ATOM     15  C   UNL     1      33.885  -6.427 -24.556  0.00  0.00    +0.002 C 
ATOM     16  C   UNL     1      34.822  -7.085 -25.354  0.00  0.00    +0.000 C 
ATOM     17  C   UNL     1      33.570  -5.092 -24.807  0.00  0.00    +0.000 C 
ATOM     18  C   UNL     1      35.444  -6.407 -26.402  0.00  0.00    +0.000 C 
ATOM     19  C   UNL     1      34.193  -4.414 -25.855  0.00  0.00    +0.000 C 
ATOM     20  C   UNL     1      35.130  -5.070 -26.652  0.00  0.00    +0.000 C 
ENDBRANCH  12  15
ENDBRANCH   6   9
ENDBRANCH   3   6
BRANCH   5  21
ATOM     21  N   UNL     1      32.327 -13.801 -21.761  0.00  0.00    -0.147 NA
BRANCH  21  29
ATOM     22  O   UNL     1      34.568 -16.309 -25.212  0.00  0.00    -0.350 OA
ATOM     23  N   UNL     1      34.056 -14.838 -22.884  0.00  0.00    -0.277 N 
ATOM     24  N   UNL     1      34.413 -14.400 -20.695  0.00  0.00    -0.373 N 
ATOM     25  C   UNL     1      35.022 -15.933 -22.859  0.00  0.00    +0.125 C 
ATOM     26  C   UNL     1      33.848 -14.228 -24.195  0.00  0.00    +0.125 C 
ATOM     27  C   UNL     1      34.660 -16.948 -23.937  0.00  0.00    +0.164 C 
ATOM     28  C   UNL     1      33.537 -15.318 -25.213  0.00  0.00    +0.164 C 
ATOM     29  C   UNL     1      33.534 -14.311 -21.754  0.00  0.00    +0.182 C 
ATOM     30  H   UNL     1      35.299 -14.812 -20.823  0.00  0.00    +0.158 HD
ATOM     31  H   UNL     1      34.156 -14.053 -19.810  0.00  0.00    +0.158 HD
ENDBRANCH  21  29
ENDBRANCH   5  21
TORSDOF 5
ENDMDL
MODEL 7
REMARK VINA RESULT:     -11.5     10.915     14.956
REMARK  Name = 9800765
REMARK  5 active torsions:
REMARK  status: ('A' for Active; 'I' for Inactive)
REMARK    1  A    between atoms: C_3  and  C_17
REMARK    2  A    between atoms: C_5  and  N_8
REMARK    3  A    between atoms: N_8  and  C_14
REMARK    4  A    between atoms: C_17  and  C_20
REMARK    5  A    between atoms: C_23  and  C_26
REMARK                            x       y       z     vdW  Elec       q    Type
REMARK                         _______ _______ _______ _____ _____    ______ ____
ROOT
ATOM      1  O   UNL     1      31.746 -11.244 -20.497  0.00  0.00    -0.337 OA
ATOM      2  N   UNL     1      31.858  -9.933 -20.050  0.00  0.00    -0.079 NA
ATOM      3  C   UNL     1      32.105  -9.214 -21.149  0.00  0.00    +0.106 C 
ATOM      4  C   UNL     1      32.159 -10.009 -22.306  0.00  0.00    +0.076 C 
ATOM      5  C   UNL     1      31.927 -11.268 -21.837  0.00  0.00    +0.252 C 
ENDROOT
BRANCH   3   6
ATOM      6  C   UNL     1      32.283  -7.757 -21.047  0.00  0.00    +0.066 C 
ATOM      7  C   UNL     1      32.946  -7.299 -19.724  0.00  0.00    +0.011 C 
BRANCH   6   9
ATOM      8  F   UNL     1      32.193  -5.748 -25.472  0.00  0.00    -0.204 F 
ATOM      9  C   UNL     1      33.001  -7.293 -22.319  0.00  0.00    -0.015 C 
ATOM     10  C   UNL     1      32.254  -6.726 -23.324  0.00  0.00    +0.026 C 
ATOM     11  C   UNL     1      34.363  -7.462 -22.404  0.00  0.00    -0.004 C 
ATOM     12  C   UNL     1      34.288  -6.461 -24.600  0.00  0.00    +0.027 C 
ATOM     13  C   UNL     1      32.907  -6.303 -24.482  0.00  0.00    +0.140 C 
ATOM     14  C   UNL     1      35.015  -7.040 -23.562  0.00  0.00    +0.002 C 
BRANCH  12  15
ATOM     15  C   UNL     1      34.970  -6.023 -25.799  0.00  0.00    +0.002 C 
ATOM     16  C   UNL     1      35.137  -6.905 -26.867  0.00  0.00    +0.000 C 
ATOM     17  C   UNL     1      35.459  -4.720 -25.887  0.00  0.00    +0.000 C 
ATOM     18  C   UNL     1      35.793  -6.483 -28.023  0.00  0.00    +0.000 C 
ATOM     19  C   UNL     1      36.115  -4.298 -27.044  0.00  0.00    +0.000 C 
ATOM     20  C   UNL     1      36.284  -5.180 -28.112  0.00  0.00    +0.000 C 
ENDBRANCH  12  15
ENDBRANCH   6   9
ENDBRANCH   3   6
BRANCH   5  21
ATOM     21  N   UNL     1      31.865 -12.446 -22.520  0.00  0.00    -0.147 NA
BRANCH  21  29
ATOM     22  O   UNL     1      33.901 -15.319 -25.809  0.00  0.00    -0.350 OA
ATOM     23  N   UNL     1      33.411 -13.879 -23.457  0.00  0.00    -0.277 N 
ATOM     24  N   UNL     1      33.483 -13.671 -21.206  0.00  0.00    -0.373 N 
ATOM     25  C   UNL     1      34.018 -15.206 -23.389  0.00  0.00    +0.125 C 
ATOM     26  C   UNL     1      33.614 -13.172 -24.718  0.00  0.00    +0.125 C 
ATOM     27  C   UNL     1      33.586 -16.020 -24.603  0.00  0.00    +0.164 C 
ATOM     28  C   UNL     1      33.200 -14.074 -25.874  0.00  0.00    +0.164 C 
ATOM     29  C   UNL     1      32.863 -13.281 -22.375  0.00  0.00    +0.182 C 
ATOM     30  H   UNL     1      34.229 -14.314 -21.235  0.00  0.00    +0.158 HD
ATOM     31  H   UNL     1      33.179 -13.309 -20.342  0.00  0.00    +0.158 HD
ENDBRANCH  21  29
ENDBRANCH   5  21
TORSDOF 5
ENDMDL
MODEL 8
REMARK VINA RESULT:     -11.5      5.536     10.914
REMARK  Name = 9800765
REMARK  5 active torsions:
REMARK  status: ('A' for Active; 'I' for Inactive)
REMARK    1  A    between atoms: C_3  and  C_17
REMARK    2  A    between atoms: C_5  and  N_8
REMARK    3  A    between atoms: N_8  and  C_14
REMARK    4  A    between atoms: C_17  and  C_20
REMARK    5  A    between atoms: C_23  and  C_26
REMARK                            x       y       z     vdW  Elec       q    Type
REMARK                         _______ _______ _______ _____ _____    ______ ____
ROOT
ATOM      1  O   UNL     1      34.797 -15.842 -20.369  0.00  0.00    -0.337 OA
ATOM      2  N   UNL     1      35.228 -17.162 -20.413  0.00  0.00    -0.079 NA
ATOM      3  C   UNL     1      35.301 -17.459 -21.714  0.00  0.00    +0.106 C 
ATOM      4  C   UNL     1      34.932 -16.375 -22.529  0.00  0.00    +0.076 C 
ATOM      5  C   UNL     1      34.627 -15.394 -21.633  0.00  0.00    +0.252 C 
ENDROOT
BRANCH   3   6
ATOM      6  C   UNL     1      35.734 -18.800 -22.138  0.00  0.00    +0.066 C 
ATOM      7  C   UNL     1      37.196 -18.853 -22.645  0.00  0.00    +0.011 C 
BRANCH   6   9
ATOM      8  F   UNL     1      32.532 -21.250 -19.423  0.00  0.00    -0.204 F 
ATOM      9  C   UNL     1      35.416 -19.767 -20.993  0.00  0.00    -0.015 C 
ATOM     10  C   UNL     1      34.100 -20.067 -20.732  0.00  0.00    +0.026 C 
ATOM     11  C   UNL     1      36.460 -20.297 -20.271  0.00  0.00    -0.004 C 
ATOM     12  C   UNL     1      34.846 -21.502 -18.939  0.00  0.00    +0.027 C 
ATOM     13  C   UNL     1      33.811 -20.948 -19.690  0.00  0.00    +0.140 C 
ATOM     14  C   UNL     1      36.171 -21.177 -19.229  0.00  0.00    +0.002 C 
BRANCH  12  15
ATOM     15  C   UNL     1      34.551 -22.418 -17.857  0.00  0.00    +0.002 C 
ATOM     16  C   UNL     1      35.494 -22.636 -16.853  0.00  0.00    +0.000 C 
ATOM     17  C   UNL     1      33.324 -23.080 -17.819  0.00  0.00    +0.000 C 
ATOM     18  C   UNL     1      35.210 -23.517 -15.810  0.00  0.00    +0.000 C 
ATOM     19  C   UNL     1      33.041 -23.962 -16.775  0.00  0.00    +0.000 C 
ATOM     20  C   UNL     1      33.984 -24.181 -15.771  0.00  0.00    +0.000 C 
ENDBRANCH  12  15
ENDBRANCH   6   9
ENDBRANCH   3   6
BRANCH   5  21
ATOM     21  N   UNL     1      34.205 -14.118 -21.862  0.00  0.00    -0.147 NA
BRANCH  21  29
ATOM     22  O   UNL     1      31.777  -9.997 -22.444  0.00  0.00    -0.350 OA
ATOM     23  N   UNL     1      32.449 -12.625 -21.747  0.00  0.00    -0.277 N 
ATOM     24  N   UNL     1      32.344 -14.395 -20.344  0.00  0.00    -0.373 N 
ATOM     25  C   UNL     1      31.603 -11.828 -20.863  0.00  0.00    +0.125 C 
ATOM     26  C   UNL     1      32.425 -12.225 -23.152  0.00  0.00    +0.125 C 
ATOM     27  C   UNL     1      31.915 -10.350 -21.066  0.00  0.00    +0.164 C 
ATOM     28  C   UNL     1      32.700 -10.730 -23.254  0.00  0.00    +0.164 C 
ATOM     29  C   UNL     1      33.064 -13.755 -21.331  0.00  0.00    +0.182 C 
ATOM     30  H   UNL     1      31.492 -14.013 -20.029  0.00  0.00    +0.158 HD
ATOM     31  H   UNL     1      32.681 -15.233 -19.951  0.00  0.00    +0.158 HD
ENDBRANCH  21  29
ENDBRANCH   5  21
TORSDOF 5
ENDMDL
MODEL 9
REMARK VINA RESULT:     -11.4      4.218      9.487
REMARK  Name = 9800765
REMARK  5 active torsions:
REMARK  status: ('A' for Active; 'I' for Inactive)
REMARK    1  A    between atoms: C_3  and  C_17
REMARK    2  A    between atoms: C_5  and  N_8
REMARK    3  A    between atoms: N_8  and  C_14
REMARK    4  A    between atoms: C_17  and  C_20
REMARK    5  A    between atoms: C_23  and  C_26
REMARK                            x       y       z     vdW  Elec       q    Type
REMARK                         _______ _______ _______ _____ _____    ______ ____
ROOT
ATOM      1  O   UNL     1      36.273 -19.663 -20.413  0.00  0.00    -0.337 OA
ATOM      2  N   UNL     1      36.900 -20.407 -19.422  0.00  0.00    -0.079 NA
ATOM      3  C   UNL     1      35.966 -21.258 -18.987  0.00  0.00    +0.106 C 
ATOM      4  C   UNL     1      34.743 -21.098 -19.660  0.00  0.00    +0.076 C 
ATOM      5  C   UNL     1      34.996 -20.088 -20.540  0.00  0.00    +0.252 C 
ENDROOT
BRANCH   3   6
ATOM      6  C   UNL     1      36.288 -22.217 -17.917  0.00  0.00    +0.066 C 
ATOM      7  C   UNL     1      37.323 -21.687 -16.895  0.00  0.00    +0.011 C 
BRANCH   6   9
ATOM      8  F   UNL     1      33.648 -23.624 -14.086  0.00  0.00    -0.204 F 
ATOM      9  C   UNL     1      34.963 -22.684 -17.307  0.00  0.00    -0.015 C 
ATOM     10  C   UNL     1      34.917 -22.942 -15.958  0.00  0.00    +0.026 C 
ATOM     11  C   UNL     1      33.873 -22.828 -18.133  0.00  0.00    -0.004 C 
ATOM     12  C   UNL     1      32.586 -23.524 -16.211  0.00  0.00    +0.027 C 
ATOM     13  C   UNL     1      33.711 -23.368 -15.401  0.00  0.00    +0.140 C 
ATOM     14  C   UNL     1      32.667 -23.254 -17.577  0.00  0.00    +0.002 C 
BRANCH  12  15
ATOM     15  C   UNL     1      31.332 -23.964 -15.639  0.00  0.00    +0.002 C 
ATOM     16  C   UNL     1      30.157 -23.264 -15.914  0.00  0.00    +0.000 C 
ATOM     17  C   UNL     1      31.297 -25.087 -14.813  0.00  0.00    +0.000 C 
ATOM     18  C   UNL     1      28.948 -23.688 -15.364  0.00  0.00    +0.000 C 
ATOM     19  C   UNL     1      30.087 -25.511 -14.263  0.00  0.00    +0.000 C 
ATOM     20  C   UNL     1      28.912 -24.811 -14.538  0.00  0.00    +0.000 C 
ENDBRANCH  12  15
ENDBRANCH   6   9
ENDBRANCH   3   6
BRANCH   5  21
ATOM     21  N   UNL     1      34.164 -19.511 -21.453  0.00  0.00    -0.147 NA
BRANCH  21  29
ATOM     22  O   UNL     1      34.565 -15.190 -23.547  0.00  0.00    -0.350 OA
ATOM     23  N   UNL     1      34.853 -17.916 -22.971  0.00  0.00    -0.277 N 
ATOM     24  N   UNL     1      35.069 -20.070 -23.624  0.00  0.00    -0.373 N 
ATOM     25  C   UNL     1      34.782 -17.465 -24.359  0.00  0.00    +0.125 C 
ATOM     26  C   UNL     1      35.326 -16.914 -22.020  0.00  0.00    +0.125 C 
ATOM     27  C   UNL     1      33.994 -16.163 -24.426  0.00  0.00    +0.164 C 
ATOM     28  C   UNL     1      34.515 -15.636 -22.190  0.00  0.00    +0.164 C 
ATOM     29  C   UNL     1      34.669 -19.209 -22.623  0.00  0.00    +0.182 C 
ATOM     30  H   UNL     1      35.434 -19.711 -24.466  0.00  0.00    +0.158 HD
ATOM     31  H   UNL     1      34.988 -21.044 -23.499  0.00  0.00    +0.158 HD
ENDBRANCH  21  29
ENDBRANCH   5  21
TORSDOF 5
ENDMDL
