MODEL 1
REMARK VINA RESULT:     -11.9      0.000      0.000
REMARK  Name = 24958200
REMARK  3 active torsions:
REMARK  status: ('A' for Active; 'I' for Inactive)
REMARK    1  A    between atoms: N_1  and  C_13
REMARK    2  A    between atoms: C_6  and  C_26
REMARK    3  A    between atoms: C_10  and  C_17
REMARK                            x       y       z     vdW  Elec       q    Type
REMARK                         _______ _______ _______ _____ _____    ______ ____
ROOT
ATOM      1  N   UNL     1      32.471 -23.133 -16.855  0.00  0.00    -0.189 N 
ATOM      2  N   UNL     1      31.128 -23.219 -16.909  0.00  0.00    -0.174 NA
ATOM      3  C   UNL     1      31.982 -24.230 -15.062  0.00  0.00    +0.036 C 
ATOM      4  C   UNL     1      33.039 -23.724 -15.765  0.00  0.00    +0.091 C 
ATOM      5  C   UNL     1      30.786 -23.901 -15.800  0.00  0.00    +0.105 C 
ATOM      6  C   UNL     1      29.521 -24.293 -15.325  0.00  0.00    +0.072 C 
ATOM      7  C   UNL     1      32.066 -24.927 -13.864  0.00  0.00    +0.003 C 
ATOM      8  C   UNL     1      29.572 -25.005 -14.106  0.00  0.00    +0.006 C 
ATOM      9  C   UNL     1      30.786 -25.306 -13.411  0.00  0.00    +0.000 C 
ENDROOT
BRANCH   1  13
ATOM     10  C   UNL     1      34.559 -21.171 -19.890  0.00  0.00    -0.024 C 
ATOM     11  C   UNL     1      35.241 -21.991 -18.990  0.00  0.00    -0.003 C 
ATOM     12  C   UNL     1      33.177 -21.008 -19.775  0.00  0.00    -0.003 C 
ATOM     13  C   UNL     1      33.163 -22.482 -17.860  0.00  0.00    +0.074 C 
ATOM     14  C   UNL     1      34.543 -22.646 -17.976  0.00  0.00    +0.016 C 
ATOM     15  C   UNL     1      32.480 -21.663 -18.760  0.00  0.00    +0.016 C 
BRANCH  10  17
ATOM     16  N   UNL     1      35.124 -19.017 -23.004  0.00  0.00    +0.384 N 
ATOM     17  C   UNL     1      35.318 -20.457 -20.993  0.00  0.00    +0.001 C 
ATOM     18  C   UNL     1      36.409 -19.533 -20.428  0.00  0.00    +0.000 C 
ATOM     19  C   UNL     1      34.377 -19.676 -21.930  0.00  0.00    -0.077 C 
ATOM     20  C   UNL     1      37.118 -18.794 -21.561  0.00  0.00    -0.023 C 
ATOM     21  C   UNL     1      36.118 -18.085 -22.472  0.00  0.00    -0.082 C 
ATOM     22  H   UNL     1      34.471 -18.503 -23.595  0.00  0.00    -0.085 HD
ATOM     23  H   UNL     1      35.612 -19.734 -23.542  0.00  0.00    -0.085 HD
ENDBRANCH  10  17
ENDBRANCH   1  13
BRANCH   6  26
ATOM     24  O   UNL     1      27.861 -24.715 -16.940  0.00  0.00    -0.270 OA
ATOM     25  N   UNL     1      27.552 -22.884 -15.595  0.00  0.00    -0.325 N 
ATOM     26  C   UNL     1      28.283 -23.997 -16.012  0.00  0.00    +0.244 C 
ATOM     27  H   UNL     1      26.705 -22.655 -16.042  0.00  0.00    +0.145 HD
ATOM     28  H   UNL     1      27.883 -22.327 -14.853  0.00  0.00    +0.145 HD
ENDBRANCH   6  26
TORSDOF 3
ENDMDL
MODEL 2
REMARK VINA RESULT:     -11.7      1.099      1.713
REMARK  Name = 24958200
REMARK  3 active torsions:
REMARK  status: ('A' for Active; 'I' for Inactive)
REMARK    1  A    between atoms: N_1  and  C_13
REMARK    2  A    between atoms: C_6  and  C_26
REMARK    3  A    between atoms: C_10  and  C_17
REMARK                            x       y       z     vdW  Elec       q    Type
REMARK                         _______ _______ _______ _____ _____    ______ ____
ROOT
ATOM      1  N   UNL     1      33.262 -22.729 -17.346  0.00  0.00    -0.189 N 
ATOM      2  N   UNL     1      31.951 -22.964 -17.146  0.00  0.00    -0.174 NA
ATOM      3  C   UNL     1      33.248 -23.894 -15.529  0.00  0.00    +0.036 C 
ATOM      4  C   UNL     1      34.090 -23.265 -16.403  0.00  0.00    +0.091 C 
ATOM      5  C   UNL     1      31.904 -23.692 -16.016  0.00  0.00    +0.105 C 
ATOM      6  C   UNL     1      30.804 -24.227 -15.321  0.00  0.00    +0.072 C 
ATOM      7  C   UNL     1      33.634 -24.589 -14.392  0.00  0.00    +0.003 C 
ATOM      8  C   UNL     1      31.164 -24.943 -14.158  0.00  0.00    +0.006 C 
ATOM      9  C   UNL     1      32.515 -25.114 -13.717  0.00  0.00    +0.000 C 
ENDROOT
BRANCH   1  13
ATOM     10  C   UNL     1      34.505 -20.511 -20.655  0.00  0.00    -0.024 C 
ATOM     11  C   UNL     1      33.154 -20.557 -20.314  0.00  0.00    -0.003 C 
ATOM     12  C   UNL     1      35.442 -21.207 -19.889  0.00  0.00    -0.003 C 
ATOM     13  C   UNL     1      33.674 -21.994 -18.443  0.00  0.00    +0.074 C 
ATOM     14  C   UNL     1      32.738 -21.298 -19.208  0.00  0.00    +0.016 C 
ATOM     15  C   UNL     1      35.026 -21.948 -18.784  0.00  0.00    +0.016 C 
BRANCH  10  17
ATOM     16  N   UNL     1      34.374 -18.953 -24.150  0.00  0.00    +0.384 N 
ATOM     17  C   UNL     1      34.958 -19.706 -21.859  0.00  0.00    +0.001 C 
ATOM     18  C   UNL     1      35.333 -18.265 -21.474  0.00  0.00    +0.000 C 
ATOM     19  C   UNL     1      33.908 -19.710 -22.986  0.00  0.00    -0.077 C 
ATOM     20  C   UNL     1      35.735 -17.472 -22.715  0.00  0.00    -0.023 C 
ATOM     21  C   UNL     1      34.668 -17.563 -23.802  0.00  0.00    -0.082 C 
ATOM     22  H   UNL     1      33.650 -18.970 -24.868  0.00  0.00    -0.085 HD
ATOM     23  H   UNL     1      35.233 -19.386 -24.491  0.00  0.00    -0.085 HD
ENDBRANCH  10  17
ENDBRANCH   1  13
BRANCH   6  26
ATOM     24  O   UNL     1      28.547 -24.889 -15.447  0.00  0.00    -0.270 OA
ATOM     25  N   UNL     1      29.113 -22.938 -16.509  0.00  0.00    -0.325 N 
ATOM     26  C   UNL     1      29.432 -24.064 -15.751  0.00  0.00    +0.244 C 
ATOM     27  H   UNL     1      28.188 -22.797 -16.817  0.00  0.00    +0.145 HD
ATOM     28  H   UNL     1      29.812 -22.282 -16.736  0.00  0.00    +0.145 HD
ENDBRANCH   6  26
TORSDOF 3
ENDMDL
MODEL 3
REMARK VINA RESULT:     -11.1      4.156      5.364
REMARK  Name = 24958200
REMARK  3 active torsions:
REMARK  status: ('A' for Active; 'I' for Inactive)
REMARK    1  A    between atoms: N_1  and  C_13
REMARK    2  A    between atoms: C_6  and  C_26
REMARK    3  A    between atoms: C_10  and  C_17
REMARK                            x       y       z     vdW  Elec       q    Type
REMARK                         _______ _______ _______ _____ _____    ______ ____
ROOT
ATOM      1  N   UNL     1      35.807 -23.313 -15.608  0.00  0.00    -0.189 N 
ATOM      2  N   UNL     1      36.798 -24.186 -15.341  0.00  0.00    -0.174 NA
ATOM      3  C   UNL     1      35.345 -23.979 -13.607  0.00  0.00    +0.036 C 
ATOM      4  C   UNL     1      34.903 -23.148 -14.599  0.00  0.00    +0.091 C 
ATOM      5  C   UNL     1      36.540 -24.623 -14.096  0.00  0.00    +0.105 C 
ATOM      6  C   UNL     1      37.235 -25.546 -13.292  0.00  0.00    +0.072 C 
ATOM      7  C   UNL     1      34.741 -24.155 -12.370  0.00  0.00    +0.003 C 
ATOM      8  C   UNL     1      36.645 -25.747 -12.025  0.00  0.00    +0.006 C 
ATOM      9  C   UNL     1      35.456 -25.082 -11.587  0.00  0.00    +0.000 C 
ENDROOT
BRANCH   1  13
ATOM     10  C   UNL     1      35.683 -21.355 -19.291  0.00  0.00    -0.024 C 
ATOM     11  C   UNL     1      36.822 -21.265 -18.491  0.00  0.00    -0.003 C 
ATOM     12  C   UNL     1      34.585 -22.101 -18.860  0.00  0.00    -0.003 C 
ATOM     13  C   UNL     1      35.766 -22.663 -16.828  0.00  0.00    +0.074 C 
ATOM     14  C   UNL     1      36.864 -21.919 -17.260  0.00  0.00    +0.016 C 
ATOM     15  C   UNL     1      34.627 -22.755 -17.629  0.00  0.00    +0.016 C 
BRANCH  10  17
ATOM     16  N   UNL     1      34.190 -19.482 -22.278  0.00  0.00    +0.384 N 
ATOM     17  C   UNL     1      35.637 -20.642 -20.630  0.00  0.00    +0.001 C 
ATOM     18  C   UNL     1      36.651 -19.489 -20.698  0.00  0.00    +0.000 C 
ATOM     19  C   UNL     1      34.221 -20.142 -20.970  0.00  0.00    -0.077 C 
ATOM     20  C   UNL     1      36.542 -18.764 -22.037  0.00  0.00    -0.023 C 
ATOM     21  C   UNL     1      35.103 -18.341 -22.324  0.00  0.00    -0.082 C 
ATOM     22  H   UNL     1      33.241 -19.156 -22.462  0.00  0.00    -0.085 HD
ATOM     23  H   UNL     1      34.484 -20.158 -22.984  0.00  0.00    -0.085 HD
ENDBRANCH  10  17
ENDBRANCH   1  13
BRANCH   6  26
ATOM     24  O   UNL     1      38.397 -27.351 -14.261  0.00  0.00    -0.270 OA
ATOM     25  N   UNL     1      39.660 -25.587 -13.519  0.00  0.00    -0.325 N 
ATOM     26  C   UNL     1      38.438 -26.229 -13.718  0.00  0.00    +0.244 C 
ATOM     27  H   UNL     1      40.498 -26.024 -13.798  0.00  0.00    +0.145 HD
ATOM     28  H   UNL     1      39.686 -24.696 -13.102  0.00  0.00    +0.145 HD
ENDBRANCH   6  26
TORSDOF 3
ENDMDL
MODEL 4
REMARK VINA RESULT:     -11.0      2.571      3.692
REMARK  Name = 24958200
REMARK  3 active torsions:
REMARK  status: ('A' for Active; 'I' for Inactive)
REMARK    1  A    between atoms: N_1  and  C_13
REMARK    2  A    between atoms: C_6  and  C_26
REMARK    3  A    between atoms: C_10  and  C_17
REMARK                            x       y       z     vdW  Elec       q    Type
REMARK                         _______ _______ _______ _____ _____    ______ ____
ROOT
ATOM      1  N   UNL     1      33.415 -22.774 -17.292  0.00  0.00    -0.189 N 
ATOM      2  N   UNL     1      34.348 -23.343 -16.504  0.00  0.00    -0.174 NA
ATOM      3  C   UNL     1      32.237 -23.759 -15.776  0.00  0.00    +0.036 C 
ATOM      4  C   UNL     1      32.126 -22.992 -16.901  0.00  0.00    +0.091 C 
ATOM      5  C   UNL     1      33.645 -23.969 -15.543  0.00  0.00    +0.105 C 
ATOM      6  C   UNL     1      34.083 -24.731 -14.444  0.00  0.00    +0.072 C 
ATOM      7  C   UNL     1      31.178 -24.238 -15.015  0.00  0.00    +0.003 C 
ATOM      8  C   UNL     1      33.029 -25.232 -13.649  0.00  0.00    +0.006 C 
ATOM      9  C   UNL     1      31.644 -24.996 -13.923  0.00  0.00    +0.000 C 
ENDROOT
BRANCH   1  13
ATOM     10  C   UNL     1      34.573 -20.547 -20.625  0.00  0.00    -0.024 C 
ATOM     11  C   UNL     1      33.227 -20.617 -20.266  0.00  0.00    -0.003 C 
ATOM     12  C   UNL     1      35.533 -21.221 -19.869  0.00  0.00    -0.003 C 
ATOM     13  C   UNL     1      33.798 -22.036 -18.397  0.00  0.00    +0.074 C 
ATOM     14  C   UNL     1      32.840 -21.362 -19.153  0.00  0.00    +0.016 C 
ATOM     15  C   UNL     1      35.145 -21.966 -18.755  0.00  0.00    +0.016 C 
BRANCH  10  17
ATOM     16  N   UNL     1      34.354 -18.982 -24.114  0.00  0.00    +0.384 N 
ATOM     17  C   UNL     1      34.995 -19.738 -21.839  0.00  0.00    +0.001 C 
ATOM     18  C   UNL     1      35.376 -18.298 -21.460  0.00  0.00    +0.000 C 
ATOM     19  C   UNL     1      33.918 -19.744 -22.940  0.00  0.00    -0.077 C 
ATOM     20  C   UNL     1      35.745 -17.500 -22.708  0.00  0.00    -0.023 C 
ATOM     21  C   UNL     1      34.652 -17.592 -23.770  0.00  0.00    -0.082 C 
ATOM     22  H   UNL     1      33.613 -19.000 -24.814  0.00  0.00    -0.085 HD
ATOM     23  H   UNL     1      35.206 -19.413 -24.476  0.00  0.00    -0.085 HD
ENDBRANCH  10  17
ENDBRANCH   1  13
BRANCH   6  26
ATOM     24  O   UNL     1      36.210 -24.104 -13.650  0.00  0.00    -0.270 OA
ATOM     25  N   UNL     1      35.987 -26.250 -14.427  0.00  0.00    -0.325 N 
ATOM     26  C   UNL     1      35.477 -24.981 -14.150  0.00  0.00    +0.244 C 
ATOM     27  H   UNL     1      36.933 -26.453 -14.239  0.00  0.00    +0.145 HD
ATOM     28  H   UNL     1      35.402 -26.943 -14.810  0.00  0.00    +0.145 HD
ENDBRANCH   6  26
TORSDOF 3
ENDMDL
MODEL 5
REMARK VINA RESULT:     -10.6      2.789      3.787
REMARK  Name = 24958200
REMARK  3 active torsions:
REMARK  status: ('A' for Active; 'I' for Inactive)
REMARK    1  A    between atoms: N_1  and  C_13
REMARK    2  A    between atoms: C_6  and  C_26
REMARK    3  A    between atoms: C_10  and  C_17
REMARK                            x       y       z     vdW  Elec       q    Type
REMARK                         _______ _______ _______ _____ _____    ______ ____
ROOT
ATOM      1  N   UNL     1      35.747 -23.073 -15.881  0.00  0.00    -0.189 N 
ATOM      2  N   UNL     1      34.596 -23.337 -15.234  0.00  0.00    -0.174 NA
ATOM      3  C   UNL     1      36.416 -24.049 -14.077  0.00  0.00    +0.036 C 
ATOM      4  C   UNL     1      36.875 -23.480 -15.231  0.00  0.00    +0.091 C 
ATOM      5  C   UNL     1      34.977 -23.948 -14.098  0.00  0.00    +0.105 C 
ATOM      6  C   UNL     1      34.209 -24.453 -13.032  0.00  0.00    +0.072 C 
ATOM      7  C   UNL     1      37.205 -24.612 -13.082  0.00  0.00    +0.003 C 
ATOM      8  C   UNL     1      34.983 -25.033 -12.004  0.00  0.00    +0.006 C 
ATOM      9  C   UNL     1      36.412 -25.108 -12.030  0.00  0.00    +0.000 C 
ENDROOT
BRANCH   1  13
ATOM     10  C   UNL     1      35.666 -21.152 -19.585  0.00  0.00    -0.024 C 
ATOM     11  C   UNL     1      34.571 -21.908 -19.167  0.00  0.00    -0.003 C 
ATOM     12  C   UNL     1      36.789 -21.038 -18.764  0.00  0.00    -0.003 C 
ATOM     13  C   UNL     1      35.720 -22.437 -17.109  0.00  0.00    +0.074 C 
ATOM     14  C   UNL     1      34.598 -22.550 -17.929  0.00  0.00    +0.016 C 
ATOM     15  C   UNL     1      36.816 -21.680 -17.527  0.00  0.00    +0.016 C 
BRANCH  10  17
ATOM     16  N   UNL     1      34.199 -19.403 -22.659  0.00  0.00    +0.384 N 
ATOM     17  C   UNL     1      35.638 -20.455 -20.933  0.00  0.00    +0.001 C 
ATOM     18  C   UNL     1      36.578 -19.239 -20.966  0.00  0.00    +0.000 C 
ATOM     19  C   UNL     1      34.210 -20.048 -21.344  0.00  0.00    -0.077 C 
ATOM     20  C   UNL     1      36.487 -18.534 -22.317  0.00  0.00    -0.023 C 
ATOM     21  C   UNL     1      35.039 -18.206 -22.676  0.00  0.00    -0.082 C 
ATOM     22  H   UNL     1      33.241 -19.139 -22.891  0.00  0.00    -0.085 HD
ATOM     23  H   UNL     1      34.568 -20.064 -23.343  0.00  0.00    -0.085 HD
ENDBRANCH  10  17
ENDBRANCH   1  13
BRANCH   6  26
ATOM     24  O   UNL     1      32.068 -25.395 -12.760  0.00  0.00    -0.270 OA
ATOM     25  N   UNL     1      32.160 -23.144 -13.189  0.00  0.00    -0.325 N 
ATOM     26  C   UNL     1      32.764 -24.385 -12.987  0.00  0.00    +0.244 C 
ATOM     27  H   UNL     1      31.178 -23.064 -13.164  0.00  0.00    +0.145 HD
ATOM     28  H   UNL     1      32.714 -22.348 -13.355  0.00  0.00    +0.145 HD
ENDBRANCH   6  26
TORSDOF 3
ENDMDL
MODEL 6
REMARK VINA RESULT:     -10.5      4.454      9.103
REMARK  Name = 24958200
REMARK  3 active torsions:
REMARK  status: ('A' for Active; 'I' for Inactive)
REMARK    1  A    between atoms: N_1  and  C_13
REMARK    2  A    between atoms: C_6  and  C_26
REMARK    3  A    between atoms: C_10  and  C_17
REMARK                            x       y       z     vdW  Elec       q    Type
REMARK                         _______ _______ _______ _____ _____    ______ ____
ROOT
ATOM      1  N   UNL     1      34.887 -19.507 -21.236  0.00  0.00    -0.189 N 
ATOM      2  N   UNL     1      34.878 -18.185 -20.979  0.00  0.00    -0.174 NA
ATOM      3  C   UNL     1      34.671 -18.632 -23.197  0.00  0.00    +0.036 C 
ATOM      4  C   UNL     1      34.766 -19.835 -22.555  0.00  0.00    +0.091 C 
ATOM      5  C   UNL     1      34.744 -17.605 -22.186  0.00  0.00    +0.105 C 
ATOM      6  C   UNL     1      34.673 -16.245 -22.540  0.00  0.00    +0.072 C 
ATOM      7  C   UNL     1      34.530 -18.455 -24.567  0.00  0.00    +0.003 C 
ATOM      8  C   UNL     1      34.530 -16.031 -23.929  0.00  0.00    +0.006 C 
ATOM      9  C   UNL     1      34.462 -17.086 -24.893  0.00  0.00    +0.000 C 
ENDROOT
BRANCH   1  13
ATOM     10  C   UNL     1      35.274 -22.241 -18.107  0.00  0.00    -0.024 C 
ATOM     11  C   UNL     1      34.019 -21.989 -18.662  0.00  0.00    -0.003 C 
ATOM     12  C   UNL     1      36.400 -21.579 -18.598  0.00  0.00    -0.003 C 
ATOM     13  C   UNL     1      35.015 -20.412 -20.198  0.00  0.00    +0.074 C 
ATOM     14  C   UNL     1      33.890 -21.075 -19.708  0.00  0.00    +0.016 C 
ATOM     15  C   UNL     1      36.271 -20.665 -19.643  0.00  0.00    +0.016 C 
BRANCH  10  17
ATOM     16  N   UNL     1      36.707 -23.848 -14.940  0.00  0.00    +0.384 N 
ATOM     17  C   UNL     1      35.415 -23.234 -16.968  0.00  0.00    +0.001 C 
ATOM     18  C   UNL     1      34.100 -23.398 -16.188  0.00  0.00    +0.000 C 
ATOM     19  C   UNL     1      36.568 -22.863 -16.016  0.00  0.00    -0.077 C 
ATOM     20  C   UNL     1      34.292 -24.365 -15.021  0.00  0.00    -0.023 C 
ATOM     21  C   UNL     1      35.479 -23.958 -14.152  0.00  0.00    -0.082 C 
ATOM     22  H   UNL     1      37.470 -23.562 -14.327  0.00  0.00    -0.085 HD
ATOM     23  H   UNL     1      36.900 -24.757 -15.361  0.00  0.00    -0.085 HD
ENDBRANCH  10  17
ENDBRANCH   1  13
BRANCH   6  26
ATOM     24  O   UNL     1      34.899 -13.980 -21.936  0.00  0.00    -0.270 OA
ATOM     25  N   UNL     1      34.600 -15.480 -20.229  0.00  0.00    -0.325 N 
ATOM     26  C   UNL     1      34.739 -15.165 -21.580  0.00  0.00    +0.244 C 
ATOM     27  H   UNL     1      34.640 -14.768 -19.549  0.00  0.00    +0.145 HD
ATOM     28  H   UNL     1      34.461 -16.415 -19.953  0.00  0.00    +0.145 HD
ENDBRANCH   6  26
TORSDOF 3
ENDMDL
MODEL 7
REMARK VINA RESULT:      -9.8      2.482      3.844
REMARK  Name = 24958200
REMARK  3 active torsions:
REMARK  status: ('A' for Active; 'I' for Inactive)
REMARK    1  A    between atoms: N_1  and  C_13
REMARK    2  A    between atoms: C_6  and  C_26
REMARK    3  A    between atoms: C_10  and  C_17
REMARK                            x       y       z     vdW  Elec       q    Type
REMARK                         _______ _______ _______ _____ _____    ______ ____
ROOT
ATOM      1  N   UNL     1      35.795 -22.182 -17.536  0.00  0.00    -0.189 N 
ATOM      2  N   UNL     1      34.688 -22.686 -16.957  0.00  0.00    -0.174 NA
ATOM      3  C   UNL     1      36.572 -23.190 -15.793  0.00  0.00    +0.036 C 
ATOM      4  C   UNL     1      36.959 -22.454 -16.877  0.00  0.00    +0.091 C 
ATOM      5  C   UNL     1      35.137 -23.325 -15.862  0.00  0.00    +0.105 C 
ATOM      6  C   UNL     1      34.437 -24.040 -14.872  0.00  0.00    +0.072 C 
ATOM      7  C   UNL     1      37.418 -23.701 -14.818  0.00  0.00    +0.003 C 
ATOM      8  C   UNL     1      35.271 -24.573 -13.866  0.00  0.00    +0.006 C 
ATOM      9  C   UNL     1      36.692 -24.411 -13.841  0.00  0.00    +0.000 C 
ENDROOT
BRANCH   1  13
ATOM     10  C   UNL     1      35.489 -19.987 -21.071  0.00  0.00    -0.024 C 
ATOM     11  C   UNL     1      36.730 -20.149 -20.456  0.00  0.00    -0.003 C 
ATOM     12  C   UNL     1      34.349 -20.559 -20.505  0.00  0.00    -0.003 C 
ATOM     13  C   UNL     1      35.693 -21.454 -18.707  0.00  0.00    +0.074 C 
ATOM     14  C   UNL     1      36.832 -20.882 -19.274  0.00  0.00    +0.016 C 
ATOM     15  C   UNL     1      34.451 -21.293 -19.323  0.00  0.00    +0.016 C 
BRANCH  10  17
ATOM     16  N   UNL     1      34.099 -18.868 -24.460  0.00  0.00    +0.384 N 
ATOM     17  C   UNL     1      35.377 -19.187 -22.356  0.00  0.00    +0.001 C 
ATOM     18  C   UNL     1      35.320 -17.675 -22.085  0.00  0.00    +0.000 C 
ATOM     19  C   UNL     1      34.174 -19.631 -23.211  0.00  0.00    -0.077 C 
ATOM     20  C   UNL     1      35.157 -16.906 -23.394  0.00  0.00    -0.023 C 
ATOM     21  C   UNL     1      33.976 -17.433 -24.205  0.00  0.00    -0.082 C 
ATOM     22  H   UNL     1      33.287 -19.182 -24.991  0.00  0.00    -0.085 HD
ATOM     23  H   UNL     1      34.960 -19.028 -24.985  0.00  0.00    -0.085 HD
ENDBRANCH  10  17
ENDBRANCH   1  13
BRANCH   6  26
ATOM     24  O   UNL     1      32.446 -25.109 -14.210  0.00  0.00    -0.270 OA
ATOM     25  N   UNL     1      32.237 -23.335 -15.647  0.00  0.00    -0.325 N 
ATOM     26  C   UNL     1      33.001 -24.214 -14.879  0.00  0.00    +0.244 C 
ATOM     27  H   UNL     1      31.257 -23.426 -15.673  0.00  0.00    +0.145 HD
ATOM     28  H   UNL     1      32.678 -22.621 -16.163  0.00  0.00    +0.145 HD
ENDBRANCH   6  26
TORSDOF 3
ENDMDL
MODEL 8
REMARK VINA RESULT:      -9.8      7.714     12.265
REMARK  Name = 24958200
REMARK  3 active torsions:
REMARK  status: ('A' for Active; 'I' for Inactive)
REMARK    1  A    between atoms: N_1  and  C_13
REMARK    2  A    between atoms: C_6  and  C_26
REMARK    3  A    between atoms: C_10  and  C_17
REMARK                            x       y       z     vdW  Elec       q    Type
REMARK                         _______ _______ _______ _____ _____    ______ ____
ROOT
ATOM      1  N   UNL     1      33.085 -11.980 -22.558  0.00  0.00    -0.189 N 
ATOM      2  N   UNL     1      32.723 -11.373 -21.411  0.00  0.00    -0.174 NA
ATOM      3  C   UNL     1      32.370 -10.057 -23.229  0.00  0.00    +0.036 C 
ATOM      4  C   UNL     1      32.895 -11.234 -23.685  0.00  0.00    +0.091 C 
ATOM      5  C   UNL     1      32.269 -10.165 -21.794  0.00  0.00    +0.105 C 
ATOM      6  C   UNL     1      31.758  -9.100 -21.029  0.00  0.00    +0.072 C 
ATOM      7  C   UNL     1      32.006  -8.973 -24.018  0.00  0.00    +0.003 C 
ATOM      8  C   UNL     1      31.380  -7.981 -21.803  0.00  0.00    +0.006 C 
ATOM      9  C   UNL     1      31.500  -7.923 -23.228  0.00  0.00    +0.000 C 
ENDROOT
BRANCH   1  13
ATOM     10  C   UNL     1      34.657 -15.844 -22.471  0.00  0.00    -0.024 C 
ATOM     11  C   UNL     1      34.287 -15.268 -23.686  0.00  0.00    -0.003 C 
ATOM     12  C   UNL     1      34.502 -15.127 -21.284  0.00  0.00    -0.003 C 
ATOM     13  C   UNL     1      33.605 -13.260 -22.529  0.00  0.00    +0.074 C 
ATOM     14  C   UNL     1      33.761 -13.977 -23.716  0.00  0.00    +0.016 C 
ATOM     15  C   UNL     1      33.976 -13.835 -21.313  0.00  0.00    +0.016 C 
BRANCH  10  17
ATOM     16  N   UNL     1      35.882 -19.157 -20.991  0.00  0.00    +0.384 N 
ATOM     17  C   UNL     1      35.228 -17.250 -22.438  0.00  0.00    +0.001 C 
ATOM     18  C   UNL     1      34.445 -18.205 -23.354  0.00  0.00    +0.000 C 
ATOM     19  C   UNL     1      35.303 -17.811 -21.006  0.00  0.00    -0.077 C 
ATOM     20  C   UNL     1      35.015 -19.618 -23.258  0.00  0.00    -0.023 C 
ATOM     21  C   UNL     1      35.101 -20.085 -21.807  0.00  0.00    -0.082 C 
ATOM     22  H   UNL     1      35.904 -19.497 -20.030  0.00  0.00    -0.085 HD
ATOM     23  H   UNL     1      36.824 -19.103 -21.379  0.00  0.00    -0.085 HD
ENDBRANCH  10  17
ENDBRANCH   1  13
BRANCH   6  26
ATOM     24  O   UNL     1      32.009  -8.195 -18.870  0.00  0.00    -0.270 OA
ATOM     25  N   UNL     1      31.045 -10.270 -19.015  0.00  0.00    -0.325 N 
ATOM     26  C   UNL     1      31.629  -9.140 -19.589  0.00  0.00    +0.244 C 
ATOM     27  H   UNL     1      30.942 -10.329 -18.037  0.00  0.00    +0.145 HD
ATOM     28  H   UNL     1      30.735 -11.009 -19.587  0.00  0.00    +0.145 HD
ENDBRANCH   6  26
TORSDOF 3
ENDMDL
MODEL 9
REMARK VINA RESULT:      -9.8      5.416      7.973
REMARK  Name = 24958200
REMARK  3 active torsions:
REMARK  status: ('A' for Active; 'I' for Inactive)
REMARK    1  A    between atoms: N_1  and  C_13
REMARK    2  A    between atoms: C_6  and  C_26
REMARK    3  A    between atoms: C_10  and  C_17
REMARK                            x       y       z     vdW  Elec       q    Type
REMARK                         _______ _______ _______ _____ _____    ______ ____
ROOT
ATOM      1  N   UNL     1      33.809 -24.592 -14.104  0.00  0.00    -0.189 N 
ATOM      2  N   UNL     1      34.165 -24.518 -12.807  0.00  0.00    -0.174 NA
ATOM      3  C   UNL     1      35.917 -25.055 -14.149  0.00  0.00    +0.036 C 
ATOM      4  C   UNL     1      34.824 -24.912 -14.958  0.00  0.00    +0.091 C 
ATOM      5  C   UNL     1      35.480 -24.802 -12.798  0.00  0.00    +0.105 C 
ATOM      6  C   UNL     1      36.389 -24.875 -11.726  0.00  0.00    +0.072 C 
ATOM      7  C   UNL     1      37.199 -25.382 -14.572  0.00  0.00    +0.003 C 
ATOM      8  C   UNL     1      37.703 -25.207 -12.123  0.00  0.00    +0.006 C 
ATOM      9  C   UNL     1      38.087 -25.448 -13.480  0.00  0.00    +0.000 C 
ENDROOT
BRANCH   1  13
ATOM     10  C   UNL     1      29.857 -23.868 -15.229  0.00  0.00    -0.024 C 
ATOM     11  C   UNL     1      30.133 -24.717 -14.158  0.00  0.00    -0.003 C 
ATOM     12  C   UNL     1      30.903 -23.260 -15.925  0.00  0.00    -0.003 C 
ATOM     13  C   UNL     1      32.500 -24.353 -14.477  0.00  0.00    +0.074 C 
ATOM     14  C   UNL     1      31.454 -24.960 -13.782  0.00  0.00    +0.016 C 
ATOM     15  C   UNL     1      32.224 -23.502 -15.549  0.00  0.00    +0.016 C 
BRANCH  10  17
ATOM     16  N   UNL     1      26.392 -22.238 -15.220  0.00  0.00    +0.384 N 
ATOM     17  C   UNL     1      28.420 -23.605 -15.640  0.00  0.00    +0.001 C 
ATOM     18  C   UNL     1      28.297 -23.336 -17.149  0.00  0.00    +0.000 C 
ATOM     19  C   UNL     1      27.787 -22.458 -14.830  0.00  0.00    -0.077 C 
ATOM     20  C   UNL     1      26.848 -23.027 -17.517  0.00  0.00    -0.023 C 
ATOM     21  C   UNL     1      26.278 -21.914 -16.642  0.00  0.00    -0.082 C 
ATOM     22  H   UNL     1      26.013 -21.467 -14.672  0.00  0.00    -0.085 HD
ATOM     23  H   UNL     1      25.871 -23.098 -15.045  0.00  0.00    -0.085 HD
ENDBRANCH  10  17
ENDBRANCH   1  13
BRANCH   6  26
ATOM     24  O   UNL     1      35.262 -25.405  -9.728  0.00  0.00    -0.270 OA
ATOM     25  N   UNL     1      36.555 -23.513  -9.714  0.00  0.00    -0.325 N 
ATOM     26  C   UNL     1      36.020 -24.634 -10.348  0.00  0.00    +0.244 C 
ATOM     27  H   UNL     1      36.324 -23.320  -8.776  0.00  0.00    +0.145 HD
ATOM     28  H   UNL     1      37.164 -22.913 -10.203  0.00  0.00    +0.145 HD
ENDBRANCH   6  26
TORSDOF 3
ENDMDL
