MODEL 1
REMARK VINA RESULT:     -11.9      0.000      0.000
REMARK  Name = 11314340
REMARK  7 active torsions:
REMARK  status: ('A' for Active; 'I' for Inactive)
REMARK    1  A    between atoms: C_2  and  C_10
REMARK    2  A    between atoms: C_3  and  O_18
REMARK    3  A    between atoms: O_18  and  C_19
REMARK    4  A    between atoms: C_19  and  C_20
REMARK    5  A    between atoms: C_20  and  N_21
REMARK    6  A    between atoms: C_20  and  C_25
REMARK    7  A    between atoms: C_25  and  C_26
REMARK                            x       y       z     vdW  Elec       q    Type
REMARK                         _______ _______ _______ _____ _____    ______ ____
ROOT
ATOM      1  N   UNL     1      33.563 -15.369 -25.487  0.00  0.00    -0.239 NA
ATOM      2  C   UNL     1      33.409 -14.140 -23.418  0.00  0.00    +0.022 C 
ATOM      3  C   UNL     1      34.794 -16.094 -23.538  0.00  0.00    +0.158 C 
ATOM      4  C   UNL     1      34.278 -15.030 -22.806  0.00  0.00    +0.040 C 
ATOM      5  C   UNL     1      33.083 -14.346 -24.745  0.00  0.00    +0.099 C 
ATOM      6  C   UNL     1      34.408 -16.219 -24.862  0.00  0.00    +0.136 C 
ENDROOT
BRANCH   2  10
ATOM      7  N   UNL     1      31.580  -8.929 -21.647  0.00  0.00    -0.280 N 
ATOM      8  N   UNL     1      31.306  -9.815 -20.670  0.00  0.00    -0.173 NA
ATOM      9  C   UNL     1      32.315 -10.789 -22.459  0.00  0.00    +0.032 A 
ATOM     10  C   UNL     1      32.854 -13.019 -22.682  0.00  0.00    +0.002 C 
ATOM     11  C   UNL     1      31.753 -10.993 -21.145  0.00  0.00    +0.102 A 
ATOM     12  C   UNL     1      32.882 -11.748 -23.288  0.00  0.00    +0.003 C 
ATOM     13  C   UNL     1      32.187  -9.460 -22.748  0.00  0.00    +0.053 A 
ATOM     14  C   UNL     1      32.308 -13.273 -21.383  0.00  0.00    +0.002 C 
ATOM     15  C   UNL     1      31.738 -12.273 -20.563  0.00  0.00    +0.021 C 
ATOM     16  C   UNL     1      32.557  -8.636 -23.910  0.00  0.00    +0.051 C 
ATOM     17  H   UNL     1      31.359  -7.972 -21.573  0.00  0.00    +0.189 HD
ENDBRANCH   2  10
BRANCH   3  18
ATOM     18  O   UNL     1      35.648 -16.982 -22.970  0.00  0.00    -0.476 OA
BRANCH  18  19
ATOM     19  C   UNL     1      35.290 -18.364 -23.030  0.00  0.00    +0.184 C 
BRANCH  19  20
ATOM     20  C   UNL     1      35.314 -18.980 -21.626  0.00  0.00    -0.017 C 
BRANCH  20  21
ATOM     21  N   UNL     1      35.391 -17.893 -20.645  0.00  0.00    +0.384 N 
ATOM     22  H   UNL     1      36.000 -18.170 -19.876  0.00  0.00    -0.089 HD
ATOM     23  H   UNL     1      34.457 -17.694 -20.285  0.00  0.00    -0.089 HD
ATOM     24  H   UNL     1      35.767 -17.057 -21.094  0.00  0.00    -0.089 HD
ENDBRANCH  20  21
BRANCH  20  25
ATOM     25  C   UNL     1      34.061 -19.825 -21.312  0.00  0.00    +0.008 C 
BRANCH  25  26
ATOM     26  C   UNL     1      34.235 -20.814 -20.185  0.00  0.00    -0.024 C 
ATOM     27  C   UNL     1      35.514 -21.192 -19.804  0.00  0.00    -0.004 C 
ATOM     28  C   UNL     1      33.115 -21.328 -19.551  0.00  0.00    -0.004 C 
ATOM     29  C   UNL     1      35.676 -22.105 -18.763  0.00  0.00    -0.000 C 
ATOM     30  C   UNL     1      33.278 -22.242 -18.509  0.00  0.00    -0.000 C 
ATOM     31  C   UNL     1      34.557 -22.631 -18.115  0.00  0.00    -0.000 C 
ENDBRANCH  25  26
ENDBRANCH  20  25
ENDBRANCH  19  20
ENDBRANCH  18  19
ENDBRANCH   3  18
TORSDOF 7
ENDMDL
MODEL 2
REMARK VINA RESULT:     -11.5      3.172      6.265
REMARK  Name = 11314340
REMARK  7 active torsions:
REMARK  status: ('A' for Active; 'I' for Inactive)
REMARK    1  A    between atoms: C_2  and  C_10
REMARK    2  A    between atoms: C_3  and  O_18
REMARK    3  A    between atoms: O_18  and  C_19
REMARK    4  A    between atoms: C_19  and  C_20
REMARK    5  A    between atoms: C_20  and  N_21
REMARK    6  A    between atoms: C_20  and  C_25
REMARK    7  A    between atoms: C_25  and  C_26
REMARK                            x       y       z     vdW  Elec       q    Type
REMARK                         _______ _______ _______ _____ _____    ______ ____
ROOT
ATOM      1  N   UNL     1      37.436 -19.412 -19.892  0.00  0.00    -0.239 NA
ATOM      2  C   UNL     1      35.661 -19.085 -21.490  0.00  0.00    +0.022 C 
ATOM      3  C   UNL     1      35.656 -21.034 -20.093  0.00  0.00    +0.158 C 
ATOM      4  C   UNL     1      35.064 -20.272 -21.095  0.00  0.00    +0.040 C 
ATOM      5  C   UNL     1      36.833 -18.698 -20.869  0.00  0.00    +0.099 C 
ATOM      6  C   UNL     1      36.830 -20.565 -19.529  0.00  0.00    +0.136 C 
ENDROOT
BRANCH   2  10
ATOM      7  N   UNL     1      33.605 -14.752 -24.751  0.00  0.00    -0.280 N 
ATOM      8  N   UNL     1      33.418 -15.902 -25.429  0.00  0.00    -0.173 NA
ATOM      9  C   UNL     1      34.414 -16.241 -23.415  0.00  0.00    +0.032 A 
ATOM     10  C   UNL     1      35.070 -18.268 -22.534  0.00  0.00    +0.002 C 
ATOM     11  C   UNL     1      33.914 -16.857 -24.621  0.00  0.00    +0.102 A 
ATOM     12  C   UNL     1      35.003 -16.876 -22.329  0.00  0.00    +0.003 C 
ATOM     13  C   UNL     1      34.200 -14.897 -23.533  0.00  0.00    +0.053 A 
ATOM     14  C   UNL     1      34.589 -18.925 -23.711  0.00  0.00    +0.002 C 
ATOM     15  C   UNL     1      33.993 -18.250 -24.799  0.00  0.00    +0.021 C 
ATOM     16  C   UNL     1      34.481 -13.746 -22.659  0.00  0.00    +0.051 C 
ATOM     17  H   UNL     1      33.333 -13.876 -25.109  0.00  0.00    +0.189 HD
ENDBRANCH   2  10
BRANCH   3  18
ATOM     18  O   UNL     1      35.098 -22.200 -19.682  0.00  0.00    -0.476 OA
BRANCH  18  19
ATOM     19  C   UNL     1      35.001 -22.419 -18.273  0.00  0.00    +0.184 C 
BRANCH  19  20
ATOM     20  C   UNL     1      33.530 -22.509 -17.850  0.00  0.00    -0.017 C 
BRANCH  20  21
ATOM     21  N   UNL     1      32.697 -22.446 -19.054  0.00  0.00    +0.384 N 
ATOM     22  H   UNL     1      33.054 -23.100 -19.750  0.00  0.00    -0.089 HD
ATOM     23  H   UNL     1      32.720 -21.499 -19.434  0.00  0.00    -0.089 HD
ATOM     24  H   UNL     1      31.736 -22.693 -18.816  0.00  0.00    -0.089 HD
ENDBRANCH  20  21
BRANCH  20  25
ATOM     25  C   UNL     1      33.193 -23.815 -17.098  0.00  0.00    +0.008 C 
BRANCH  25  26
ATOM     26  C   UNL     1      32.315 -23.633 -15.884  0.00  0.00    -0.024 C 
ATOM     27  C   UNL     1      32.870 -23.755 -14.619  0.00  0.00    -0.004 C 
ATOM     28  C   UNL     1      30.969 -23.349 -16.055  0.00  0.00    -0.004 C 
ATOM     29  C   UNL     1      32.059 -23.587 -13.498  0.00  0.00    -0.000 C 
ATOM     30  C   UNL     1      30.158 -23.181 -14.932  0.00  0.00    -0.000 C 
ATOM     31  C   UNL     1      30.702 -23.301 -13.654  0.00  0.00    -0.000 C 
ENDBRANCH  25  26
ENDBRANCH  20  25
ENDBRANCH  19  20
ENDBRANCH  18  19
ENDBRANCH   3  18
TORSDOF 7
ENDMDL
MODEL 3
REMARK VINA RESULT:     -11.4      2.032      9.370
REMARK  Name = 11314340
REMARK  7 active torsions:
REMARK  status: ('A' for Active; 'I' for Inactive)
REMARK    1  A    between atoms: C_2  and  C_10
REMARK    2  A    between atoms: C_3  and  O_18
REMARK    3  A    between atoms: O_18  and  C_19
REMARK    4  A    between atoms: C_19  and  C_20
REMARK    5  A    between atoms: C_20  and  N_21
REMARK    6  A    between atoms: C_20  and  C_25
REMARK    7  A    between atoms: C_25  and  C_26
REMARK                            x       y       z     vdW  Elec       q    Type
REMARK                         _______ _______ _______ _____ _____    ______ ____
ROOT
ATOM      1  N   UNL     1      34.224 -17.398 -24.839  0.00  0.00    -0.239 NA
ATOM      2  C   UNL     1      35.027 -17.858 -22.613  0.00  0.00    +0.022 C 
ATOM      3  C   UNL     1      34.613 -15.592 -23.281  0.00  0.00    +0.158 C 
ATOM      4  C   UNL     1      35.021 -16.504 -22.313  0.00  0.00    +0.040 C 
ATOM      5  C   UNL     1      34.626 -18.255 -23.874  0.00  0.00    +0.099 C 
ATOM      6  C   UNL     1      34.229 -16.085 -24.516  0.00  0.00    +0.136 C 
ENDROOT
BRANCH   2  10
ATOM      7  N   UNL     1      35.313 -22.108 -18.676  0.00  0.00    -0.280 N 
ATOM      8  N   UNL     1      36.556 -21.612 -18.839  0.00  0.00    -0.173 NA
ATOM      9  C   UNL     1      35.030 -20.559 -20.153  0.00  0.00    +0.032 A 
ATOM     10  C   UNL     1      35.448 -18.835 -21.625  0.00  0.00    +0.002 C 
ATOM     11  C   UNL     1      36.416 -20.639 -19.758  0.00  0.00    +0.102 A 
ATOM     12  C   UNL     1      34.469 -19.686 -21.077  0.00  0.00    +0.003 C 
ATOM     13  C   UNL     1      34.355 -21.510 -19.443  0.00  0.00    +0.053 A 
ATOM     14  C   UNL     1      36.833 -18.875 -21.267  0.00  0.00    +0.002 C 
ATOM     15  C   UNL     1      37.373 -19.776 -20.322  0.00  0.00    +0.021 C 
ATOM     16  C   UNL     1      32.944 -21.927 -19.393  0.00  0.00    +0.051 C 
ATOM     17  H   UNL     1      35.113 -22.844 -18.054  0.00  0.00    +0.189 HD
ENDBRANCH   2  10
BRANCH   3  18
ATOM     18  O   UNL     1      34.594 -14.261 -23.020  0.00  0.00    -0.476 OA
BRANCH  18  19
ATOM     19  C   UNL     1      33.611 -13.788 -22.097  0.00  0.00    +0.184 C 
BRANCH  19  20
ATOM     20  C   UNL     1      33.179 -12.363 -22.464  0.00  0.00    -0.017 C 
BRANCH  20  21
ATOM     21  N   UNL     1      33.149 -12.251 -23.925  0.00  0.00    +0.384 N 
ATOM     22  H   UNL     1      33.291 -11.278 -24.195  0.00  0.00    -0.089 HD
ATOM     23  H   UNL     1      32.245 -12.572 -24.272  0.00  0.00    -0.089 HD
ATOM     24  H   UNL     1      33.891 -12.827 -24.326  0.00  0.00    -0.089 HD
ENDBRANCH  20  21
BRANCH  20  25
ATOM     25  C   UNL     1      31.782 -11.993 -21.923  0.00  0.00    +0.008 C 
BRANCH  25  26
ATOM     26  C   UNL     1      31.769 -10.838 -20.952  0.00  0.00    -0.024 C 
ATOM     27  C   UNL     1      31.558 -11.085 -19.603  0.00  0.00    -0.004 C 
ATOM     28  C   UNL     1      31.969  -9.550 -21.424  0.00  0.00    -0.004 C 
ATOM     29  C   UNL     1      31.546 -10.018 -18.706  0.00  0.00    -0.000 C 
ATOM     30  C   UNL     1      31.957  -8.483 -20.525  0.00  0.00    -0.000 C 
ATOM     31  C   UNL     1      31.746  -8.716 -19.167  0.00  0.00    -0.000 C 
ENDBRANCH  25  26
ENDBRANCH  20  25
ENDBRANCH  19  20
ENDBRANCH  18  19
ENDBRANCH   3  18
TORSDOF 7
ENDMDL
MODEL 4
REMARK VINA RESULT:     -11.2      5.514     12.302
REMARK  Name = 11314340
REMARK  7 active torsions:
REMARK  status: ('A' for Active; 'I' for Inactive)
REMARK    1  A    between atoms: C_2  and  C_10
REMARK    2  A    between atoms: C_3  and  O_18
REMARK    3  A    between atoms: O_18  and  C_19
REMARK    4  A    between atoms: C_19  and  C_20
REMARK    5  A    between atoms: C_20  and  N_21
REMARK    6  A    between atoms: C_20  and  C_25
REMARK    7  A    between atoms: C_25  and  C_26
REMARK                            x       y       z     vdW  Elec       q    Type
REMARK                         _______ _______ _______ _____ _____    ______ ____
ROOT
ATOM      1  N   UNL     1      31.490 -23.481 -15.164  0.00  0.00    -0.239 NA
ATOM      2  C   UNL     1      33.900 -23.565 -15.189  0.00  0.00    +0.022 C 
ATOM      3  C   UNL     1      32.709 -23.048 -17.206  0.00  0.00    +0.158 C 
ATOM      4  C   UNL     1      33.913 -23.249 -16.539  0.00  0.00    +0.040 C 
ATOM      5  C   UNL     1      32.679 -23.669 -14.550  0.00  0.00    +0.099 C 
ATOM      6  C   UNL     1      31.536 -23.175 -16.480  0.00  0.00    +0.136 C 
ENDROOT
BRANCH   2  10
ATOM      7  N   UNL     1      37.967 -24.532 -11.169  0.00  0.00    -0.280 N 
ATOM      8  N   UNL     1      38.586 -24.400 -12.359  0.00  0.00    -0.173 NA
ATOM      9  C   UNL     1      36.331 -24.183 -12.534  0.00  0.00    +0.032 A 
ATOM     10  C   UNL     1      35.139 -23.781 -14.465  0.00  0.00    +0.002 C 
ATOM     11  C   UNL     1      37.591 -24.180 -13.238  0.00  0.00    +0.102 A 
ATOM     12  C   UNL     1      35.066 -23.991 -13.075  0.00  0.00    +0.003 C 
ATOM     13  C   UNL     1      36.608 -24.411 -11.216  0.00  0.00    +0.053 A 
ATOM     14  C   UNL     1      36.362 -23.770 -15.208  0.00  0.00    +0.002 C 
ATOM     15  C   UNL     1      37.634 -23.968 -14.628  0.00  0.00    +0.021 C 
ATOM     16  C   UNL     1      35.772 -24.528 -10.010  0.00  0.00    +0.051 C 
ATOM     17  H   UNL     1      38.456 -24.704 -10.333  0.00  0.00    +0.189 HD
ENDBRANCH   2  10
BRANCH   3  18
ATOM     18  O   UNL     1      32.686 -22.737 -18.526  0.00  0.00    -0.476 OA
BRANCH  18  19
ATOM     19  C   UNL     1      33.937 -22.446 -19.152  0.00  0.00    +0.184 C 
BRANCH  19  20
ATOM     20  C   UNL     1      33.765 -21.327 -20.187  0.00  0.00    -0.017 C 
BRANCH  20  21
ATOM     21  N   UNL     1      32.584 -20.539 -19.824  0.00  0.00    +0.384 N 
ATOM     22  H   UNL     1      32.821 -19.548 -19.827  0.00  0.00    -0.089 HD
ATOM     23  H   UNL     1      32.267 -20.811 -18.893  0.00  0.00    -0.089 HD
ATOM     24  H   UNL     1      31.838 -20.713 -20.500  0.00  0.00    -0.089 HD
ENDBRANCH  20  21
BRANCH  20  25
ATOM     25  C   UNL     1      34.977 -20.374 -20.258  0.00  0.00    +0.008 C 
BRANCH  25  26
ATOM     26  C   UNL     1      34.929 -19.378 -21.392  0.00  0.00    -0.024 C 
ATOM     27  C   UNL     1      34.475 -19.788 -22.637  0.00  0.00    -0.004 C 
ATOM     28  C   UNL     1      35.338 -18.073 -21.168  0.00  0.00    -0.004 C 
ATOM     29  C   UNL     1      34.430 -18.868 -23.684  0.00  0.00    -0.000 C 
ATOM     30  C   UNL     1      35.292 -17.154 -22.217  0.00  0.00    -0.000 C 
ATOM     31  C   UNL     1      34.839 -17.551 -23.475  0.00  0.00    -0.000 C 
ENDBRANCH  25  26
ENDBRANCH  20  25
ENDBRANCH  19  20
ENDBRANCH  18  19
ENDBRANCH   3  18
TORSDOF 7
ENDMDL
MODEL 5
REMARK VINA RESULT:     -10.9      3.348     10.489
REMARK  Name = 11314340
REMARK  7 active torsions:
REMARK  status: ('A' for Active; 'I' for Inactive)
REMARK    1  A    between atoms: C_2  and  C_10
REMARK    2  A    between atoms: C_3  and  O_18
REMARK    3  A    between atoms: O_18  and  C_19
REMARK    4  A    between atoms: C_19  and  C_20
REMARK    5  A    between atoms: C_20  and  N_21
REMARK    6  A    between atoms: C_20  and  C_25
REMARK    7  A    between atoms: C_25  and  C_26
REMARK                            x       y       z     vdW  Elec       q    Type
REMARK                         _______ _______ _______ _____ _____    ______ ____
ROOT
ATOM      1  N   UNL     1      31.742 -11.797 -19.886  0.00  0.00    -0.239 NA
ATOM      2  C   UNL     1      32.603 -12.537 -22.013  0.00  0.00    +0.022 C 
ATOM      3  C   UNL     1      31.925 -10.254 -21.737  0.00  0.00    +0.158 C 
ATOM      4  C   UNL     1      32.439 -11.266 -22.540  0.00  0.00    +0.040 C 
ATOM      5  C   UNL     1      32.245 -12.755 -20.696  0.00  0.00    +0.099 C 
ATOM      6  C   UNL     1      31.594 -10.568 -20.430  0.00  0.00    +0.136 C 
ENDROOT
BRANCH   2  10
ATOM      7  N   UNL     1      35.164 -17.353 -23.986  0.00  0.00    -0.280 N 
ATOM      8  N   UNL     1      34.666 -16.686 -25.046  0.00  0.00    -0.173 NA
ATOM      9  C   UNL     1      34.258 -15.612 -23.086  0.00  0.00    +0.032 A 
ATOM     10  C   UNL     1      33.136 -13.615 -22.825  0.00  0.00    +0.002 C 
ATOM     11  C   UNL     1      34.091 -15.590 -24.520  0.00  0.00    +0.102 A 
ATOM     12  C   UNL     1      33.812 -14.665 -22.173  0.00  0.00    +0.003 C 
ATOM     13  C   UNL     1      34.947 -16.751 -22.781  0.00  0.00    +0.053 A 
ATOM     14  C   UNL     1      32.944 -13.548 -24.242  0.00  0.00    +0.002 C 
ATOM     15  C   UNL     1      33.412 -14.529 -25.145  0.00  0.00    +0.021 C 
ATOM     16  C   UNL     1      35.422 -17.341 -21.518  0.00  0.00    +0.051 C 
ATOM     17  H   UNL     1      35.646 -18.207 -24.075  0.00  0.00    +0.189 HD
ENDBRANCH   2  10
BRANCH   3  18
ATOM     18  O   UNL     1      31.753  -8.998 -22.221  0.00  0.00    -0.476 OA
BRANCH  18  19
ATOM     19  C   UNL     1      31.550  -7.952 -21.270  0.00  0.00    +0.184 C 
BRANCH  19  20
ATOM     20  C   UNL     1      32.848  -7.162 -21.064  0.00  0.00    -0.017 C 
BRANCH  20  21
ATOM     21  N   UNL     1      33.333  -7.417 -19.704  0.00  0.00    +0.384 N 
ATOM     22  H   UNL     1      32.958  -8.304 -19.369  0.00  0.00    -0.089 HD
ATOM     23  H   UNL     1      33.027  -6.663 -19.088  0.00  0.00    -0.089 HD
ATOM     24  H   UNL     1      34.353  -7.459 -19.709  0.00  0.00    -0.089 HD
ENDBRANCH  20  21
BRANCH  20  25
ATOM     25  C   UNL     1      33.963  -7.556 -22.055  0.00  0.00    +0.008 C 
BRANCH  25  26
ATOM     26  C   UNL     1      34.101  -6.637 -23.245  0.00  0.00    -0.024 C 
ATOM     27  C   UNL     1      33.085  -5.737 -23.530  0.00  0.00    -0.004 C 
ATOM     28  C   UNL     1      35.240  -6.708 -24.032  0.00  0.00    -0.004 C 
ATOM     29  C   UNL     1      33.211  -4.887 -24.628  0.00  0.00    -0.000 C 
ATOM     30  C   UNL     1      35.365  -5.858 -25.131  0.00  0.00    -0.000 C 
ATOM     31  C   UNL     1      34.352  -4.948 -25.430  0.00  0.00    -0.000 C 
ENDBRANCH  25  26
ENDBRANCH  20  25
ENDBRANCH  19  20
ENDBRANCH  18  19
ENDBRANCH   3  18
TORSDOF 7
ENDMDL
MODEL 6
REMARK VINA RESULT:     -10.8      5.483     12.527
REMARK  Name = 11314340
REMARK  7 active torsions:
REMARK  status: ('A' for Active; 'I' for Inactive)
REMARK    1  A    between atoms: C_2  and  C_10
REMARK    2  A    between atoms: C_3  and  O_18
REMARK    3  A    between atoms: O_18  and  C_19
REMARK    4  A    between atoms: C_19  and  C_20
REMARK    5  A    between atoms: C_20  and  N_21
REMARK    6  A    between atoms: C_20  and  C_25
REMARK    7  A    between atoms: C_25  and  C_26
REMARK                            x       y       z     vdW  Elec       q    Type
REMARK                         _______ _______ _______ _____ _____    ______ ____
ROOT
ATOM      1  N   UNL     1      31.515 -23.186 -15.586  0.00  0.00    -0.239 NA
ATOM      2  C   UNL     1      33.770 -23.882 -15.088  0.00  0.00    +0.022 C 
ATOM      3  C   UNL     1      33.190 -23.250 -17.328  0.00  0.00    +0.158 C 
ATOM      4  C   UNL     1      34.138 -23.694 -16.412  0.00  0.00    +0.040 C 
ATOM      5  C   UNL     1      32.463 -23.619 -14.724  0.00  0.00    +0.099 C 
ATOM      6  C   UNL     1      31.905 -23.014 -16.869  0.00  0.00    +0.136 C 
ENDROOT
BRANCH   2  10
ATOM      7  N   UNL     1      38.487 -25.811 -12.320  0.00  0.00    -0.280 N 
ATOM      8  N   UNL     1      37.508 -25.656 -11.407  0.00  0.00    -0.173 NA
ATOM      9  C   UNL     1      36.828 -25.098 -13.502  0.00  0.00    +0.032 A 
ATOM     10  C   UNL     1      34.735 -24.345 -14.109  0.00  0.00    +0.002 C 
ATOM     11  C   UNL     1      36.453 -25.210 -12.113  0.00  0.00    +0.102 A 
ATOM     12  C   UNL     1      36.029 -24.675 -14.557  0.00  0.00    +0.003 C 
ATOM     13  C   UNL     1      38.133 -25.490 -13.598  0.00  0.00    +0.053 A 
ATOM     14  C   UNL     1      34.315 -24.438 -12.744  0.00  0.00    +0.002 C 
ATOM     15  C   UNL     1      35.153 -24.873 -11.693  0.00  0.00    +0.021 C 
ATOM     16  C   UNL     1      39.079 -25.599 -14.721  0.00  0.00    +0.051 C 
ATOM     17  H   UNL     1      39.388 -26.131 -12.083  0.00  0.00    +0.189 HD
ENDBRANCH   2  10
BRANCH   3  18
ATOM     18  O   UNL     1      33.516 -23.054 -18.630  0.00  0.00    -0.476 OA
BRANCH  18  19
ATOM     19  C   UNL     1      34.651 -22.231 -18.905  0.00  0.00    +0.184 C 
BRANCH  19  20
ATOM     20  C   UNL     1      34.374 -21.330 -20.114  0.00  0.00    -0.017 C 
BRANCH  20  21
ATOM     21  N   UNL     1      33.141 -20.579 -19.858  0.00  0.00    +0.384 N 
ATOM     22  H   UNL     1      33.036 -19.848 -20.561  0.00  0.00    -0.089 HD
ATOM     23  H   UNL     1      33.188 -20.156 -18.930  0.00  0.00    -0.089 HD
ATOM     24  H   UNL     1      32.342 -21.212 -19.902  0.00  0.00    -0.089 HD
ENDBRANCH  20  21
BRANCH  20  25
ATOM     25  C   UNL     1      35.506 -20.319 -20.391  0.00  0.00    +0.008 C 
BRANCH  25  26
ATOM     26  C   UNL     1      35.227 -19.355 -21.518  0.00  0.00    -0.024 C 
ATOM     27  C   UNL     1      34.726 -19.838 -22.718  0.00  0.00    -0.004 C 
ATOM     28  C   UNL     1      35.476 -18.003 -21.335  0.00  0.00    -0.004 C 
ATOM     29  C   UNL     1      34.467 -18.947 -23.759  0.00  0.00    -0.000 C 
ATOM     30  C   UNL     1      35.217 -17.113 -22.377  0.00  0.00    -0.000 C 
ATOM     31  C   UNL     1      34.713 -17.584 -23.589  0.00  0.00    -0.000 C 
ENDBRANCH  25  26
ENDBRANCH  20  25
ENDBRANCH  19  20
ENDBRANCH  18  19
ENDBRANCH   3  18
TORSDOF 7
ENDMDL
MODEL 7
REMARK VINA RESULT:     -10.8      1.911      9.850
REMARK  Name = 11314340
REMARK  7 active torsions:
REMARK  status: ('A' for Active; 'I' for Inactive)
REMARK    1  A    between atoms: C_2  and  C_10
REMARK    2  A    between atoms: C_3  and  O_18
REMARK    3  A    between atoms: O_18  and  C_19
REMARK    4  A    between atoms: C_19  and  C_20
REMARK    5  A    between atoms: C_20  and  N_21
REMARK    6  A    between atoms: C_20  and  C_25
REMARK    7  A    between atoms: C_25  and  C_26
REMARK                            x       y       z     vdW  Elec       q    Type
REMARK                         _______ _______ _______ _____ _____    ______ ____
ROOT
ATOM      1  N   UNL     1      34.165 -16.817 -25.088  0.00  0.00    -0.239 NA
ATOM      2  C   UNL     1      34.932 -17.382 -22.873  0.00  0.00    +0.022 C 
ATOM      3  C   UNL     1      34.420 -15.101 -23.406  0.00  0.00    +0.158 C 
ATOM      4  C   UNL     1      34.848 -16.053 -22.487  0.00  0.00    +0.040 C 
ATOM      5  C   UNL     1      34.585 -17.715 -24.168  0.00  0.00    +0.099 C 
ATOM      6  C   UNL     1      34.094 -15.530 -24.682  0.00  0.00    +0.136 C 
ENDROOT
BRANCH   2  10
ATOM      7  N   UNL     1      35.302 -21.751 -19.077  0.00  0.00    -0.280 N 
ATOM      8  N   UNL     1      36.549 -21.290 -19.297  0.00  0.00    -0.173 NA
ATOM      9  C   UNL     1      34.987 -20.152 -20.492  0.00  0.00    +0.032 A 
ATOM     10  C   UNL     1      35.375 -18.400 -21.938  0.00  0.00    +0.002 C 
ATOM     11  C   UNL     1      36.389 -20.287 -20.179  0.00  0.00    +0.102 A 
ATOM     12  C   UNL     1      34.402 -19.236 -21.358  0.00  0.00    +0.003 C 
ATOM     13  C   UNL     1      34.322 -21.102 -19.770  0.00  0.00    +0.053 A 
ATOM     14  C   UNL     1      36.776 -18.493 -21.662  0.00  0.00    +0.002 C 
ATOM     15  C   UNL     1      37.340 -19.437 -20.774  0.00  0.00    +0.021 C 
ATOM     16  C   UNL     1      32.903 -21.476 -19.650  0.00  0.00    +0.051 C 
ATOM     17  H   UNL     1      35.114 -22.498 -18.464  0.00  0.00    +0.189 HD
ENDBRANCH   2  10
BRANCH   3  18
ATOM     18  O   UNL     1      34.325 -13.792 -23.061  0.00  0.00    -0.476 OA
BRANCH  18  19
ATOM     19  C   UNL     1      33.761 -12.900 -24.025  0.00  0.00    +0.184 C 
BRANCH  19  20
ATOM     20  C   UNL     1      32.906 -11.836 -23.328  0.00  0.00    -0.017 C 
BRANCH  20  21
ATOM     21  N   UNL     1      32.501 -12.354 -22.018  0.00  0.00    +0.384 N 
ATOM     22  H   UNL     1      32.176 -13.316 -22.117  0.00  0.00    -0.089 HD
ATOM     23  H   UNL     1      31.747 -11.777 -21.643  0.00  0.00    -0.089 HD
ATOM     24  H   UNL     1      33.298 -12.328 -21.380  0.00  0.00    -0.089 HD
ENDBRANCH  20  21
BRANCH  20  25
ATOM     25  C   UNL     1      33.652 -10.503 -23.110  0.00  0.00    +0.008 C 
BRANCH  25  26
ATOM     26  C   UNL     1      32.755  -9.306 -22.907  0.00  0.00    -0.024 C 
ATOM     27  C   UNL     1      32.132  -8.729 -24.004  0.00  0.00    -0.004 C 
ATOM     28  C   UNL     1      32.570  -8.804 -21.628  0.00  0.00    -0.004 C 
ATOM     29  C   UNL     1      31.304  -7.624 -23.816  0.00  0.00    -0.000 C 
ATOM     30  C   UNL     1      31.740  -7.697 -21.442  0.00  0.00    -0.000 C 
ATOM     31  C   UNL     1      31.108  -7.107 -22.535  0.00  0.00    -0.000 C 
ENDBRANCH  25  26
ENDBRANCH  20  25
ENDBRANCH  19  20
ENDBRANCH  18  19
ENDBRANCH   3  18
TORSDOF 7
ENDMDL
MODEL 8
REMARK VINA RESULT:     -10.8      3.755     11.058
REMARK  Name = 11314340
REMARK  7 active torsions:
REMARK  status: ('A' for Active; 'I' for Inactive)
REMARK    1  A    between atoms: C_2  and  C_10
REMARK    2  A    between atoms: C_3  and  O_18
REMARK    3  A    between atoms: O_18  and  C_19
REMARK    4  A    between atoms: C_19  and  C_20
REMARK    5  A    between atoms: C_20  and  N_21
REMARK    6  A    between atoms: C_20  and  C_25
REMARK    7  A    between atoms: C_25  and  C_26
REMARK                            x       y       z     vdW  Elec       q    Type
REMARK                         _______ _______ _______ _____ _____    ______ ____
ROOT
ATOM      1  N   UNL     1      32.767 -22.009 -19.265  0.00  0.00    -0.239 NA
ATOM      2  C   UNL     1      34.832 -22.167 -18.030  0.00  0.00    +0.022 C 
ATOM      3  C   UNL     1      34.789 -21.004 -20.127  0.00  0.00    +0.158 C 
ATOM      4  C   UNL     1      35.494 -21.446 -19.013  0.00  0.00    +0.040 C 
ATOM      5  C   UNL     1      33.484 -22.422 -18.196  0.00  0.00    +0.099 C 
ATOM      6  C   UNL     1      33.441 -21.310 -20.205  0.00  0.00    +0.136 C 
ENDROOT
BRANCH   2  10
ATOM      7  N   UNL     1      36.338 -24.441 -12.912  0.00  0.00    -0.280 N 
ATOM      8  N   UNL     1      37.462 -24.008 -13.517  0.00  0.00    -0.173 NA
ATOM      9  C   UNL     1      35.607 -23.636 -14.777  0.00  0.00    +0.032 A 
ATOM     10  C   UNL     1      35.540 -22.642 -16.855  0.00  0.00    +0.002 C 
ATOM     11  C   UNL     1      37.042 -23.497 -14.688  0.00  0.00    +0.102 A 
ATOM     12  C   UNL     1      34.787 -23.235 -15.823  0.00  0.00    +0.003 C 
ATOM     13  C   UNL     1      35.192 -24.243 -13.626  0.00  0.00    +0.053 A 
ATOM     14  C   UNL     1      36.961 -22.482 -16.816  0.00  0.00    +0.002 C 
ATOM     15  C   UNL     1      37.768 -22.901 -15.735  0.00  0.00    +0.021 C 
ATOM     16  C   UNL     1      33.874 -24.656 -13.116  0.00  0.00    +0.051 C 
ATOM     17  H   UNL     1      36.345 -24.869 -12.025  0.00  0.00    +0.189 HD
ENDBRANCH   2  10
BRANCH   3  18
ATOM     18  O   UNL     1      35.405 -20.296 -21.106  0.00  0.00    -0.476 OA
BRANCH  18  19
ATOM     19  C   UNL     1      34.572 -19.570 -22.012  0.00  0.00    +0.184 C 
BRANCH  19  20
ATOM     20  C   UNL     1      35.219 -18.226 -22.368  0.00  0.00    -0.017 C 
BRANCH  20  21
ATOM     21  N   UNL     1      36.675 -18.391 -22.337  0.00  0.00    +0.384 N 
ATOM     22  H   UNL     1      37.055 -18.238 -23.270  0.00  0.00    -0.089 HD
ATOM     23  H   UNL     1      36.903 -19.336 -22.027  0.00  0.00    -0.089 HD
ATOM     24  H   UNL     1      37.080 -17.714 -21.689  0.00  0.00    -0.089 HD
ENDBRANCH  20  21
BRANCH  20  25
ATOM     25  C   UNL     1      34.821 -17.711 -23.767  0.00  0.00    +0.008 C 
BRANCH  25  26
ATOM     26  C   UNL     1      34.413 -16.259 -23.811  0.00  0.00    -0.024 C 
ATOM     27  C   UNL     1      34.730 -15.431 -22.744  0.00  0.00    -0.004 C 
ATOM     28  C   UNL     1      33.728 -15.777 -24.916  0.00  0.00    -0.004 C 
ATOM     29  C   UNL     1      34.353 -14.089 -22.784  0.00  0.00    -0.000 C 
ATOM     30  C   UNL     1      33.352 -14.434 -24.955  0.00  0.00    -0.000 C 
ATOM     31  C   UNL     1      33.664 -13.590 -23.890  0.00  0.00    -0.000 C 
ENDBRANCH  25  26
ENDBRANCH  20  25
ENDBRANCH  19  20
ENDBRANCH  18  19
ENDBRANCH   3  18
TORSDOF 7
ENDMDL
MODEL 9
REMARK VINA RESULT:     -10.8      4.573     11.882
REMARK  Name = 11314340
REMARK  7 active torsions:
REMARK  status: ('A' for Active; 'I' for Inactive)
REMARK    1  A    between atoms: C_2  and  C_10
REMARK    2  A    between atoms: C_3  and  O_18
REMARK    3  A    between atoms: O_18  and  C_19
REMARK    4  A    between atoms: C_19  and  C_20
REMARK    5  A    between atoms: C_20  and  N_21
REMARK    6  A    between atoms: C_20  and  C_25
REMARK    7  A    between atoms: C_25  and  C_26
REMARK                            x       y       z     vdW  Elec       q    Type
REMARK                         _______ _______ _______ _____ _____    ______ ____
ROOT
ATOM      1  N   UNL     1      32.635 -22.874 -18.015  0.00  0.00    -0.239 NA
ATOM      2  C   UNL     1      34.529 -23.193 -16.557  0.00  0.00    +0.022 C 
ATOM      3  C   UNL     1      34.795 -21.954 -18.593  0.00  0.00    +0.158 C 
ATOM      4  C   UNL     1      35.339 -22.476 -17.424  0.00  0.00    +0.040 C 
ATOM      5  C   UNL     1      33.199 -23.366 -16.889  0.00  0.00    +0.099 C 
ATOM      6  C   UNL     1      33.451 -22.180 -18.840  0.00  0.00    +0.136 C 
ENDROOT
BRANCH   2  10
ATOM      7  N   UNL     1      37.884 -25.504 -12.429  0.00  0.00    -0.280 N 
ATOM      8  N   UNL     1      36.653 -25.329 -11.909  0.00  0.00    -0.173 NA
ATOM      9  C   UNL     1      36.779 -24.648 -14.074  0.00  0.00    +0.032 A 
ATOM     10  C   UNL     1      35.067 -23.751 -15.330  0.00  0.00    +0.002 C 
ATOM     11  C   UNL     1      35.934 -24.794 -12.912  0.00  0.00    +0.102 A 
ATOM     12  C   UNL     1      36.421 -24.138 -15.315  0.00  0.00    +0.003 C 
ATOM     13  C   UNL     1      38.017 -25.111 -13.729  0.00  0.00    +0.053 A 
ATOM     14  C   UNL     1      34.189 -23.875 -14.206  0.00  0.00    +0.002 C 
ATOM     15  C   UNL     1      34.584 -24.399 -12.955  0.00  0.00    +0.021 C 
ATOM     16  C   UNL     1      39.293 -25.230 -14.454  0.00  0.00    +0.051 C 
ATOM     17  H   UNL     1      38.630 -25.885 -11.910  0.00  0.00    +0.189 HD
ENDBRANCH   2  10
BRANCH   3  18
ATOM     18  O   UNL     1      35.558 -21.247 -19.463  0.00  0.00    -0.476 OA
BRANCH  18  19
ATOM     19  C   UNL     1      34.887 -20.593 -20.541  0.00  0.00    +0.184 C 
BRANCH  19  20
ATOM     20  C   UNL     1      35.605 -19.287 -20.900  0.00  0.00    -0.017 C 
BRANCH  20  21
ATOM     21  N   UNL     1      36.974 -19.354 -20.381  0.00  0.00    +0.384 N 
ATOM     22  H   UNL     1      37.481 -18.511 -20.648  0.00  0.00    -0.089 HD
ATOM     23  H   UNL     1      37.444 -20.172 -20.770  0.00  0.00    -0.089 HD
ATOM     24  H   UNL     1      36.949 -19.429 -19.363  0.00  0.00    -0.089 HD
ENDBRANCH  20  21
BRANCH  20  25
ATOM     25  C   UNL     1      35.676 -19.030 -22.420  0.00  0.00    +0.008 C 
BRANCH  25  26
ATOM     26  C   UNL     1      35.139 -17.689 -22.858  0.00  0.00    -0.024 C 
ATOM     27  C   UNL     1      35.132 -16.633 -21.958  0.00  0.00    -0.004 C 
ATOM     28  C   UNL     1      34.663 -17.536 -24.150  0.00  0.00    -0.004 C 
ATOM     29  C   UNL     1      34.637 -15.394 -22.362  0.00  0.00    -0.000 C 
ATOM     30  C   UNL     1      34.167 -16.296 -24.554  0.00  0.00    -0.000 C 
ATOM     31  C   UNL     1      34.153 -15.225 -23.660  0.00  0.00    -0.000 C 
ENDBRANCH  25  26
ENDBRANCH  20  25
ENDBRANCH  19  20
ENDBRANCH  18  19
ENDBRANCH   3  18
TORSDOF 7
ENDMDL
