MODEL 1
REMARK VINA RESULT:     -12.5      0.000      0.000
REMARK  Name = 25151352
REMARK  5 active torsions:
REMARK  status: ('A' for Active; 'I' for Inactive)
REMARK    1  A    between atoms: N_1  and  C_21
REMARK    2  A    between atoms: C_3  and  C_9
REMARK    3  A    between atoms: C_9  and  C_13
REMARK    4  A    between atoms: C_21  and  C_23
REMARK    5  A    between atoms: C_27  and  C_31
REMARK                            x       y       z     vdW  Elec       q    Type
REMARK                         _______ _______ _______ _____ _____    ______ ____
ROOT
ATOM      1  N   UNL     1      33.143 -22.409 -18.603  0.00  0.00    -0.314 N 
ATOM      2  N   UNL     1      33.048 -20.644 -20.202  0.00  0.00    -0.230 NA
ATOM      3  C   UNL     1      35.102 -19.640 -20.987  0.00  0.00    +0.002 C 
ATOM      4  C   UNL     1      35.838 -20.493 -20.173  0.00  0.00    +0.000 C 
ATOM      5  C   UNL     1      33.721 -19.754 -20.965  0.00  0.00    +0.096 C 
ATOM      6  C   UNL     1      33.797 -21.456 -19.423  0.00  0.00    +0.129 C 
ATOM      7  C   UNL     1      35.182 -21.421 -19.373  0.00  0.00    +0.034 C 
ATOM      8  H   UNL     1      32.160 -22.452 -18.622  0.00  0.00    +0.149 HD
ENDROOT
BRANCH   3   9
ATOM      9  C   UNL     1      35.791 -18.614 -21.874  0.00  0.00    +0.056 C 
BRANCH   9  13
ATOM     10 CL   UNL     1      34.292 -12.981 -23.011  0.00  0.00    -0.081 Cl
ATOM     11  N   UNL     1      33.922 -18.382 -25.009  0.00  0.00    -0.297 N 
ATOM     12  N   UNL     1      33.364 -16.068 -25.377  0.00  0.00    -0.228 NA
ATOM     13  C   UNL     1      35.029 -18.243 -23.084  0.00  0.00    -0.000 C 
ATOM     14  C   UNL     1      34.617 -16.936 -23.456  0.00  0.00    +0.030 C 
ATOM     15  C   UNL     1      33.930 -17.057 -24.660  0.00  0.00    +0.132 C 
ATOM     16  C   UNL     1      34.587 -19.112 -24.058  0.00  0.00    +0.059 C 
ATOM     17  C   UNL     1      34.745 -15.648 -22.911  0.00  0.00    +0.015 C 
ATOM     18  C   UNL     1      34.177 -14.586 -23.613  0.00  0.00    +0.077 C 
ATOM     19  C   UNL     1      33.517 -14.850 -24.806  0.00  0.00    +0.112 C 
ATOM     20  H   UNL     1      33.504 -18.753 -25.819  0.00  0.00    +0.154 HD
ENDBRANCH   9  13
ENDBRANCH   3   9
BRANCH   1  21
ATOM     21  C   UNL     1      33.851 -23.306 -17.751  0.00  0.00    +0.117 C 
BRANCH  21  23
ATOM     22  N   UNL     1      32.884 -24.613 -14.334  0.00  0.00    -0.240 NA
ATOM     23  C   UNL     1      33.013 -23.671 -16.557  0.00  0.00    +0.017 C 
ATOM     24  C   UNL     1      31.644 -23.427 -16.540  0.00  0.00    +0.000 C 
ATOM     25  C   UNL     1      33.580 -24.260 -15.438  0.00  0.00    +0.096 C 
ATOM     26  C   UNL     1      30.895 -23.775 -15.422  0.00  0.00    +0.023 C 
ATOM     27  C   UNL     1      31.557 -24.360 -14.354  0.00  0.00    +0.153 C 
BRANCH  27  31
ATOM     28  F   UNL     1      31.372 -25.740 -12.409  0.00  0.00    -0.164 F 
ATOM     29  F   UNL     1      30.600 -23.719 -12.257  0.00  0.00    -0.164 F 
ATOM     30  F   UNL     1      29.532 -25.203 -13.435  0.00  0.00    -0.164 F 
ATOM     31  C   UNL     1      30.783 -24.746 -13.138  0.00  0.00    +0.435 C 
ENDBRANCH  27  31
ENDBRANCH  21  23
ENDBRANCH   1  21
TORSDOF 5
ENDMDL
MODEL 2
REMARK VINA RESULT:     -12.3      2.030      2.534
REMARK  Name = 25151352
REMARK  5 active torsions:
REMARK  status: ('A' for Active; 'I' for Inactive)
REMARK    1  A    between atoms: N_1  and  C_21
REMARK    2  A    between atoms: C_3  and  C_9
REMARK    3  A    between atoms: C_9  and  C_13
REMARK    4  A    between atoms: C_21  and  C_23
REMARK    5  A    between atoms: C_27  and  C_31
REMARK                            x       y       z     vdW  Elec       q    Type
REMARK                         _______ _______ _______ _____ _____    ______ ____
ROOT
ATOM      1  N   UNL     1      35.014 -22.124 -18.929  0.00  0.00    -0.314 N 
ATOM      2  N   UNL     1      36.375 -20.381 -19.819  0.00  0.00    -0.230 NA
ATOM      3  C   UNL     1      35.444 -18.863 -21.453  0.00  0.00    +0.002 C 
ATOM      4  C   UNL     1      34.226 -19.533 -21.392  0.00  0.00    +0.000 C 
ATOM      5  C   UNL     1      36.478 -19.323 -20.654  0.00  0.00    +0.096 C 
ATOM      6  C   UNL     1      35.177 -21.008 -19.787  0.00  0.00    +0.129 C 
ATOM      7  C   UNL     1      34.083 -20.627 -20.546  0.00  0.00    +0.034 C 
ATOM      8  H   UNL     1      35.778 -22.413 -18.381  0.00  0.00    +0.149 HD
ENDROOT
BRANCH   3   9
ATOM      9  C   UNL     1      35.632 -17.662 -22.368  0.00  0.00    +0.056 C 
BRANCH   9  13
ATOM     10 CL   UNL     1      33.239 -13.749 -26.140  0.00  0.00    -0.081 Cl
ATOM     11  N   UNL     1      34.189 -14.834 -20.553  0.00  0.00    -0.297 N 
ATOM     12  N   UNL     1      33.249 -13.312 -22.166  0.00  0.00    -0.228 NA
ATOM     13  C   UNL     1      34.979 -16.424 -21.893  0.00  0.00    -0.000 C 
ATOM     14  C   UNL     1      34.378 -15.423 -22.699  0.00  0.00    +0.030 C 
ATOM     15  C   UNL     1      33.894 -14.446 -21.834  0.00  0.00    +0.132 C 
ATOM     16  C   UNL     1      34.848 -16.035 -20.577  0.00  0.00    +0.059 C 
ATOM     17  C   UNL     1      34.181 -15.222 -24.075  0.00  0.00    +0.015 C 
ATOM     18  C   UNL     1      33.517 -14.064 -24.475  0.00  0.00    +0.077 C 
ATOM     19  C   UNL     1      33.088 -13.170 -23.503  0.00  0.00    +0.112 C 
ATOM     20  H   UNL     1      33.961 -14.328 -19.741  0.00  0.00    +0.154 HD
ENDBRANCH   9  13
ENDBRANCH   3   9
BRANCH   1  21
ATOM     21  C   UNL     1      33.788 -22.845 -18.829  0.00  0.00    +0.117 C 
BRANCH  21  23
ATOM     22  N   UNL     1      34.287 -23.747 -15.189  0.00  0.00    -0.240 NA
ATOM     23  C   UNL     1      33.481 -23.167 -17.393  0.00  0.00    +0.017 C 
ATOM     24  C   UNL     1      32.170 -23.188 -16.927  0.00  0.00    +0.000 C 
ATOM     25  C   UNL     1      34.494 -23.450 -16.491  0.00  0.00    +0.096 C 
ATOM     26  C   UNL     1      31.918 -23.490 -15.593  0.00  0.00    +0.023 C 
ATOM     27  C   UNL     1      33.001 -23.759 -14.773  0.00  0.00    +0.153 C 
BRANCH  27  31
ATOM     28  F   UNL     1      33.879 -23.950 -12.555  0.00  0.00    -0.164 F 
ATOM     29  F   UNL     1      31.818 -23.301 -12.744  0.00  0.00    -0.164 F 
ATOM     30  F   UNL     1      32.345 -25.371 -13.152  0.00  0.00    -0.164 F 
ATOM     31  C   UNL     1      32.766 -24.086 -13.336  0.00  0.00    +0.435 C 
ENDBRANCH  27  31
ENDBRANCH  21  23
ENDBRANCH   1  21
TORSDOF 5
ENDMDL
MODEL 3
REMARK VINA RESULT:     -12.3      1.173      1.451
REMARK  Name = 25151352
REMARK  5 active torsions:
REMARK  status: ('A' for Active; 'I' for Inactive)
REMARK    1  A    between atoms: N_1  and  C_21
REMARK    2  A    between atoms: C_3  and  C_9
REMARK    3  A    between atoms: C_9  and  C_13
REMARK    4  A    between atoms: C_21  and  C_23
REMARK    5  A    between atoms: C_27  and  C_31
REMARK                            x       y       z     vdW  Elec       q    Type
REMARK                         _______ _______ _______ _____ _____    ______ ____
ROOT
ATOM      1  N   UNL     1      34.949 -22.514 -18.715  0.00  0.00    -0.314 N 
ATOM      2  N   UNL     1      36.486 -20.859 -19.477  0.00  0.00    -0.230 NA
ATOM      3  C   UNL     1      35.708 -19.097 -20.937  0.00  0.00    +0.002 C 
ATOM      4  C   UNL     1      34.423 -19.628 -20.905  0.00  0.00    +0.000 C 
ATOM      5  C   UNL     1      36.695 -19.744 -20.212  0.00  0.00    +0.096 C 
ATOM      6  C   UNL     1      35.225 -21.346 -19.471  0.00  0.00    +0.129 C 
ATOM      7  C   UNL     1      34.168 -20.774 -20.161  0.00  0.00    +0.034 C 
ATOM      8  H   UNL     1      35.683 -22.938 -18.217  0.00  0.00    +0.149 HD
ENDROOT
BRANCH   3   9
ATOM      9  C   UNL     1      36.017 -17.843 -21.742  0.00  0.00    +0.056 C 
BRANCH   9  13
ATOM     10 CL   UNL     1      34.059 -12.506 -23.461  0.00  0.00    -0.081 Cl
ATOM     11  N   UNL     1      34.027 -18.120 -24.797  0.00  0.00    -0.297 N 
ATOM     12  N   UNL     1      33.283 -15.911 -25.408  0.00  0.00    -0.228 NA
ATOM     13  C   UNL     1      35.187 -17.673 -22.952  0.00  0.00    -0.000 C 
ATOM     14  C   UNL     1      34.665 -16.453 -23.455  0.00  0.00    +0.030 C 
ATOM     15  C   UNL     1      33.948 -16.766 -24.606  0.00  0.00    +0.132 C 
ATOM     16  C   UNL     1      34.778 -18.682 -23.798  0.00  0.00    +0.059 C 
ATOM     17  C   UNL     1      34.715 -15.103 -23.071  0.00  0.00    +0.015 C 
ATOM     18  C   UNL     1      34.044 -14.176 -23.867  0.00  0.00    +0.077 C 
ATOM     19  C   UNL     1      33.364 -14.626 -24.990  0.00  0.00    +0.112 C 
ATOM     20  H   UNL     1      33.609 -18.614 -25.539  0.00  0.00    +0.154 HD
ENDBRANCH   9  13
ENDBRANCH   3   9
BRANCH   1  21
ATOM     21  C   UNL     1      33.649 -23.098 -18.649  0.00  0.00    +0.117 C 
BRANCH  21  23
ATOM     22  N   UNL     1      33.896 -24.078 -15.003  0.00  0.00    -0.240 NA
ATOM     23  C   UNL     1      33.259 -23.354 -17.220  0.00  0.00    +0.017 C 
ATOM     24  C   UNL     1      31.960 -23.123 -16.779  0.00  0.00    +0.000 C 
ATOM     25  C   UNL     1      34.181 -23.827 -16.300  0.00  0.00    +0.096 C 
ATOM     26  C   UNL     1      31.628 -23.370 -15.452  0.00  0.00    +0.023 C 
ATOM     27  C   UNL     1      32.623 -23.841 -14.611  0.00  0.00    +0.153 C 
BRANCH  27  31
ATOM     28  F   UNL     1      33.283 -23.723 -12.315  0.00  0.00    -0.164 F 
ATOM     29  F   UNL     1      31.170 -23.490 -12.744  0.00  0.00    -0.164 F 
ATOM     30  F   UNL     1      32.105 -25.444 -12.932  0.00  0.00    -0.164 F 
ATOM     31  C   UNL     1      32.302 -24.116 -13.180  0.00  0.00    +0.435 C 
ENDBRANCH  27  31
ENDBRANCH  21  23
ENDBRANCH   1  21
TORSDOF 5
ENDMDL
MODEL 4
REMARK VINA RESULT:     -12.2      3.860      6.341
REMARK  Name = 25151352
REMARK  5 active torsions:
REMARK  status: ('A' for Active; 'I' for Inactive)
REMARK    1  A    between atoms: N_1  and  C_21
REMARK    2  A    between atoms: C_3  and  C_9
REMARK    3  A    between atoms: C_9  and  C_13
REMARK    4  A    between atoms: C_21  and  C_23
REMARK    5  A    between atoms: C_27  and  C_31
REMARK                            x       y       z     vdW  Elec       q    Type
REMARK                         _______ _______ _______ _____ _____    ______ ____
ROOT
ATOM      1  N   UNL     1      35.619 -18.442 -22.856  0.00  0.00    -0.314 N 
ATOM      2  N   UNL     1      34.370 -17.044 -24.328  0.00  0.00    -0.230 NA
ATOM      3  C   UNL     1      33.947 -14.746 -23.710  0.00  0.00    +0.002 C 
ATOM      4  C   UNL     1      34.645 -14.929 -22.522  0.00  0.00    +0.000 C 
ATOM      5  C   UNL     1      33.838 -15.825 -24.572  0.00  0.00    +0.096 C 
ATOM      6  C   UNL     1      35.041 -17.184 -23.162  0.00  0.00    +0.129 C 
ATOM      7  C   UNL     1      35.205 -16.168 -22.235  0.00  0.00    +0.034 C 
ATOM      8  H   UNL     1      35.514 -19.178 -23.500  0.00  0.00    +0.149 HD
ENDROOT
BRANCH   3   9
ATOM      9  C   UNL     1      33.323 -13.400 -24.053  0.00  0.00    +0.056 C 
BRANCH   9  13
ATOM     10 CL   UNL     1      33.320  -7.497 -23.398  0.00  0.00    -0.081 Cl
ATOM     11  N   UNL     1      31.433 -12.431 -21.076  0.00  0.00    -0.297 N 
ATOM     12  N   UNL     1      31.493 -10.029 -20.901  0.00  0.00    -0.228 NA
ATOM     13  C   UNL     1      32.628 -12.744 -22.926  0.00  0.00    -0.000 C 
ATOM     14  C   UNL     1      32.562 -11.350 -22.670  0.00  0.00    +0.030 C 
ATOM     15  C   UNL     1      31.809 -11.188 -21.511  0.00  0.00    +0.132 C 
ATOM     16  C   UNL     1      31.925 -13.385 -21.929  0.00  0.00    +0.059 C 
ATOM     17  C   UNL     1      33.054 -10.189 -23.289  0.00  0.00    +0.015 C 
ATOM     18  C   UNL     1      32.754  -8.961 -22.700  0.00  0.00    +0.077 C 
ATOM     19  C   UNL     1      31.993  -8.945 -21.539  0.00  0.00    +0.112 C 
ATOM     20  H   UNL     1      30.892 -12.612 -20.274  0.00  0.00    +0.154 HD
ENDBRANCH   9  13
ENDBRANCH   3   9
BRANCH   1  21
ATOM     21  C   UNL     1      36.344 -18.682 -21.652  0.00  0.00    +0.117 C 
BRANCH  21  23
ATOM     22  N   UNL     1      35.818 -21.535 -19.223  0.00  0.00    -0.240 NA
ATOM     23  C   UNL     1      35.655 -19.728 -20.821  0.00  0.00    +0.017 C 
ATOM     24  C   UNL     1      34.272 -19.879 -20.860  0.00  0.00    +0.000 C 
ATOM     25  C   UNL     1      36.375 -20.574 -19.994  0.00  0.00    +0.096 C 
ATOM     26  C   UNL     1      33.663 -20.856 -20.081  0.00  0.00    +0.023 C 
ATOM     27  C   UNL     1      34.473 -21.651 -19.287  0.00  0.00    +0.153 C 
BRANCH  27  31
ATOM     28  F   UNL     1      33.703 -23.906 -19.078  0.00  0.00    -0.164 F 
ATOM     29  F   UNL     1      34.567 -22.995 -17.309  0.00  0.00    -0.164 F 
ATOM     30  F   UNL     1      32.604 -22.368 -18.003  0.00  0.00    -0.164 F 
ATOM     31  C   UNL     1      33.852 -22.709 -18.437  0.00  0.00    +0.435 C 
ENDBRANCH  27  31
ENDBRANCH  21  23
ENDBRANCH   1  21
TORSDOF 5
ENDMDL
MODEL 5
REMARK VINA RESULT:     -12.2      3.976      6.302
REMARK  Name = 25151352
REMARK  5 active torsions:
REMARK  status: ('A' for Active; 'I' for Inactive)
REMARK    1  A    between atoms: N_1  and  C_21
REMARK    2  A    between atoms: C_3  and  C_9
REMARK    3  A    between atoms: C_9  and  C_13
REMARK    4  A    between atoms: C_21  and  C_23
REMARK    5  A    between atoms: C_27  and  C_31
REMARK                            x       y       z     vdW  Elec       q    Type
REMARK                         _______ _______ _______ _____ _____    ______ ____
ROOT
ATOM      1  N   UNL     1      35.230 -17.747 -20.883  0.00  0.00    -0.314 N 
ATOM      2  N   UNL     1      34.789 -15.406 -20.939  0.00  0.00    -0.230 NA
ATOM      3  C   UNL     1      34.290 -14.341 -23.052  0.00  0.00    +0.002 C 
ATOM      4  C   UNL     1      34.422 -15.561 -23.706  0.00  0.00    +0.000 C 
ATOM      5  C   UNL     1      34.481 -14.317 -21.680  0.00  0.00    +0.096 C 
ATOM      6  C   UNL     1      34.910 -16.573 -21.610  0.00  0.00    +0.129 C 
ATOM      7  C   UNL     1      34.738 -16.703 -22.979  0.00  0.00    +0.034 C 
ATOM      8  H   UNL     1      35.357 -17.679 -19.910  0.00  0.00    +0.149 HD
ENDROOT
BRANCH   3   9
ATOM      9  C   UNL     1      33.943 -13.074 -23.819  0.00  0.00    +0.056 C 
BRANCH   9  13
ATOM     10 CL   UNL     1      35.068  -7.254 -23.450  0.00  0.00    -0.081 Cl
ATOM     11  N   UNL     1      31.329 -11.371 -21.912  0.00  0.00    -0.297 N 
ATOM     12  N   UNL     1      31.876  -9.027 -21.821  0.00  0.00    -0.228 NA
ATOM     13  C   UNL     1      33.039 -12.152 -23.100  0.00  0.00    -0.000 C 
ATOM     14  C   UNL     1      33.207 -10.751 -22.947  0.00  0.00    +0.030 C 
ATOM     15  C   UNL     1      32.124 -10.294 -22.203  0.00  0.00    +0.132 C 
ATOM     16  C   UNL     1      31.875 -12.506 -22.452  0.00  0.00    +0.059 C 
ATOM     17  C   UNL     1      34.158  -9.801 -23.356  0.00  0.00    +0.015 C 
ATOM     18  C   UNL     1      33.949  -8.473 -22.988  0.00  0.00    +0.077 C 
ATOM     19  C   UNL     1      32.823  -8.156 -22.240  0.00  0.00    +0.112 C 
ATOM     20  H   UNL     1      30.493 -11.335 -21.394  0.00  0.00    +0.154 HD
ENDBRANCH   9  13
ENDBRANCH   3   9
BRANCH   1  21
ATOM     21  C   UNL     1      35.377 -19.022 -21.506  0.00  0.00    +0.117 C 
BRANCH  21  23
ATOM     22  N   UNL     1      33.146 -21.372 -19.553  0.00  0.00    -0.240 NA
ATOM     23  C   UNL     1      34.944 -20.117 -20.572  0.00  0.00    +0.017 C 
ATOM     24  C   UNL     1      35.879 -20.877 -19.876  0.00  0.00    +0.000 C 
ATOM     25  C   UNL     1      33.603 -20.403 -20.377  0.00  0.00    +0.096 C 
ATOM     26  C   UNL     1      35.448 -21.884 -19.018  0.00  0.00    +0.023 C 
ATOM     27  C   UNL     1      34.083 -22.090 -18.894  0.00  0.00    +0.153 C 
BRANCH  27  31
ATOM     28  F   UNL     1      32.303 -22.966 -17.557  0.00  0.00    -0.164 F 
ATOM     29  F   UNL     1      33.589 -24.405 -18.548  0.00  0.00    -0.164 F 
ATOM     30  F   UNL     1      34.335 -23.275 -16.847  0.00  0.00    -0.164 F 
ATOM     31  C   UNL     1      33.586 -23.162 -17.982  0.00  0.00    +0.435 C 
ENDBRANCH  27  31
ENDBRANCH  21  23
ENDBRANCH   1  21
TORSDOF 5
ENDMDL
MODEL 6
REMARK VINA RESULT:     -11.9      3.231      3.922
REMARK  Name = 25151352
REMARK  5 active torsions:
REMARK  status: ('A' for Active; 'I' for Inactive)
REMARK    1  A    between atoms: N_1  and  C_21
REMARK    2  A    between atoms: C_3  and  C_9
REMARK    3  A    between atoms: C_9  and  C_13
REMARK    4  A    between atoms: C_21  and  C_23
REMARK    5  A    between atoms: C_27  and  C_31
REMARK                            x       y       z     vdW  Elec       q    Type
REMARK                         _______ _______ _______ _____ _____    ______ ____
ROOT
ATOM      1  N   UNL     1      36.450 -21.576 -18.459  0.00  0.00    -0.314 N 
ATOM      2  N   UNL     1      37.159 -19.850 -19.941  0.00  0.00    -0.230 NA
ATOM      3  C   UNL     1      35.583 -18.916 -21.518  0.00  0.00    +0.002 C 
ATOM      4  C   UNL     1      34.591 -19.765 -21.041  0.00  0.00    +0.000 C 
ATOM      5  C   UNL     1      36.840 -18.996 -20.940  0.00  0.00    +0.096 C 
ATOM      6  C   UNL     1      36.170 -20.661 -19.505  0.00  0.00    +0.129 C 
ATOM      7  C   UNL     1      34.882 -20.658 -20.016  0.00  0.00    +0.034 C 
ATOM      8  H   UNL     1      37.358 -21.597 -18.081  0.00  0.00    +0.149 HD
ENDROOT
BRANCH   3   9
ATOM      9  C   UNL     1      35.295 -17.927 -22.638  0.00  0.00    +0.056 C 
BRANCH   9  13
ATOM     10 CL   UNL     1      33.226 -13.833 -26.411  0.00  0.00    -0.081 Cl
ATOM     11  N   UNL     1      34.440 -14.846 -20.861  0.00  0.00    -0.297 N 
ATOM     12  N   UNL     1      33.615 -13.258 -22.473  0.00  0.00    -0.228 NA
ATOM     13  C   UNL     1      34.875 -16.587 -22.177  0.00  0.00    -0.000 C 
ATOM     14  C   UNL     1      34.369 -15.535 -22.984  0.00  0.00    +0.030 C 
ATOM     15  C   UNL     1      34.107 -14.465 -22.134  0.00  0.00    +0.132 C 
ATOM     16  C   UNL     1      34.909 -16.135 -20.875  0.00  0.00    +0.059 C 
ATOM     17  C   UNL     1      34.096 -15.357 -24.351  0.00  0.00    +0.015 C 
ATOM     18  C   UNL     1      33.585 -14.126 -24.756  0.00  0.00    +0.077 C 
ATOM     19  C   UNL     1      33.372 -13.143 -23.800  0.00  0.00    +0.112 C 
ATOM     20  H   UNL     1      34.356 -14.283 -20.059  0.00  0.00    +0.154 HD
ENDBRANCH   9  13
ENDBRANCH   3   9
BRANCH   1  21
ATOM     21  C   UNL     1      35.469 -22.469 -17.935  0.00  0.00    +0.117 C 
BRANCH  21  23
ATOM     22  N   UNL     1      37.480 -23.081 -14.788  0.00  0.00    -0.240 NA
ATOM     23  C   UNL     1      35.810 -22.855 -16.522  0.00  0.00    +0.017 C 
ATOM     24  C   UNL     1      34.832 -23.327 -15.652  0.00  0.00    +0.000 C 
ATOM     25  C   UNL     1      37.106 -22.751 -16.045  0.00  0.00    +0.096 C 
ATOM     26  C   UNL     1      35.178 -23.676 -14.351  0.00  0.00    +0.023 C 
ATOM     27  C   UNL     1      36.503 -23.535 -13.972  0.00  0.00    +0.153 C 
BRANCH  27  31
ATOM     28  F   UNL     1      36.215 -24.960 -12.071  0.00  0.00    -0.164 F 
ATOM     29  F   UNL     1      38.224 -24.248 -12.471  0.00  0.00    -0.164 F 
ATOM     30  F   UNL     1      36.722 -22.879 -11.696  0.00  0.00    -0.164 F 
ATOM     31  C   UNL     1      36.908 -23.901 -12.583  0.00  0.00    +0.435 C 
ENDBRANCH  27  31
ENDBRANCH  21  23
ENDBRANCH   1  21
TORSDOF 5
ENDMDL
MODEL 7
REMARK VINA RESULT:     -11.3      7.503     12.061
REMARK  Name = 25151352
REMARK  5 active torsions:
REMARK  status: ('A' for Active; 'I' for Inactive)
REMARK    1  A    between atoms: N_1  and  C_21
REMARK    2  A    between atoms: C_3  and  C_9
REMARK    3  A    between atoms: C_9  and  C_13
REMARK    4  A    between atoms: C_21  and  C_23
REMARK    5  A    between atoms: C_27  and  C_31
REMARK                            x       y       z     vdW  Elec       q    Type
REMARK                         _______ _______ _______ _____ _____    ______ ____
ROOT
ATOM      1  N   UNL     1      33.917 -12.818 -22.533  0.00  0.00    -0.314 N 
ATOM      2  N   UNL     1      34.670 -14.883 -21.613  0.00  0.00    -0.230 NA
ATOM      3  C   UNL     1      34.716 -16.858 -23.005  0.00  0.00    +0.002 C 
ATOM      4  C   UNL     1      34.226 -16.122 -24.078  0.00  0.00    +0.000 C 
ATOM      5  C   UNL     1      34.919 -16.198 -21.804  0.00  0.00    +0.096 C 
ATOM      6  C   UNL     1      34.194 -14.200 -22.678  0.00  0.00    +0.129 C 
ATOM      7  C   UNL     1      33.958 -14.768 -23.920  0.00  0.00    +0.034 C 
ATOM      8  H   UNL     1      34.076 -12.393 -21.660  0.00  0.00    +0.149 HD
ENDROOT
BRANCH   3   9
ATOM      9  C   UNL     1      35.021 -18.342 -23.147  0.00  0.00    +0.056 C 
BRANCH   9  13
ATOM     10 CL   UNL     1      32.928 -22.120 -19.069  0.00  0.00    -0.081 Cl
ATOM     11  N   UNL     1      37.661 -19.317 -20.812  0.00  0.00    -0.297 N 
ATOM     12  N   UNL     1      36.714 -20.842 -19.206  0.00  0.00    -0.228 NA
ATOM     13  C   UNL     1      35.884 -18.893 -22.082  0.00  0.00    -0.000 C 
ATOM     14  C   UNL     1      35.495 -19.797 -21.060  0.00  0.00    +0.030 C 
ATOM     15  C   UNL     1      36.625 -20.042 -20.285  0.00  0.00    +0.132 C 
ATOM     16  C   UNL     1      37.223 -18.615 -21.904  0.00  0.00    +0.059 C 
ATOM     17  C   UNL     1      34.305 -20.448 -20.692  0.00  0.00    +0.015 C 
ATOM     18  C   UNL     1      34.342 -21.289 -19.581  0.00  0.00    +0.077 C 
ATOM     19  C   UNL     1      35.540 -21.442 -18.897  0.00  0.00    +0.112 C 
ATOM     20  H   UNL     1      38.580 -19.303 -20.460  0.00  0.00    +0.154 HD
ENDBRANCH   9  13
ENDBRANCH   3   9
BRANCH   1  21
ATOM     21  C   UNL     1      33.414 -12.018 -23.602  0.00  0.00    +0.117 C 
BRANCH  21  23
ATOM     22  N   UNL     1      31.365  -9.276 -21.989  0.00  0.00    -0.240 NA
ATOM     23  C   UNL     1      33.007 -10.661 -23.098  0.00  0.00    +0.017 C 
ATOM     24  C   UNL     1      33.842  -9.559 -23.254  0.00  0.00    +0.000 C 
ATOM     25  C   UNL     1      31.791 -10.468 -22.465  0.00  0.00    +0.096 C 
ATOM     26  C   UNL     1      33.438  -8.316 -22.778  0.00  0.00    +0.023 C 
ATOM     27  C   UNL     1      32.203  -8.229 -22.159  0.00  0.00    +0.153 C 
BRANCH  27  31
ATOM     28  F   UNL     1      30.530  -6.519 -22.135  0.00  0.00    -0.164 F 
ATOM     29  F   UNL     1      31.590  -6.882 -20.278  0.00  0.00    -0.164 F 
ATOM     30  F   UNL     1      32.603  -5.895 -21.931  0.00  0.00    -0.164 F 
ATOM     31  C   UNL     1      31.739  -6.910 -21.636  0.00  0.00    +0.435 C 
ENDBRANCH  27  31
ENDBRANCH  21  23
ENDBRANCH   1  21
TORSDOF 5
ENDMDL
MODEL 8
REMARK VINA RESULT:     -11.0      7.286     11.883
REMARK  Name = 25151352
REMARK  5 active torsions:
REMARK  status: ('A' for Active; 'I' for Inactive)
REMARK    1  A    between atoms: N_1  and  C_21
REMARK    2  A    between atoms: C_3  and  C_9
REMARK    3  A    between atoms: C_9  and  C_13
REMARK    4  A    between atoms: C_21  and  C_23
REMARK    5  A    between atoms: C_27  and  C_31
REMARK                            x       y       z     vdW  Elec       q    Type
REMARK                         _______ _______ _______ _____ _____    ______ ____
ROOT
ATOM      1  N   UNL     1      34.092 -13.691 -22.123  0.00  0.00    -0.314 N 
ATOM      2  N   UNL     1      34.653 -15.573 -20.772  0.00  0.00    -0.230 NA
ATOM      3  C   UNL     1      35.217 -17.671 -21.831  0.00  0.00    +0.002 C 
ATOM      4  C   UNL     1      35.026 -17.098 -23.084  0.00  0.00    +0.000 C 
ATOM      5  C   UNL     1      35.019 -16.873 -20.716  0.00  0.00    +0.096 C 
ATOM      6  C   UNL     1      34.476 -15.051 -22.006  0.00  0.00    +0.129 C 
ATOM      7  C   UNL     1      34.648 -15.764 -23.182  0.00  0.00    +0.034 C 
ATOM      8  H   UNL     1      33.963 -13.165 -21.302  0.00  0.00    +0.149 HD
ENDROOT
BRANCH   3   9
ATOM      9  C   UNL     1      35.632 -19.128 -21.690  0.00  0.00    +0.056 C 
BRANCH   9  13
ATOM     10 CL   UNL     1      37.241 -22.532 -17.097  0.00  0.00    -0.081 Cl
ATOM     11  N   UNL     1      32.756 -20.963 -20.372  0.00  0.00    -0.297 N 
ATOM     12  N   UNL     1      33.512 -22.307 -18.521  0.00  0.00    -0.228 NA
ATOM     13  C   UNL     1      34.657 -19.975 -20.972  0.00  0.00    -0.000 C 
ATOM     14  C   UNL     1      34.927 -20.824 -19.867  0.00  0.00    +0.030 C 
ATOM     15  C   UNL     1      33.722 -21.425 -19.516  0.00  0.00    +0.132 C 
ATOM     16  C   UNL     1      33.313 -20.081 -21.261  0.00  0.00    +0.059 C 
ATOM     17  C   UNL     1      36.062 -21.161 -19.111  0.00  0.00    +0.015 C 
ATOM     18  C   UNL     1      35.900 -22.070 -18.067  0.00  0.00    +0.077 C 
ATOM     19  C   UNL     1      34.638 -22.595 -17.827  0.00  0.00    +0.112 C 
ATOM     20  H   UNL     1      31.808 -21.223 -20.351  0.00  0.00    +0.154 HD
ENDBRANCH   9  13
ENDBRANCH   3   9
BRANCH   1  21
ATOM     21  C   UNL     1      33.883 -13.057 -23.383  0.00  0.00    +0.117 C 
BRANCH  21  23
ATOM     22  N   UNL     1      31.725 -10.090 -22.458  0.00  0.00    -0.240 NA
ATOM     23  C   UNL     1      33.435 -11.635 -23.189  0.00  0.00    +0.017 C 
ATOM     24  C   UNL     1      34.258 -10.569 -23.538  0.00  0.00    +0.000 C 
ATOM     25  C   UNL     1      32.189 -11.344 -22.658  0.00  0.00    +0.096 C 
ATOM     26  C   UNL     1      33.816  -9.265 -23.347  0.00  0.00    +0.023 C 
ATOM     27  C   UNL     1      32.553  -9.081 -22.808  0.00  0.00    +0.153 C 
BRANCH  27  31
ATOM     28  F   UNL     1      30.692  -7.626 -22.429  0.00  0.00    -0.164 F 
ATOM     29  F   UNL     1      32.567  -7.090 -21.480  0.00  0.00    -0.164 F 
ATOM     30  F   UNL     1      32.335  -6.860 -23.630  0.00  0.00    -0.164 F 
ATOM     31  C   UNL     1      32.046  -7.694 -22.589  0.00  0.00    +0.435 C 
ENDBRANCH  27  31
ENDBRANCH  21  23
ENDBRANCH   1  21
TORSDOF 5
ENDMDL
MODEL 9
REMARK VINA RESULT:     -11.0      7.532     11.458
REMARK  Name = 25151352
REMARK  5 active torsions:
REMARK  status: ('A' for Active; 'I' for Inactive)
REMARK    1  A    between atoms: N_1  and  C_21
REMARK    2  A    between atoms: C_3  and  C_9
REMARK    3  A    between atoms: C_9  and  C_13
REMARK    4  A    between atoms: C_21  and  C_23
REMARK    5  A    between atoms: C_27  and  C_31
REMARK                            x       y       z     vdW  Elec       q    Type
REMARK                         _______ _______ _______ _____ _____    ______ ____
ROOT
ATOM      1  N   UNL     1      32.681 -12.892 -23.278  0.00  0.00    -0.314 N 
ATOM      2  N   UNL     1      31.940 -11.077 -21.922  0.00  0.00    -0.230 NA
ATOM      3  C   UNL     1      32.996  -8.915 -22.149  0.00  0.00    +0.002 C 
ATOM      4  C   UNL     1      33.839  -9.422 -23.132  0.00  0.00    +0.000 C 
ATOM      5  C   UNL     1      32.072  -9.776 -21.580  0.00  0.00    +0.096 C 
ATOM      6  C   UNL     1      32.776 -11.534 -22.880  0.00  0.00    +0.129 C 
ATOM      7  C   UNL     1      33.733 -10.755 -23.511  0.00  0.00    +0.034 C 
ATOM      8  H   UNL     1      32.009 -13.464 -22.844  0.00  0.00    +0.149 HD
ENDROOT
BRANCH   3   9
ATOM      9  C   UNL     1      33.086  -7.459 -21.714  0.00  0.00    +0.056 C 
BRANCH   9  13
ATOM     10 CL   UNL     1      36.148  -5.130 -26.239  0.00  0.00    -0.081 Cl
ATOM     11  N   UNL     1      30.990  -5.173 -23.652  0.00  0.00    -0.297 N 
ATOM     12  N   UNL     1      32.319  -4.286 -25.455  0.00  0.00    -0.228 NA
ATOM     13  C   UNL     1      32.471  -6.502 -22.657  0.00  0.00    -0.000 C 
ATOM     14  C   UNL     1      33.104  -5.884 -23.767  0.00  0.00    +0.030 C 
ATOM     15  C   UNL     1      32.153  -5.062 -24.367  0.00  0.00    +0.132 C 
ATOM     16  C   UNL     1      31.171  -6.045 -22.610  0.00  0.00    +0.059 C 
ATOM     17  C   UNL     1      34.383  -5.921 -24.346  0.00  0.00    +0.015 C 
ATOM     18  C   UNL     1      34.609  -5.136 -25.475  0.00  0.00    +0.077 C 
ATOM     19  C   UNL     1      33.569  -4.361 -25.969  0.00  0.00    +0.112 C 
ATOM     20  H   UNL     1      30.152  -4.700 -23.855  0.00  0.00    +0.154 HD
ENDBRANCH   9  13
ENDBRANCH   3   9
BRANCH   1  21
ATOM     21  C   UNL     1      33.520 -13.460 -24.281  0.00  0.00    +0.117 C 
BRANCH  21  23
ATOM     22  N   UNL     1      34.944 -16.222 -22.122  0.00  0.00    -0.240 NA
ATOM     23  C   UNL     1      34.009 -14.816 -23.852  0.00  0.00    +0.017 C 
ATOM     24  C   UNL     1      33.991 -15.895 -24.729  0.00  0.00    +0.000 C 
ATOM     25  C   UNL     1      34.490 -15.030 -22.571  0.00  0.00    +0.096 C 
ATOM     26  C   UNL     1      34.450 -17.137 -24.304  0.00  0.00    +0.023 C 
ATOM     27  C   UNL     1      34.911 -17.247 -23.003  0.00  0.00    +0.153 C 
BRANCH  27  31
ATOM     28  F   UNL     1      34.980 -19.625 -23.260  0.00  0.00    -0.164 F 
ATOM     29  F   UNL     1      36.773 -18.666 -22.504  0.00  0.00    -0.164 F 
ATOM     30  F   UNL     1      35.015 -18.834 -21.234  0.00  0.00    -0.164 F 
ATOM     31  C   UNL     1      35.411 -18.566 -22.513  0.00  0.00    +0.435 C 
ENDBRANCH  27  31
ENDBRANCH  21  23
ENDBRANCH   1  21
TORSDOF 5
ENDMDL
