MODEL 1
REMARK VINA RESULT:     -11.9      0.000      0.000
REMARK  Name = 24941243
REMARK  5 active torsions:
REMARK  status: ('A' for Active; 'I' for Inactive)
REMARK    1  A    between atoms: N_1  and  C_14
REMARK    2  A    between atoms: N_2  and  C_22
REMARK    3  A    between atoms: C_25  and  O_28
REMARK    4  A    between atoms: C_26  and  O_30
REMARK    5  A    between atoms: C_27  and  O_32
REMARK                            x       y       z     vdW  Elec       q    Type
REMARK                         _______ _______ _______ _____ _____    ______ ____
ROOT
ATOM      1  N   UNL     1      36.222 -18.947 -21.506  0.00  0.00    -0.260 N 
ATOM      2  N   UNL     1      36.695 -21.730 -17.712  0.00  0.00    -0.247 N 
ATOM      3  N   UNL     1      36.482 -20.344 -19.593  0.00  0.00    -0.322 NA
ATOM      4  N   UNL     1      34.590 -21.568 -18.737  0.00  0.00    -0.170 NA
ATOM      5  C   UNL     1      35.676 -19.844 -20.553  0.00  0.00    +0.201 C 
ATOM      6  C   UNL     1      37.681 -18.909 -21.653  0.00  0.00    +0.120 C 
ATOM      7  C   UNL     1      34.336 -20.154 -20.669  0.00  0.00    +0.070 C 
ATOM      8  C   UNL     1      35.882 -21.187 -18.732  0.00  0.00    +0.150 C 
ATOM      9  C   UNL     1      33.843 -21.030 -19.724  0.00  0.00    +0.116 C 
ATOM     10  H   UNL     1      37.631 -21.424 -17.747  0.00  0.00    +0.165 HD
ENDROOT
BRANCH   1  14
ATOM     11  N   UNL     1      33.304 -15.644 -25.240  0.00  0.00    -0.280 N 
ATOM     12  N   UNL     1      33.791 -16.900 -25.242  0.00  0.00    -0.173 NA
ATOM     13  C   UNL     1      34.223 -15.814 -23.295  0.00  0.00    +0.032 A 
ATOM     14  C   UNL     1      35.525 -17.901 -22.168  0.00  0.00    +0.055 C 
ATOM     15  C   UNL     1      34.373 -17.042 -24.038  0.00  0.00    +0.103 A 
ATOM     16  C   UNL     1      33.536 -14.944 -24.092  0.00  0.00    +0.053 A 
ATOM     17  C   UNL     1      35.045 -18.142 -23.474  0.00  0.00    +0.036 C 
ATOM     18  C   UNL     1      34.681 -15.547 -22.010  0.00  0.00    +0.004 C 
ATOM     19  C   UNL     1      35.349 -16.664 -21.472  0.00  0.00    +0.015 C 
ATOM     20  C   UNL     1      33.076 -13.556 -23.919  0.00  0.00    +0.051 C 
ATOM     21  H   UNL     1      32.820 -15.261 -26.007  0.00  0.00    +0.189 HD
ENDBRANCH   1  14
BRANCH   2  22
ATOM     22  C   UNL     1      36.431 -22.623 -16.658  0.00  0.00    +0.064 C 
ATOM     23  C   UNL     1      37.467 -23.046 -15.826  0.00  0.00    +0.055 C 
ATOM     24  C   UNL     1      35.131 -23.084 -16.442  0.00  0.00    +0.055 C 
ATOM     25  C   UNL     1      34.869 -23.966 -15.395  0.00  0.00    +0.177 C 
ATOM     26  C   UNL     1      37.204 -23.929 -14.778  0.00  0.00    +0.177 C 
ATOM     27  C   UNL     1      35.905 -24.389 -14.563  0.00  0.00    +0.206 C 
BRANCH  25  28
ATOM     28  O   UNL     1      33.596 -24.409 -15.195  0.00  0.00    -0.468 OA
ATOM     29  C   UNL     1      32.540 -23.580 -15.676  0.00  0.00    +0.253 C 
ENDBRANCH  25  28
BRANCH  26  30
ATOM     30  O   UNL     1      38.226 -24.334 -13.973  0.00  0.00    -0.468 OA
ATOM     31  C   UNL     1      39.079 -25.360 -14.475  0.00  0.00    +0.253 C 
ENDBRANCH  26  30
BRANCH  27  32
ATOM     32  O   UNL     1      35.649 -25.253 -13.540  0.00  0.00    -0.465 OA
ATOM     33  C   UNL     1      35.276 -24.682 -12.288  0.00  0.00    +0.253 C 
ENDBRANCH  27  32
ENDBRANCH   2  22
TORSDOF 5
ENDMDL
MODEL 2
REMARK VINA RESULT:     -11.8      0.126      2.302
REMARK  Name = 24941243
REMARK  5 active torsions:
REMARK  status: ('A' for Active; 'I' for Inactive)
REMARK    1  A    between atoms: N_1  and  C_14
REMARK    2  A    between atoms: N_2  and  C_22
REMARK    3  A    between atoms: C_25  and  O_28
REMARK    4  A    between atoms: C_26  and  O_30
REMARK    5  A    between atoms: C_27  and  O_32
REMARK                            x       y       z     vdW  Elec       q    Type
REMARK                         _______ _______ _______ _____ _____    ______ ____
ROOT
ATOM      1  N   UNL     1      36.308 -18.945 -21.424  0.00  0.00    -0.260 N 
ATOM      2  N   UNL     1      36.781 -21.728 -17.630  0.00  0.00    -0.247 N 
ATOM      3  N   UNL     1      36.567 -20.341 -19.510  0.00  0.00    -0.322 NA
ATOM      4  N   UNL     1      34.696 -21.630 -18.704  0.00  0.00    -0.170 NA
ATOM      5  C   UNL     1      35.769 -19.864 -20.488  0.00  0.00    +0.201 C 
ATOM      6  C   UNL     1      37.768 -18.859 -21.536  0.00  0.00    +0.120 C 
ATOM      7  C   UNL     1      34.443 -20.217 -20.637  0.00  0.00    +0.070 C 
ATOM      8  C   UNL     1      35.975 -21.207 -18.666  0.00  0.00    +0.150 C 
ATOM      9  C   UNL     1      33.956 -21.112 -19.707  0.00  0.00    +0.116 C 
ATOM     10  H   UNL     1      37.706 -21.392 -17.641  0.00  0.00    +0.165 HD
ENDROOT
BRANCH   1  14
ATOM     11  N   UNL     1      33.370 -15.724 -25.214  0.00  0.00    -0.280 N 
ATOM     12  N   UNL     1      33.896 -16.965 -25.208  0.00  0.00    -0.173 NA
ATOM     13  C   UNL     1      34.251 -15.871 -23.249  0.00  0.00    +0.032 A 
ATOM     14  C   UNL     1      35.593 -17.920 -22.099  0.00  0.00    +0.055 C 
ATOM     15  C   UNL     1      34.456 -17.092 -23.992  0.00  0.00    +0.103 A 
ATOM     16  C   UNL     1      33.556 -15.020 -24.060  0.00  0.00    +0.053 A 
ATOM     17  C   UNL     1      35.150 -18.172 -23.416  0.00  0.00    +0.036 C 
ATOM     18  C   UNL     1      34.673 -15.593 -21.955  0.00  0.00    +0.004 C 
ATOM     19  C   UNL     1      35.364 -16.690 -21.404  0.00  0.00    +0.015 C 
ATOM     20  C   UNL     1      33.049 -13.648 -23.894  0.00  0.00    +0.051 C 
ATOM     21  H   UNL     1      32.891 -15.355 -25.990  0.00  0.00    +0.189 HD
ENDBRANCH   1  14
BRANCH   2  22
ATOM     22  C   UNL     1      36.521 -22.634 -16.585  0.00  0.00    +0.064 C 
ATOM     23  C   UNL     1      35.217 -23.068 -16.347  0.00  0.00    +0.055 C 
ATOM     24  C   UNL     1      37.567 -23.100 -15.788  0.00  0.00    +0.055 C 
ATOM     25  C   UNL     1      37.309 -24.000 -14.755  0.00  0.00    +0.177 C 
ATOM     26  C   UNL     1      34.959 -23.968 -15.313  0.00  0.00    +0.177 C 
ATOM     27  C   UNL     1      36.005 -24.434 -14.517  0.00  0.00    +0.206 C 
BRANCH  25  28
ATOM     28  O   UNL     1      38.340 -24.447 -13.984  0.00  0.00    -0.468 OA
ATOM     29  C   UNL     1      39.144 -25.494 -14.523  0.00  0.00    +0.253 C 
ENDBRANCH  25  28
BRANCH  26  30
ATOM     30  O   UNL     1      33.680 -24.383 -15.091  0.00  0.00    -0.468 OA
ATOM     31  C   UNL     1      32.634 -23.518 -15.524  0.00  0.00    +0.253 C 
ENDBRANCH  26  30
BRANCH  27  32
ATOM     32  O   UNL     1      35.753 -25.312 -13.505  0.00  0.00    -0.465 OA
ATOM     33  C   UNL     1      35.444 -24.758 -12.229  0.00  0.00    +0.253 C 
ENDBRANCH  27  32
ENDBRANCH   2  22
TORSDOF 5
ENDMDL
MODEL 3
REMARK VINA RESULT:     -10.5      1.420      1.856
REMARK  Name = 24941243
REMARK  5 active torsions:
REMARK  status: ('A' for Active; 'I' for Inactive)
REMARK    1  A    between atoms: N_1  and  C_14
REMARK    2  A    between atoms: N_2  and  C_22
REMARK    3  A    between atoms: C_25  and  O_28
REMARK    4  A    between atoms: C_26  and  O_30
REMARK    5  A    between atoms: C_27  and  O_32
REMARK                            x       y       z     vdW  Elec       q    Type
REMARK                         _______ _______ _______ _____ _____    ______ ____
ROOT
ATOM      1  N   UNL     1      35.632 -19.377 -21.188  0.00  0.00    -0.260 N 
ATOM      2  N   UNL     1      34.951 -22.327 -17.555  0.00  0.00    -0.247 N 
ATOM      3  N   UNL     1      35.310 -20.862 -19.352  0.00  0.00    -0.322 NA
ATOM      4  N   UNL     1      33.115 -21.748 -18.898  0.00  0.00    -0.170 NA
ATOM      5  C   UNL     1      34.782 -20.191 -20.397  0.00  0.00    +0.201 C 
ATOM      6  C   UNL     1      37.078 -19.602 -21.091  0.00  0.00    +0.120 C 
ATOM      7  C   UNL     1      33.449 -20.247 -20.750  0.00  0.00    +0.070 C 
ATOM      8  C   UNL     1      34.433 -21.610 -18.656  0.00  0.00    +0.150 C 
ATOM      9  C   UNL     1      32.655 -21.049 -19.957  0.00  0.00    +0.116 C 
ATOM     10  H   UNL     1      35.917 -22.196 -17.416  0.00  0.00    +0.165 HD
ENDROOT
BRANCH   1  14
ATOM     11  N   UNL     1      34.038 -15.470 -25.132  0.00  0.00    -0.280 N 
ATOM     12  N   UNL     1      34.298 -16.792 -25.136  0.00  0.00    -0.173 NA
ATOM     13  C   UNL     1      34.547 -15.874 -23.074  0.00  0.00    +0.032 A 
ATOM     14  C   UNL     1      35.253 -18.200 -21.886  0.00  0.00    +0.055 C 
ATOM     15  C   UNL     1      34.620 -17.080 -23.863  0.00  0.00    +0.103 A 
ATOM     16  C   UNL     1      34.174 -14.866 -23.916  0.00  0.00    +0.053 A 
ATOM     17  C   UNL     1      34.984 -18.303 -23.269  0.00  0.00    +0.036 C 
ATOM     18  C   UNL     1      34.805 -15.740 -21.715  0.00  0.00    +0.004 C 
ATOM     19  C   UNL     1      35.166 -16.978 -21.148  0.00  0.00    +0.015 C 
ATOM     20  C   UNL     1      33.931 -13.426 -23.730  0.00  0.00    +0.051 C 
ATOM     21  H   UNL     1      33.771 -14.979 -25.943  0.00  0.00    +0.189 HD
ENDBRANCH   1  14
BRANCH   2  22
ATOM     22  C   UNL     1      34.357 -23.192 -16.617  0.00  0.00    +0.064 C 
ATOM     23  C   UNL     1      35.145 -23.829 -15.660  0.00  0.00    +0.055 C 
ATOM     24  C   UNL     1      32.978 -23.409 -16.643  0.00  0.00    +0.055 C 
ATOM     25  C   UNL     1      32.390 -24.263 -15.712  0.00  0.00    +0.177 C 
ATOM     26  C   UNL     1      34.555 -24.684 -14.728  0.00  0.00    +0.177 C 
ATOM     27  C   UNL     1      33.178 -24.901 -14.754  0.00  0.00    +0.206 C 
BRANCH  25  28
ATOM     28  O   UNL     1      31.043 -24.467 -15.748  0.00  0.00    -0.468 OA
ATOM     29  C   UNL     1      30.215 -23.309 -15.824  0.00  0.00    +0.253 C 
ENDBRANCH  25  28
BRANCH  26  30
ATOM     30  O   UNL     1      35.338 -25.301 -13.798  0.00  0.00    -0.468 OA
ATOM     31  C   UNL     1      36.476 -26.013 -14.278  0.00  0.00    +0.253 C 
ENDBRANCH  26  30
BRANCH  27  32
ATOM     32  O   UNL     1      32.602 -25.738 -13.845  0.00  0.00    -0.465 OA
ATOM     33  C   UNL     1      31.692 -25.156 -12.915  0.00  0.00    +0.253 C 
ENDBRANCH  27  32
ENDBRANCH   2  22
TORSDOF 5
ENDMDL
MODEL 4
REMARK VINA RESULT:     -10.5      1.596      3.048
REMARK  Name = 24941243
REMARK  5 active torsions:
REMARK  status: ('A' for Active; 'I' for Inactive)
REMARK    1  A    between atoms: N_1  and  C_14
REMARK    2  A    between atoms: N_2  and  C_22
REMARK    3  A    between atoms: C_25  and  O_28
REMARK    4  A    between atoms: C_26  and  O_30
REMARK    5  A    between atoms: C_27  and  O_32
REMARK                            x       y       z     vdW  Elec       q    Type
REMARK                         _______ _______ _______ _____ _____    ______ ____
ROOT
ATOM      1  N   UNL     1      35.588 -19.520 -21.109  0.00  0.00    -0.260 N 
ATOM      2  N   UNL     1      34.775 -22.393 -17.442  0.00  0.00    -0.247 N 
ATOM      3  N   UNL     1      35.200 -20.966 -19.255  0.00  0.00    -0.322 NA
ATOM      4  N   UNL     1      32.980 -21.807 -18.835  0.00  0.00    -0.170 NA
ATOM      5  C   UNL     1      34.706 -20.305 -20.323  0.00  0.00    +0.201 C 
ATOM      6  C   UNL     1      37.027 -19.767 -20.976  0.00  0.00    +0.120 C 
ATOM      7  C   UNL     1      33.381 -20.345 -20.705  0.00  0.00    +0.070 C 
ATOM      8  C   UNL     1      34.295 -21.687 -18.567  0.00  0.00    +0.150 C 
ATOM      9  C   UNL     1      32.555 -21.120 -19.916  0.00  0.00    +0.116 C 
ATOM     10  H   UNL     1      35.740 -22.276 -17.284  0.00  0.00    +0.165 HD
ENDROOT
BRANCH   1  14
ATOM     11  N   UNL     1      34.108 -15.664 -25.147  0.00  0.00    -0.280 N 
ATOM     12  N   UNL     1      34.326 -16.993 -25.118  0.00  0.00    -0.173 NA
ATOM     13  C   UNL     1      34.610 -16.032 -23.080  0.00  0.00    +0.032 A 
ATOM     14  C   UNL     1      35.245 -18.349 -21.836  0.00  0.00    +0.055 C 
ATOM     15  C   UNL     1      34.642 -17.259 -23.839  0.00  0.00    +0.103 A 
ATOM     16  C   UNL     1      34.267 -15.034 -23.947  0.00  0.00    +0.053 A 
ATOM     17  C   UNL     1      34.968 -18.477 -23.215  0.00  0.00    +0.036 C 
ATOM     18  C   UNL     1      34.876 -15.873 -21.726  0.00  0.00    +0.004 C 
ATOM     19  C   UNL     1      35.199 -17.107 -21.128  0.00  0.00    +0.015 C 
ATOM     20  C   UNL     1      34.071 -13.582 -23.796  0.00  0.00    +0.051 C 
ATOM     21  H   UNL     1      33.856 -15.184 -25.969  0.00  0.00    +0.189 HD
ENDBRANCH   1  14
BRANCH   2  22
ATOM     22  C   UNL     1      34.146 -23.231 -16.503  0.00  0.00    +0.064 C 
ATOM     23  C   UNL     1      32.777 -23.480 -16.599  0.00  0.00    +0.055 C 
ATOM     24  C   UNL     1      34.891 -23.814 -15.477  0.00  0.00    +0.055 C 
ATOM     25  C   UNL     1      34.267 -24.647 -14.549  0.00  0.00    +0.177 C 
ATOM     26  C   UNL     1      32.154 -24.313 -15.669  0.00  0.00    +0.177 C 
ATOM     27  C   UNL     1      32.899 -24.897 -14.645  0.00  0.00    +0.206 C 
BRANCH  25  28
ATOM     28  O   UNL     1      35.007 -25.210 -13.553  0.00  0.00    -0.468 OA
ATOM     29  C   UNL     1      35.276 -24.402 -12.410  0.00  0.00    +0.253 C 
ENDBRANCH  25  28
BRANCH  26  30
ATOM     30  O   UNL     1      30.815 -24.548 -15.774  0.00  0.00    -0.468 OA
ATOM     31  C   UNL     1      29.964 -23.410 -15.881  0.00  0.00    +0.253 C 
ENDBRANCH  26  30
BRANCH  27  32
ATOM     32  O   UNL     1      32.289 -25.709 -13.736  0.00  0.00    -0.465 OA
ATOM     33  C   UNL     1      31.362 -25.099 -12.841  0.00  0.00    +0.253 C 
ENDBRANCH  27  32
ENDBRANCH   2  22
TORSDOF 5
ENDMDL
MODEL 5
REMARK VINA RESULT:      -9.6      6.056     11.730
REMARK  Name = 24941243
REMARK  5 active torsions:
REMARK  status: ('A' for Active; 'I' for Inactive)
REMARK    1  A    between atoms: N_1  and  C_14
REMARK    2  A    between atoms: N_2  and  C_22
REMARK    3  A    between atoms: C_25  and  O_28
REMARK    4  A    between atoms: C_26  and  O_30
REMARK    5  A    between atoms: C_27  and  O_32
REMARK                            x       y       z     vdW  Elec       q    Type
REMARK                         _______ _______ _______ _____ _____    ______ ____
ROOT
ATOM      1  N   UNL     1      34.988 -17.891 -22.073  0.00  0.00    -0.260 N 
ATOM      2  N   UNL     1      33.543 -13.495 -23.049  0.00  0.00    -0.247 N 
ATOM      3  N   UNL     1      34.256 -15.682 -22.586  0.00  0.00    -0.322 NA
ATOM      4  N   UNL     1      34.205 -14.004 -20.856  0.00  0.00    -0.170 NA
ATOM      5  C   UNL     1      34.717 -16.559 -21.669  0.00  0.00    +0.201 C 
ATOM      6  C   UNL     1      35.138 -18.154 -23.508  0.00  0.00    +0.120 C 
ATOM      7  C   UNL     1      34.943 -16.238 -20.346  0.00  0.00    +0.070 C 
ATOM      8  C   UNL     1      34.026 -14.441 -22.118  0.00  0.00    +0.150 C 
ATOM      9  C   UNL     1      34.667 -14.933 -19.993  0.00  0.00    +0.116 C 
ATOM     10  H   UNL     1      33.427 -13.858 -23.957  0.00  0.00    +0.165 HD
ENDROOT
BRANCH   1  14
ATOM     11  N   UNL     1      36.000 -22.451 -18.674  0.00  0.00    -0.280 N 
ATOM     12  N   UNL     1      36.753 -21.495 -19.253  0.00  0.00    -0.173 NA
ATOM     13  C   UNL     1      34.546 -21.256 -19.730  0.00  0.00    +0.032 A 
ATOM     14  C   UNL     1      34.893 -19.050 -21.257  0.00  0.00    +0.055 C 
ATOM     15  C   UNL     1      35.875 -20.728 -19.922  0.00  0.00    +0.103 A 
ATOM     16  C   UNL     1      34.663 -22.356 -18.930  0.00  0.00    +0.053 A 
ATOM     17  C   UNL     1      36.082 -19.581 -20.711  0.00  0.00    +0.036 C 
ATOM     18  C   UNL     1      33.358 -20.757 -20.252  0.00  0.00    +0.004 C 
ATOM     19  C   UNL     1      33.595 -19.611 -21.036  0.00  0.00    +0.015 C 
ATOM     20  C   UNL     1      33.694 -23.319 -18.380  0.00  0.00    +0.051 C 
ATOM     21  H   UNL     1      36.385 -23.162 -18.113  0.00  0.00    +0.189 HD
ENDBRANCH   1  14
BRANCH   2  22
ATOM     22  C   UNL     1      33.196 -12.136 -22.934  0.00  0.00    +0.064 C 
ATOM     23  C   UNL     1      32.155 -11.752 -22.091  0.00  0.00    +0.055 C 
ATOM     24  C   UNL     1      33.897 -11.173 -23.662  0.00  0.00    +0.055 C 
ATOM     25  C   UNL     1      33.555  -9.827 -23.546  0.00  0.00    +0.177 C 
ATOM     26  C   UNL     1      31.812 -10.404 -21.975  0.00  0.00    +0.177 C 
ATOM     27  C   UNL     1      32.513  -9.442 -22.702  0.00  0.00    +0.206 C 
BRANCH  25  28
ATOM     28  O   UNL     1      34.246  -8.896 -24.261  0.00  0.00    -0.468 OA
ATOM     29  C   UNL     1      35.477  -8.436 -23.708  0.00  0.00    +0.253 C 
ENDBRANCH  25  28
BRANCH  26  30
ATOM     30  O   UNL     1      30.792 -10.042 -21.148  0.00  0.00    -0.468 OA
ATOM     31  C   UNL     1      30.941 -10.347 -19.763  0.00  0.00    +0.253 C 
ENDBRANCH  26  30
BRANCH  27  32
ATOM     32  O   UNL     1      32.177  -8.125 -22.590  0.00  0.00    -0.465 OA
ATOM     33  C   UNL     1      32.738  -7.405 -21.494  0.00  0.00    +0.253 C 
ENDBRANCH  27  32
ENDBRANCH   2  22
TORSDOF 5
ENDMDL
MODEL 6
REMARK VINA RESULT:      -9.6      6.058     11.617
REMARK  Name = 24941243
REMARK  5 active torsions:
REMARK  status: ('A' for Active; 'I' for Inactive)
REMARK    1  A    between atoms: N_1  and  C_14
REMARK    2  A    between atoms: N_2  and  C_22
REMARK    3  A    between atoms: C_25  and  O_28
REMARK    4  A    between atoms: C_26  and  O_30
REMARK    5  A    between atoms: C_27  and  O_32
REMARK                            x       y       z     vdW  Elec       q    Type
REMARK                         _______ _______ _______ _____ _____    ______ ____
ROOT
ATOM      1  N   UNL     1      34.991 -17.883 -22.064  0.00  0.00    -0.260 N 
ATOM      2  N   UNL     1      33.541 -13.486 -23.027  0.00  0.00    -0.247 N 
ATOM      3  N   UNL     1      34.256 -15.673 -22.570  0.00  0.00    -0.322 NA
ATOM      4  N   UNL     1      34.206 -14.000 -20.836  0.00  0.00    -0.170 NA
ATOM      5  C   UNL     1      34.719 -16.552 -21.656  0.00  0.00    +0.201 C 
ATOM      6  C   UNL     1      35.139 -18.143 -23.500  0.00  0.00    +0.120 C 
ATOM      7  C   UNL     1      34.946 -16.235 -20.333  0.00  0.00    +0.070 C 
ATOM      8  C   UNL     1      34.025 -14.434 -22.099  0.00  0.00    +0.150 C 
ATOM      9  C   UNL     1      34.670 -14.931 -19.976  0.00  0.00    +0.116 C 
ATOM     10  H   UNL     1      33.424 -13.847 -23.936  0.00  0.00    +0.165 HD
ENDROOT
BRANCH   1  14
ATOM     11  N   UNL     1      36.011 -22.450 -18.678  0.00  0.00    -0.280 N 
ATOM     12  N   UNL     1      36.762 -21.492 -19.255  0.00  0.00    -0.173 NA
ATOM     13  C   UNL     1      34.554 -21.255 -19.729  0.00  0.00    +0.032 A 
ATOM     14  C   UNL     1      34.897 -19.044 -21.251  0.00  0.00    +0.055 C 
ATOM     15  C   UNL     1      35.883 -20.724 -19.921  0.00  0.00    +0.103 A 
ATOM     16  C   UNL     1      34.674 -22.357 -18.931  0.00  0.00    +0.053 A 
ATOM     17  C   UNL     1      36.087 -19.575 -20.707  0.00  0.00    +0.036 C 
ATOM     18  C   UNL     1      33.366 -20.756 -20.248  0.00  0.00    +0.004 C 
ATOM     19  C   UNL     1      33.601 -19.608 -21.030  0.00  0.00    +0.015 C 
ATOM     20  C   UNL     1      33.707 -23.322 -18.383  0.00  0.00    +0.051 C 
ATOM     21  H   UNL     1      36.397 -23.163 -18.118  0.00  0.00    +0.189 HD
ENDBRANCH   1  14
BRANCH   2  22
ATOM     22  C   UNL     1      33.193 -12.128 -22.908  0.00  0.00    +0.064 C 
ATOM     23  C   UNL     1      33.889 -11.164 -23.636  0.00  0.00    +0.055 C 
ATOM     24  C   UNL     1      32.149 -11.746 -22.064  0.00  0.00    +0.055 C 
ATOM     25  C   UNL     1      31.803 -10.400 -21.950  0.00  0.00    +0.177 C 
ATOM     26  C   UNL     1      33.543  -9.817 -23.520  0.00  0.00    +0.177 C 
ATOM     27  C   UNL     1      32.499  -9.436 -22.677  0.00  0.00    +0.206 C 
BRANCH  25  28
ATOM     28  O   UNL     1      30.781 -10.041 -21.122  0.00  0.00    -0.468 OA
ATOM     29  C   UNL     1      30.934 -10.341 -19.737  0.00  0.00    +0.253 C 
ENDBRANCH  25  28
BRANCH  26  30
ATOM     30  O   UNL     1      34.232  -8.885 -24.237  0.00  0.00    -0.468 OA
ATOM     31  C   UNL     1      35.489  -8.464 -23.713  0.00  0.00    +0.253 C 
ENDBRANCH  26  30
BRANCH  27  32
ATOM     32  O   UNL     1      32.161  -8.120 -22.563  0.00  0.00    -0.465 OA
ATOM     33  C   UNL     1      32.754  -7.390 -21.492  0.00  0.00    +0.253 C 
ENDBRANCH  27  32
ENDBRANCH   2  22
TORSDOF 5
ENDMDL
MODEL 7
REMARK VINA RESULT:      -9.3      4.272     10.641
REMARK  Name = 24941243
REMARK  5 active torsions:
REMARK  status: ('A' for Active; 'I' for Inactive)
REMARK    1  A    between atoms: N_1  and  C_14
REMARK    2  A    between atoms: N_2  and  C_22
REMARK    3  A    between atoms: C_25  and  O_28
REMARK    4  A    between atoms: C_26  and  O_30
REMARK    5  A    between atoms: C_27  and  O_32
REMARK                            x       y       z     vdW  Elec       q    Type
REMARK                         _______ _______ _______ _____ _____    ______ ____
ROOT
ATOM      1  N   UNL     1      34.589 -23.178 -17.031  0.00  0.00    -0.260 N 
ATOM      2  N   UNL     1      33.920 -20.268 -20.698  0.00  0.00    -0.247 N 
ATOM      3  N   UNL     1      34.230 -21.715 -18.877  0.00  0.00    -0.322 NA
ATOM      4  N   UNL     1      36.099 -20.567 -19.878  0.00  0.00    -0.170 NA
ATOM      5  C   UNL     1      35.093 -22.283 -18.009  0.00  0.00    +0.201 C 
ATOM      6  C   UNL     1      33.254 -23.746 -17.245  0.00  0.00    +0.120 C 
ATOM      7  C   UNL     1      36.453 -22.046 -18.012  0.00  0.00    +0.070 C 
ATOM      8  C   UNL     1      34.793 -20.881 -19.772  0.00  0.00    +0.150 C 
ATOM      9  C   UNL     1      36.904 -21.171 -18.978  0.00  0.00    +0.116 C 
ATOM     10  H   UNL     1      32.977 -20.526 -20.582  0.00  0.00    +0.165 HD
ENDROOT
BRANCH   1  14
ATOM     11  N   UNL     1      35.468 -24.378 -11.449  0.00  0.00    -0.280 N 
ATOM     12  N   UNL     1      34.402 -24.354 -12.273  0.00  0.00    -0.173 NA
ATOM     13  C   UNL     1      36.325 -23.783 -13.338  0.00  0.00    +0.032 A 
ATOM     14  C   UNL     1      35.135 -23.401 -15.738  0.00  0.00    +0.055 C 
ATOM     15  C   UNL     1      34.901 -23.986 -13.465  0.00  0.00    +0.103 A 
ATOM     16  C   UNL     1      36.652 -24.042 -12.038  0.00  0.00    +0.053 A 
ATOM     17  C   UNL     1      34.259 -23.794 -14.703  0.00  0.00    +0.036 C 
ATOM     18  C   UNL     1      37.212 -23.398 -14.336  0.00  0.00    +0.004 C 
ATOM     19  C   UNL     1      36.543 -23.214 -15.561  0.00  0.00    +0.015 C 
ATOM     20  C   UNL     1      37.917 -24.014 -11.285  0.00  0.00    +0.051 C 
ATOM     21  H   UNL     1      35.398 -24.619 -10.497  0.00  0.00    +0.189 HD
ENDBRANCH   1  14
BRANCH   2  22
ATOM     22  C   UNL     1      34.134 -19.362 -21.752  0.00  0.00    +0.064 C 
ATOM     23  C   UNL     1      33.717 -19.683 -23.043  0.00  0.00    +0.055 C 
ATOM     24  C   UNL     1      34.763 -18.140 -21.506  0.00  0.00    +0.055 C 
ATOM     25  C   UNL     1      34.972 -17.241 -22.551  0.00  0.00    +0.177 C 
ATOM     26  C   UNL     1      33.927 -18.783 -24.088  0.00  0.00    +0.177 C 
ATOM     27  C   UNL     1      34.554 -17.562 -23.842  0.00  0.00    +0.206 C 
BRANCH  25  28
ATOM     28  O   UNL     1      35.586 -16.051 -22.297  0.00  0.00    -0.468 OA
ATOM     29  C   UNL     1      34.810 -15.047 -21.648  0.00  0.00    +0.253 C 
ENDBRANCH  25  28
BRANCH  26  30
ATOM     30  O   UNL     1      33.514 -19.110 -25.345  0.00  0.00    -0.468 OA
ATOM     31  C   UNL     1      32.132 -19.417 -25.514  0.00  0.00    +0.253 C 
ENDBRANCH  26  30
BRANCH  27  32
ATOM     32  O   UNL     1      34.760 -16.683 -24.864  0.00  0.00    -0.465 OA
ATOM     33  C   UNL     1      33.767 -15.680 -25.066  0.00  0.00    +0.253 C 
ENDBRANCH  27  32
ENDBRANCH   2  22
TORSDOF 5
ENDMDL
MODEL 8
REMARK VINA RESULT:      -9.3      4.271     10.532
REMARK  Name = 24941243
REMARK  5 active torsions:
REMARK  status: ('A' for Active; 'I' for Inactive)
REMARK    1  A    between atoms: N_1  and  C_14
REMARK    2  A    between atoms: N_2  and  C_22
REMARK    3  A    between atoms: C_25  and  O_28
REMARK    4  A    between atoms: C_26  and  O_30
REMARK    5  A    between atoms: C_27  and  O_32
REMARK                            x       y       z     vdW  Elec       q    Type
REMARK                         _______ _______ _______ _____ _____    ______ ____
ROOT
ATOM      1  N   UNL     1      34.588 -23.175 -17.024  0.00  0.00    -0.260 N 
ATOM      2  N   UNL     1      33.906 -20.274 -20.696  0.00  0.00    -0.247 N 
ATOM      3  N   UNL     1      34.223 -21.717 -18.873  0.00  0.00    -0.322 NA
ATOM      4  N   UNL     1      36.084 -20.553 -19.868  0.00  0.00    -0.170 NA
ATOM      5  C   UNL     1      35.087 -22.277 -18.001  0.00  0.00    +0.201 C 
ATOM      6  C   UNL     1      33.259 -23.755 -17.243  0.00  0.00    +0.120 C 
ATOM      7  C   UNL     1      36.444 -22.027 -17.999  0.00  0.00    +0.070 C 
ATOM      8  C   UNL     1      34.781 -20.878 -19.766  0.00  0.00    +0.150 C 
ATOM      9  C   UNL     1      36.891 -21.149 -18.965  0.00  0.00    +0.116 C 
ATOM     10  H   UNL     1      32.964 -20.540 -20.584  0.00  0.00    +0.165 HD
ENDROOT
BRANCH   1  14
ATOM     11  N   UNL     1      35.455 -24.355 -11.436  0.00  0.00    -0.280 N 
ATOM     12  N   UNL     1      34.392 -24.337 -12.263  0.00  0.00    -0.173 NA
ATOM     13  C   UNL     1      36.315 -23.763 -13.325  0.00  0.00    +0.032 A 
ATOM     14  C   UNL     1      35.131 -23.392 -15.730  0.00  0.00    +0.055 C 
ATOM     15  C   UNL     1      34.893 -23.971 -13.455  0.00  0.00    +0.103 A 
ATOM     16  C   UNL     1      36.640 -24.016 -12.023  0.00  0.00    +0.053 A 
ATOM     17  C   UNL     1      34.254 -23.785 -14.695  0.00  0.00    +0.036 C 
ATOM     18  C   UNL     1      37.204 -23.378 -14.321  0.00  0.00    +0.004 C 
ATOM     19  C   UNL     1      36.537 -23.200 -15.549  0.00  0.00    +0.015 C 
ATOM     20  C   UNL     1      37.903 -23.982 -11.267  0.00  0.00    +0.051 C 
ATOM     21  H   UNL     1      35.383 -24.593 -10.483  0.00  0.00    +0.189 HD
ENDBRANCH   1  14
BRANCH   2  22
ATOM     22  C   UNL     1      34.116 -19.367 -21.750  0.00  0.00    +0.064 C 
ATOM     23  C   UNL     1      34.749 -18.149 -21.506  0.00  0.00    +0.055 C 
ATOM     24  C   UNL     1      33.692 -19.686 -23.041  0.00  0.00    +0.055 C 
ATOM     25  C   UNL     1      33.904 -18.788 -24.086  0.00  0.00    +0.177 C 
ATOM     26  C   UNL     1      34.960 -17.250 -22.552  0.00  0.00    +0.177 C 
ATOM     27  C   UNL     1      34.537 -17.570 -23.842  0.00  0.00    +0.206 C 
BRANCH  25  28
ATOM     28  O   UNL     1      33.486 -19.113 -25.342  0.00  0.00    -0.468 OA
ATOM     29  C   UNL     1      32.101 -19.407 -25.508  0.00  0.00    +0.253 C 
ENDBRANCH  25  28
BRANCH  26  30
ATOM     30  O   UNL     1      35.580 -16.063 -22.300  0.00  0.00    -0.468 OA
ATOM     31  C   UNL     1      34.812 -15.059 -21.641  0.00  0.00    +0.253 C 
ENDBRANCH  26  30
BRANCH  27  32
ATOM     32  O   UNL     1      34.742 -16.691 -24.864  0.00  0.00    -0.465 OA
ATOM     33  C   UNL     1      33.752 -15.685 -25.061  0.00  0.00    +0.253 C 
ENDBRANCH  27  32
ENDBRANCH   2  22
TORSDOF 5
ENDMDL
MODEL 9
REMARK VINA RESULT:      -9.0      7.853     12.552
REMARK  Name = 24941243
REMARK  5 active torsions:
REMARK  status: ('A' for Active; 'I' for Inactive)
REMARK    1  A    between atoms: N_1  and  C_14
REMARK    2  A    between atoms: N_2  and  C_22
REMARK    3  A    between atoms: C_25  and  O_28
REMARK    4  A    between atoms: C_26  and  O_30
REMARK    5  A    between atoms: C_27  and  O_32
REMARK                            x       y       z     vdW  Elec       q    Type
REMARK                         _______ _______ _______ _____ _____    ______ ____
ROOT
ATOM      1  N   UNL     1      32.198  -7.597 -21.460  0.00  0.00    -0.260 N 
ATOM      2  N   UNL     1      32.918 -12.180 -22.374  0.00  0.00    -0.247 N 
ATOM      3  N   UNL     1      32.545  -9.911 -21.906  0.00  0.00    -0.322 NA
ATOM      4  N   UNL     1      34.220 -10.586 -23.503  0.00  0.00    -0.170 NA
ATOM      5  C   UNL     1      32.882  -8.628 -22.152  0.00  0.00    +0.201 C 
ATOM      6  C   UNL     1      31.455  -7.961 -20.249  0.00  0.00    +0.120 C 
ATOM      7  C   UNL     1      33.863  -8.250 -23.046  0.00  0.00    +0.070 C 
ATOM      8  C   UNL     1      33.243 -10.825 -22.606  0.00  0.00    +0.150 C 
ATOM      9  C   UNL     1      34.505  -9.282 -23.699  0.00  0.00    +0.116 C 
ATOM     10  H   UNL     1      32.200 -12.307 -21.712  0.00  0.00    +0.165 HD
ENDROOT
BRANCH   1  14
ATOM     11  N   UNL     1      31.600  -1.890 -22.123  0.00  0.00    -0.280 N 
ATOM     12  N   UNL     1      31.987  -2.708 -21.126  0.00  0.00    -0.173 NA
ATOM     13  C   UNL     1      31.434  -3.851 -23.008  0.00  0.00    +0.032 A 
ATOM     14  C   UNL     1      31.951  -6.284 -21.943  0.00  0.00    +0.055 C 
ATOM     15  C   UNL     1      31.896  -3.945 -21.644  0.00  0.00    +0.103 A 
ATOM     16  C   UNL     1      31.254  -2.525 -23.281  0.00  0.00    +0.053 A 
ATOM     17  C   UNL     1      32.172  -5.198 -21.067  0.00  0.00    +0.036 C 
ATOM     18  C   UNL     1      31.208  -4.898 -23.894  0.00  0.00    +0.004 C 
ATOM     19  C   UNL     1      31.492  -6.138 -23.290  0.00  0.00    +0.015 C 
ATOM     20  C   UNL     1      30.806  -1.786 -24.472  0.00  0.00    +0.051 C 
ATOM     21  H   UNL     1      31.568  -0.911 -22.025  0.00  0.00    +0.189 HD
ENDBRANCH   1  14
BRANCH   2  22
ATOM     22  C   UNL     1      33.418 -13.384 -22.904  0.00  0.00    +0.064 C 
ATOM     23  C   UNL     1      34.064 -14.296 -22.071  0.00  0.00    +0.055 C 
ATOM     24  C   UNL     1      33.266 -13.666 -24.262  0.00  0.00    +0.055 C 
ATOM     25  C   UNL     1      33.759 -14.860 -24.785  0.00  0.00    +0.177 C 
ATOM     26  C   UNL     1      34.559 -15.491 -22.595  0.00  0.00    +0.177 C 
ATOM     27  C   UNL     1      34.405 -15.773 -23.952  0.00  0.00    +0.206 C 
BRANCH  25  28
ATOM     28  O   UNL     1      33.603 -15.124 -26.113  0.00  0.00    -0.468 OA
ATOM     29  C   UNL     1      33.631 -14.010 -27.002  0.00  0.00    +0.253 C 
ENDBRANCH  25  28
BRANCH  26  30
ATOM     30  O   UNL     1      35.189 -16.374 -21.770  0.00  0.00    -0.468 OA
ATOM     31  C   UNL     1      34.867 -16.306 -20.383  0.00  0.00    +0.253 C 
ENDBRANCH  26  30
BRANCH  27  32
ATOM     32  O   UNL     1      34.889 -16.940 -24.465  0.00  0.00    -0.465 OA
ATOM     33  C   UNL     1      34.109 -18.114 -24.250  0.00  0.00    +0.253 C 
ENDBRANCH  27  32
ENDBRANCH   2  22
TORSDOF 5
ENDMDL
