MODEL 1
REMARK VINA RESULT:     -10.9      0.000      0.000
REMARK  Name = 23400214
REMARK  3 active torsions:
REMARK  status: ('A' for Active; 'I' for Inactive)
REMARK    1  A    between atoms: N_1  and  C_10
REMARK    2  A    between atoms: N_16  and  C_18
REMARK    3  A    between atoms: C_21  and  C_27
REMARK                            x       y       z     vdW  Elec       q    Type
REMARK                         _______ _______ _______ _____ _____    ______ ____
ROOT
ATOM      1  N   UNL     1      33.301  -8.376 -22.940  0.00  0.00    -0.176 N 
ATOM      2  N   UNL     1      34.525  -8.367 -23.501  0.00  0.00    -0.175 NA
ATOM      3  N   UNL     1      31.596  -9.948 -22.247  0.00  0.00    -0.231 NA
ATOM      4  N   UNL     1      32.264 -12.254 -22.681  0.00  0.00    -0.233 NA
ATOM      5  C   UNL     1      33.745 -10.502 -23.261  0.00  0.00    +0.152 C 
ATOM      6  C   UNL     1      32.788  -9.628 -22.774  0.00  0.00    +0.141 C 
ATOM      7  C   UNL     1      33.450 -11.859 -23.202  0.00  0.00    +0.118 C 
ATOM      8  C   UNL     1      34.790  -9.664 -23.693  0.00  0.00    +0.106 C 
ATOM      9  C   UNL     1      31.422 -11.288 -22.242  0.00  0.00    +0.253 C 
ATOM     10  N   UNL     1      34.365 -12.818 -23.674  0.00  0.00    -0.301 N 
ATOM     11  H   UNL     1      35.195 -12.428 -24.032  0.00  0.00    +0.153 HD
ENDROOT
BRANCH  10  12
ATOM     12  C   UNL     1      34.328 -14.227 -23.737  0.00  0.00    +0.045 C 
ATOM     13  C   UNL     1      33.769 -14.878 -24.836  0.00  0.00    -0.008 C 
ATOM     14  C   UNL     1      34.861 -14.970 -22.684  0.00  0.00    +0.019 C 
ATOM     15  C   UNL     1      34.832 -16.364 -22.728  0.00  0.00    +0.055 C 
ATOM     16  C   UNL     1      33.740 -16.272 -24.882  0.00  0.00    -0.003 C 
ATOM     17  C   UNL     1      34.273 -17.015 -23.828  0.00  0.00    +0.004 C 
ATOM     18  C   UNL     1      33.192 -14.108 -25.980  0.00  0.00    +0.032 C 
BRANCH  15  21
ATOM     19  O   UNL     1      35.060 -16.891 -20.455  0.00  0.00    -0.270 OA
ATOM     20  N   UNL     1      36.274 -18.169 -21.962  0.00  0.00    -0.299 N 
ATOM     21  C   UNL     1      35.388 -17.139 -21.630  0.00  0.00    +0.246 C 
ATOM     22  C   UNL     1      36.889 -19.039 -20.986  0.00  0.00    +0.111 C 
ATOM     23  H   UNL     1      36.489 -18.310 -22.912  0.00  0.00    +0.150 HD
ENDBRANCH  15  21
ENDBRANCH  10  12
BRANCH   1  24
ATOM     24  C   UNL     1      32.683  -7.177 -22.591  0.00  0.00    +0.075 C 
ATOM     25  C   UNL     1      32.902  -6.622 -21.330  0.00  0.00    +0.017 C 
ATOM     26  C   UNL     1      31.845  -6.532 -23.501  0.00  0.00    +0.017 C 
ATOM     27  C   UNL     1      32.282  -5.422 -20.979  0.00  0.00    +0.001 C 
ATOM     28  C   UNL     1      31.225  -5.334 -23.150  0.00  0.00    +0.001 C 
ATOM     29  C   UNL     1      31.444  -4.778 -21.889  0.00  0.00    +0.000 C 
ENDBRANCH   1  24
TORSDOF 3
ENDMDL
MODEL 2
REMARK VINA RESULT:     -10.6      3.001      5.840
REMARK  Name = 23400214
REMARK  3 active torsions:
REMARK  status: ('A' for Active; 'I' for Inactive)
REMARK    1  A    between atoms: N_1  and  C_10
REMARK    2  A    between atoms: N_16  and  C_18
REMARK    3  A    between atoms: C_21  and  C_27
REMARK                            x       y       z     vdW  Elec       q    Type
REMARK                         _______ _______ _______ _____ _____    ______ ____
ROOT
ATOM      1  N   UNL     1      33.882 -13.731 -23.168  0.00  0.00    -0.176 N 
ATOM      2  N   UNL     1      33.911 -14.451 -24.305  0.00  0.00    -0.175 NA
ATOM      3  N   UNL     1      34.243 -14.013 -20.791  0.00  0.00    -0.231 NA
ATOM      4  N   UNL     1      34.853 -16.309 -20.236  0.00  0.00    -0.233 NA
ATOM      5  C   UNL     1      34.441 -15.745 -22.498  0.00  0.00    +0.152 C 
ATOM      6  C   UNL     1      34.192 -14.457 -22.057  0.00  0.00    +0.141 C 
ATOM      7  C   UNL     1      34.783 -16.688 -21.535  0.00  0.00    +0.118 C 
ATOM      8  C   UNL     1      34.252 -15.676 -23.891  0.00  0.00    +0.106 C 
ATOM      9  C   UNL     1      34.583 -15.014 -19.949  0.00  0.00    +0.253 C 
ATOM     10  N   UNL     1      35.052 -18.021 -21.894  0.00  0.00    -0.301 N 
ATOM     11  H   UNL     1      34.974 -18.193 -22.860  0.00  0.00    +0.153 HD
ENDROOT
BRANCH  10  12
ATOM     12  C   UNL     1      35.413 -19.161 -21.144  0.00  0.00    +0.045 C 
ATOM     13  C   UNL     1      36.753 -19.510 -20.977  0.00  0.00    -0.008 C 
ATOM     14  C   UNL     1      34.412 -19.941 -20.566  0.00  0.00    +0.019 C 
ATOM     15  C   UNL     1      34.751 -21.072 -19.822  0.00  0.00    +0.055 C 
ATOM     16  C   UNL     1      37.092 -20.641 -20.233  0.00  0.00    -0.003 C 
ATOM     17  C   UNL     1      36.090 -21.421 -19.655  0.00  0.00    +0.004 C 
ATOM     18  C   UNL     1      37.847 -18.693 -21.585  0.00  0.00    +0.032 C 
BRANCH  15  21
ATOM     19  O   UNL     1      32.579 -21.953 -19.741  0.00  0.00    -0.270 OA
ATOM     20  N   UNL     1      34.040 -22.590 -18.056  0.00  0.00    -0.299 N 
ATOM     21  C   UNL     1      33.706 -21.885 -19.219  0.00  0.00    +0.246 C 
ATOM     22  C   UNL     1      33.120 -23.456 -17.357  0.00  0.00    +0.111 C 
ATOM     23  H   UNL     1      34.951 -22.490 -17.698  0.00  0.00    +0.150 HD
ENDBRANCH  15  21
ENDBRANCH  10  12
BRANCH   1  24
ATOM     24  C   UNL     1      33.558 -12.377 -23.205  0.00  0.00    +0.075 C 
ATOM     25  C   UNL     1      34.485 -11.450 -23.682  0.00  0.00    +0.017 C 
ATOM     26  C   UNL     1      32.306 -11.945 -22.764  0.00  0.00    +0.017 C 
ATOM     27  C   UNL     1      34.161 -10.093 -23.719  0.00  0.00    +0.001 C 
ATOM     28  C   UNL     1      31.982 -10.590 -22.801  0.00  0.00    +0.001 C 
ATOM     29  C   UNL     1      32.910  -9.663 -23.278  0.00  0.00    +0.000 C 
ENDBRANCH   1  24
TORSDOF 3
ENDMDL
MODEL 3
REMARK VINA RESULT:     -10.5      8.542     12.603
REMARK  Name = 23400214
REMARK  3 active torsions:
REMARK  status: ('A' for Active; 'I' for Inactive)
REMARK    1  A    between atoms: N_1  and  C_10
REMARK    2  A    between atoms: N_16  and  C_18
REMARK    3  A    between atoms: C_21  and  C_27
REMARK                            x       y       z     vdW  Elec       q    Type
REMARK                         _______ _______ _______ _____ _____    ______ ____
ROOT
ATOM      1  N   UNL     1      34.066 -20.451 -20.452  0.00  0.00    -0.176 N 
ATOM      2  N   UNL     1      32.786 -20.804 -20.229  0.00  0.00    -0.175 NA
ATOM      3  N   UNL     1      36.273 -20.810 -19.524  0.00  0.00    -0.231 NA
ATOM      4  N   UNL     1      36.204 -22.263 -17.566  0.00  0.00    -0.233 NA
ATOM      5  C   UNL     1      34.182 -21.741 -18.680  0.00  0.00    +0.152 C 
ATOM      6  C   UNL     1      34.942 -20.984 -19.555  0.00  0.00    +0.141 C 
ATOM      7  C   UNL     1      34.858 -22.395 -17.657  0.00  0.00    +0.118 C 
ATOM      8  C   UNL     1      32.863 -21.589 -19.149  0.00  0.00    +0.106 C 
ATOM      9  C   UNL     1      36.819 -21.490 -18.493  0.00  0.00    +0.253 C 
ATOM     10  N   UNL     1      34.165 -23.185 -16.723  0.00  0.00    -0.301 N 
ATOM     11  H   UNL     1      33.193 -23.216 -16.876  0.00  0.00    +0.153 HD
ENDROOT
BRANCH  10  12
ATOM     12  C   UNL     1      34.586 -23.943 -15.609  0.00  0.00    +0.045 C 
ATOM     13  C   UNL     1      33.787 -24.042 -14.470  0.00  0.00    -0.008 C 
ATOM     14  C   UNL     1      35.816 -24.599 -15.657  0.00  0.00    +0.019 C 
ATOM     15  C   UNL     1      36.248 -25.352 -14.565  0.00  0.00    +0.055 C 
ATOM     16  C   UNL     1      34.219 -24.794 -13.377  0.00  0.00    -0.003 C 
ATOM     17  C   UNL     1      35.450 -25.450 -13.426  0.00  0.00    +0.004 C 
ATOM     18  C   UNL     1      32.465 -23.350 -14.390  0.00  0.00    +0.032 C 
BRANCH  15  21
ATOM     19  O   UNL     1      37.582 -27.278 -14.664  0.00  0.00    -0.270 OA
ATOM     20  N   UNL     1      38.679 -25.235 -14.627  0.00  0.00    -0.299 N 
ATOM     21  C   UNL     1      37.531 -26.036 -14.615  0.00  0.00    +0.246 C 
ATOM     22  C   UNL     1      40.021 -25.765 -14.699  0.00  0.00    +0.111 C 
ATOM     23  H   UNL     1      38.565 -24.259 -14.587  0.00  0.00    +0.150 HD
ENDBRANCH  15  21
ENDBRANCH  10  12
BRANCH   1  24
ATOM     24  C   UNL     1      34.385 -19.616 -21.521  0.00  0.00    +0.075 C 
ATOM     25  C   UNL     1      35.065 -18.420 -21.293  0.00  0.00    +0.017 C 
ATOM     26  C   UNL     1      34.023 -19.975 -22.820  0.00  0.00    +0.017 C 
ATOM     27  C   UNL     1      35.383 -17.583 -22.364  0.00  0.00    +0.001 C 
ATOM     28  C   UNL     1      34.341 -19.140 -23.890  0.00  0.00    +0.001 C 
ATOM     29  C   UNL     1      35.022 -17.942 -23.662  0.00  0.00    +0.000 C 
ENDBRANCH   1  24
TORSDOF 3
ENDMDL
MODEL 4
REMARK VINA RESULT:     -10.2      8.012     12.005
REMARK  Name = 23400214
REMARK  3 active torsions:
REMARK  status: ('A' for Active; 'I' for Inactive)
REMARK    1  A    between atoms: N_1  and  C_10
REMARK    2  A    between atoms: N_16  and  C_18
REMARK    3  A    between atoms: C_21  and  C_27
REMARK                            x       y       z     vdW  Elec       q    Type
REMARK                         _______ _______ _______ _____ _____    ______ ____
ROOT
ATOM      1  N   UNL     1      35.600 -19.776 -20.994  0.00  0.00    -0.176 N 
ATOM      2  N   UNL     1      36.882 -19.692 -20.589  0.00  0.00    -0.175 NA
ATOM      3  N   UNL     1      33.519 -20.826 -20.340  0.00  0.00    -0.231 NA
ATOM      4  N   UNL     1      33.779 -22.161 -18.315  0.00  0.00    -0.233 NA
ATOM      5  C   UNL     1      35.660 -21.018 -19.185  0.00  0.00    +0.152 C 
ATOM      6  C   UNL     1      34.826 -20.557 -20.189  0.00  0.00    +0.141 C 
ATOM      7  C   UNL     1      35.094 -21.848 -18.224  0.00  0.00    +0.118 C 
ATOM      8  C   UNL     1      36.911 -20.449 -19.488  0.00  0.00    +0.106 C 
ATOM      9  C   UNL     1      33.083 -21.638 -19.353  0.00  0.00    +0.253 C 
ATOM     10  N   UNL     1      35.868 -22.362 -17.168  0.00  0.00    -0.301 N 
ATOM     11  H   UNL     1      36.809 -22.075 -17.193  0.00  0.00    +0.153 HD
ENDROOT
BRANCH  10  12
ATOM     12  C   UNL     1      35.562 -23.207 -16.080  0.00  0.00    +0.045 C 
ATOM     13  C   UNL     1      36.577 -23.754 -15.295  0.00  0.00    -0.008 C 
ATOM     14  C   UNL     1      34.228 -23.493 -15.793  0.00  0.00    +0.019 C 
ATOM     15  C   UNL     1      33.907 -24.328 -14.722  0.00  0.00    +0.055 C 
ATOM     16  C   UNL     1      36.257 -24.589 -14.223  0.00  0.00    -0.003 C 
ATOM     17  C   UNL     1      34.922 -24.875 -13.937  0.00  0.00    +0.004 C 
ATOM     18  C   UNL     1      38.015 -23.465 -15.578  0.00  0.00    +0.032 C 
BRANCH  15  21
ATOM     19  O   UNL     1      32.222 -25.392 -13.487  0.00  0.00    -0.270 OA
ATOM     20  N   UNL     1      31.546 -24.001 -15.215  0.00  0.00    -0.299 N 
ATOM     21  C   UNL     1      32.516 -24.627 -14.423  0.00  0.00    +0.246 C 
ATOM     22  C   UNL     1      30.125 -24.178 -15.027  0.00  0.00    +0.111 C 
ATOM     23  H   UNL     1      31.850 -23.407 -15.939  0.00  0.00    +0.150 HD
ENDBRANCH  15  21
ENDBRANCH  10  12
BRANCH   1  24
ATOM     24  C   UNL     1      35.182 -19.100 -22.138  0.00  0.00    +0.075 C 
ATOM     25  C   UNL     1      35.315 -17.713 -22.217  0.00  0.00    +0.017 C 
ATOM     26  C   UNL     1      34.629 -19.808 -23.206  0.00  0.00    +0.017 C 
ATOM     27  C   UNL     1      34.896 -17.036 -23.362  0.00  0.00    +0.001 C 
ATOM     28  C   UNL     1      34.210 -19.131 -24.350  0.00  0.00    +0.001 C 
ATOM     29  C   UNL     1      34.343 -17.744 -24.428  0.00  0.00    +0.000 C 
ENDBRANCH   1  24
TORSDOF 3
ENDMDL
MODEL 5
REMARK VINA RESULT:      -9.8      3.318      9.559
REMARK  Name = 23400214
REMARK  3 active torsions:
REMARK  status: ('A' for Active; 'I' for Inactive)
REMARK    1  A    between atoms: N_1  and  C_10
REMARK    2  A    between atoms: N_16  and  C_18
REMARK    3  A    between atoms: C_21  and  C_27
REMARK                            x       y       z     vdW  Elec       q    Type
REMARK                         _______ _______ _______ _____ _____    ______ ____
ROOT
ATOM      1  N   UNL     1      32.901 -12.828 -22.962  0.00  0.00    -0.176 N 
ATOM      2  N   UNL     1      31.707 -12.824 -22.339  0.00  0.00    -0.175 NA
ATOM      3  N   UNL     1      34.578 -11.274 -23.758  0.00  0.00    -0.231 NA
ATOM      4  N   UNL     1      33.948  -8.960 -23.312  0.00  0.00    -0.233 NA
ATOM      5  C   UNL     1      32.489 -10.697 -22.638  0.00  0.00    +0.152 C 
ATOM      6  C   UNL     1      33.413 -11.582 -23.165  0.00  0.00    +0.141 C 
ATOM      7  C   UNL     1      32.788  -9.342 -22.726  0.00  0.00    +0.118 C 
ATOM      8  C   UNL     1      31.462 -11.524 -22.144  0.00  0.00    +0.106 C 
ATOM      9  C   UNL     1      34.760  -9.936 -23.785  0.00  0.00    +0.253 C 
ATOM     10  N   UNL     1      31.905  -8.373 -22.216  0.00  0.00    -0.301 N 
ATOM     11  H   UNL     1      31.093  -8.753 -21.811  0.00  0.00    +0.153 HD
ENDROOT
BRANCH  10  12
ATOM     12  C   UNL     1      31.953  -6.963 -22.170  0.00  0.00    +0.045 C 
ATOM     13  C   UNL     1      32.364  -6.301 -21.014  0.00  0.00    -0.008 C 
ATOM     14  C   UNL     1      31.585  -6.232 -23.299  0.00  0.00    +0.019 C 
ATOM     15  C   UNL     1      31.626  -4.838 -23.272  0.00  0.00    +0.055 C 
ATOM     16  C   UNL     1      32.404  -4.906 -20.985  0.00  0.00    -0.003 C 
ATOM     17  C   UNL     1      32.036  -4.175 -22.116  0.00  0.00    +0.004 C 
ATOM     18  C   UNL     1      32.764  -7.058 -19.789  0.00  0.00    +0.032 C 
BRANCH  15  21
ATOM     19  O   UNL     1      30.122  -3.537 -24.514  0.00  0.00    -0.270 OA
ATOM     20  N   UNL     1      32.190  -3.965 -25.473  0.00  0.00    -0.299 N 
ATOM     21  C   UNL     1      31.242  -4.075 -24.449  0.00  0.00    +0.246 C 
ATOM     22  C   UNL     1      31.966  -3.223 -26.692  0.00  0.00    +0.111 C 
ATOM     23  H   UNL     1      33.056  -4.416 -25.355  0.00  0.00    +0.150 HD
ENDBRANCH  15  21
ENDBRANCH  10  12
BRANCH   1  24
ATOM     24  C   UNL     1      33.492 -14.034 -23.332  0.00  0.00    +0.075 C 
ATOM     25  C   UNL     1      34.360 -14.684 -22.455  0.00  0.00    +0.017 C 
ATOM     26  C   UNL     1      33.217 -14.593 -24.581  0.00  0.00    +0.017 C 
ATOM     27  C   UNL     1      34.954 -15.891 -22.825  0.00  0.00    +0.001 C 
ATOM     28  C   UNL     1      33.810 -15.799 -24.952  0.00  0.00    +0.001 C 
ATOM     29  C   UNL     1      34.679 -16.449 -24.074  0.00  0.00    +0.000 C 
ENDBRANCH   1  24
TORSDOF 3
ENDMDL
MODEL 6
REMARK VINA RESULT:      -9.7      2.789      9.211
REMARK  Name = 23400214
REMARK  3 active torsions:
REMARK  status: ('A' for Active; 'I' for Inactive)
REMARK    1  A    between atoms: N_1  and  C_10
REMARK    2  A    between atoms: N_16  and  C_18
REMARK    3  A    between atoms: C_21  and  C_27
REMARK                            x       y       z     vdW  Elec       q    Type
REMARK                         _______ _______ _______ _____ _____    ______ ____
ROOT
ATOM      1  N   UNL     1      34.082 -16.265 -23.980  0.00  0.00    -0.176 N 
ATOM      2  N   UNL     1      33.643 -15.912 -25.202  0.00  0.00    -0.175 NA
ATOM      3  N   UNL     1      34.443 -15.294 -21.792  0.00  0.00    -0.231 NA
ATOM      4  N   UNL     1      33.835 -12.932 -21.741  0.00  0.00    -0.233 NA
ATOM      5  C   UNL     1      33.582 -14.139 -23.761  0.00  0.00    +0.152 C 
ATOM      6  C   UNL     1      34.065 -15.242 -23.079  0.00  0.00    +0.141 C 
ATOM      7  C   UNL     1      33.471 -12.952 -23.046  0.00  0.00    +0.118 C 
ATOM      8  C   UNL     1      33.340 -14.617 -25.063  0.00  0.00    +0.106 C 
ATOM      9  C   UNL     1      34.292 -14.088 -21.203  0.00  0.00    +0.253 C 
ATOM     10  N   UNL     1      32.989 -11.782 -23.660  0.00  0.00    -0.301 N 
ATOM     11  H   UNL     1      32.753 -11.902 -24.608  0.00  0.00    +0.153 HD
ENDROOT
BRANCH  10  12
ATOM     12  C   UNL     1      32.778 -10.470 -23.186  0.00  0.00    +0.045 C 
ATOM     13  C   UNL     1      31.747 -10.192 -22.289  0.00  0.00    -0.008 C 
ATOM     14  C   UNL     1      33.614  -9.444 -23.626  0.00  0.00    +0.019 C 
ATOM     15  C   UNL     1      33.419  -8.140 -23.169  0.00  0.00    +0.055 C 
ATOM     16  C   UNL     1      31.551  -8.889 -21.831  0.00  0.00    -0.003 C 
ATOM     17  C   UNL     1      32.389  -7.863 -22.271  0.00  0.00    +0.004 C 
ATOM     18  C   UNL     1      30.835 -11.271 -21.801  0.00  0.00    +0.032 C 
BRANCH  15  21
ATOM     19  O   UNL     1      35.441  -6.953 -23.166  0.00  0.00    -0.270 OA
ATOM     20  N   UNL     1      33.785  -6.213 -24.610  0.00  0.00    -0.299 N 
ATOM     21  C   UNL     1      34.292  -7.070 -23.627  0.00  0.00    +0.246 C 
ATOM     22  C   UNL     1      34.537  -5.120 -25.182  0.00  0.00    +0.111 C 
ATOM     23  H   UNL     1      32.866  -6.364 -24.931  0.00  0.00    +0.150 HD
ENDBRANCH  15  21
ENDBRANCH  10  12
BRANCH   1  24
ATOM     24  C   UNL     1      34.495 -17.573 -23.736  0.00  0.00    +0.075 C 
ATOM     25  C   UNL     1      33.942 -18.627 -24.464  0.00  0.00    +0.017 C 
ATOM     26  C   UNL     1      35.463 -17.830 -22.764  0.00  0.00    +0.017 C 
ATOM     27  C   UNL     1      34.356 -19.937 -24.219  0.00  0.00    +0.001 C 
ATOM     28  C   UNL     1      35.876 -19.139 -22.519  0.00  0.00    +0.001 C 
ATOM     29  C   UNL     1      35.322 -20.193 -23.247  0.00  0.00    +0.000 C 
ENDBRANCH   1  24
TORSDOF 3
ENDMDL
MODEL 7
REMARK VINA RESULT:      -9.4      4.648     11.887
REMARK  Name = 23400214
REMARK  3 active torsions:
REMARK  status: ('A' for Active; 'I' for Inactive)
REMARK    1  A    between atoms: N_1  and  C_10
REMARK    2  A    between atoms: N_16  and  C_18
REMARK    3  A    between atoms: C_21  and  C_27
REMARK                            x       y       z     vdW  Elec       q    Type
REMARK                         _______ _______ _______ _____ _____    ______ ____
ROOT
ATOM      1  N   UNL     1      35.182 -22.343 -17.852  0.00  0.00    -0.176 N 
ATOM      2  N   UNL     1      36.491 -22.136 -18.090  0.00  0.00    -0.175 NA
ATOM      3  N   UNL     1      33.019 -21.678 -18.712  0.00  0.00    -0.231 NA
ATOM      4  N   UNL     1      33.229 -20.155 -20.606  0.00  0.00    -0.233 NA
ATOM      5  C   UNL     1      35.192 -20.969 -19.564  0.00  0.00    +0.152 C 
ATOM      6  C   UNL     1      34.361 -21.668 -18.706  0.00  0.00    +0.141 C 
ATOM      7  C   UNL     1      34.582 -20.191 -20.542  0.00  0.00    +0.118 C 
ATOM      8  C   UNL     1      36.491 -21.300 -19.133  0.00  0.00    +0.106 C 
ATOM      9  C   UNL     1      32.541 -20.890 -19.700  0.00  0.00    +0.253 C 
ATOM     10  N   UNL     1      35.350 -19.448 -21.456  0.00  0.00    -0.301 N 
ATOM     11  H   UNL     1      36.320 -19.543 -21.325  0.00  0.00    +0.153 HD
ENDROOT
BRANCH  10  12
ATOM     12  C   UNL     1      35.004 -18.593 -22.525  0.00  0.00    +0.045 C 
ATOM     13  C   UNL     1      34.747 -19.107 -23.795  0.00  0.00    -0.008 C 
ATOM     14  C   UNL     1      34.919 -17.220 -22.298  0.00  0.00    +0.019 C 
ATOM     15  C   UNL     1      34.579 -16.360 -23.343  0.00  0.00    +0.055 C 
ATOM     16  C   UNL     1      34.408 -18.248 -24.841  0.00  0.00    -0.003 C 
ATOM     17  C   UNL     1      34.323 -16.874 -24.614  0.00  0.00    +0.004 C 
ATOM     18  C   UNL     1      34.831 -20.575 -24.068  0.00  0.00    +0.032 C 
BRANCH  15  21
ATOM     19  O   UNL     1      34.988 -14.425 -22.083  0.00  0.00    -0.270 OA
ATOM     20  N   UNL     1      33.849 -14.160 -24.085  0.00  0.00    -0.299 N 
ATOM     21  C   UNL     1      34.491 -14.927 -23.107  0.00  0.00    +0.246 C 
ATOM     22  C   UNL     1      33.703 -12.725 -24.005  0.00  0.00    +0.111 C 
ATOM     23  H   UNL     1      33.478 -14.622 -24.871  0.00  0.00    +0.150 HD
ENDBRANCH  15  21
ENDBRANCH  10  12
BRANCH   1  24
ATOM     24  C   UNL     1      34.783 -23.181 -16.813  0.00  0.00    +0.075 C 
ATOM     25  C   UNL     1      33.441 -23.534 -16.677  0.00  0.00    +0.017 C 
ATOM     26  C   UNL     1      35.727 -23.667 -15.907  0.00  0.00    +0.017 C 
ATOM     27  C   UNL     1      33.041 -24.372 -15.636  0.00  0.00    +0.001 C 
ATOM     28  C   UNL     1      35.328 -24.505 -14.867  0.00  0.00    +0.001 C 
ATOM     29  C   UNL     1      33.984 -24.858 -14.731  0.00  0.00    +0.000 C 
ENDBRANCH   1  24
TORSDOF 3
ENDMDL
MODEL 8
REMARK VINA RESULT:      -9.3      2.555      4.279
REMARK  Name = 23400214
REMARK  3 active torsions:
REMARK  status: ('A' for Active; 'I' for Inactive)
REMARK    1  A    between atoms: N_1  and  C_10
REMARK    2  A    between atoms: N_16  and  C_18
REMARK    3  A    between atoms: C_21  and  C_27
REMARK                            x       y       z     vdW  Elec       q    Type
REMARK                         _______ _______ _______ _____ _____    ______ ____
ROOT
ATOM      1  N   UNL     1      32.539  -6.321 -24.872  0.00  0.00    -0.176 N 
ATOM      2  N   UNL     1      31.213  -6.515 -24.741  0.00  0.00    -0.175 NA
ATOM      3  N   UNL     1      34.631  -7.423 -24.352  0.00  0.00    -0.231 NA
ATOM      4  N   UNL     1      34.271  -9.565 -23.241  0.00  0.00    -0.233 NA
ATOM      5  C   UNL     1      32.393  -8.267 -23.867  0.00  0.00    +0.152 C 
ATOM      6  C   UNL     1      33.291  -7.339 -24.366  0.00  0.00    +0.141 C 
ATOM      7  C   UNL     1      32.925  -9.413 -23.289  0.00  0.00    +0.118 C 
ATOM      8  C   UNL     1      31.131  -7.702 -24.130  0.00  0.00    +0.106 C 
ATOM      9  C   UNL     1      35.029  -8.574 -23.768  0.00  0.00    +0.253 C 
ATOM     10  N   UNL     1      32.087 -10.409 -22.757  0.00  0.00    -0.301 N 
ATOM     11  H   UNL     1      31.128 -10.204 -22.841  0.00  0.00    +0.153 HD
ENDROOT
BRANCH  10  12
ATOM     12  C   UNL     1      32.347 -11.645 -22.126  0.00  0.00    +0.045 C 
ATOM     13  C   UNL     1      31.902 -11.890 -20.828  0.00  0.00    -0.008 C 
ATOM     14  C   UNL     1      33.058 -12.626 -22.817  0.00  0.00    +0.019 C 
ATOM     15  C   UNL     1      33.325 -13.853 -22.208  0.00  0.00    +0.055 C 
ATOM     16  C   UNL     1      32.169 -13.117 -20.218  0.00  0.00    -0.003 C 
ATOM     17  C   UNL     1      32.880 -14.099 -20.910  0.00  0.00    +0.004 C 
ATOM     18  C   UNL     1      31.138 -10.858 -20.063  0.00  0.00    +0.032 C 
BRANCH  15  21
ATOM     19  O   UNL     1      35.158 -15.287 -22.495  0.00  0.00    -0.270 OA
ATOM     20  N   UNL     1      33.486 -15.377 -24.099  0.00  0.00    -0.299 N 
ATOM     21  C   UNL     1      34.066 -14.876 -22.928  0.00  0.00    +0.246 C 
ATOM     22  C   UNL     1      34.087 -16.410 -24.910  0.00  0.00    +0.111 C 
ATOM     23  H   UNL     1      32.620 -15.007 -24.384  0.00  0.00    +0.150 HD
ENDBRANCH  15  21
ENDBRANCH  10  12
BRANCH   1  24
ATOM     24  C   UNL     1      33.019  -5.162 -25.479  0.00  0.00    +0.075 C 
ATOM     25  C   UNL     1      32.805  -3.921 -24.880  0.00  0.00    +0.017 C 
ATOM     26  C   UNL     1      33.713  -5.243 -26.687  0.00  0.00    +0.017 C 
ATOM     27  C   UNL     1      33.285  -2.760 -25.489  0.00  0.00    +0.001 C 
ATOM     28  C   UNL     1      34.193  -4.084 -27.295  0.00  0.00    +0.001 C 
ATOM     29  C   UNL     1      33.979  -2.841 -26.696  0.00  0.00    +0.000 C 
ENDBRANCH   1  24
TORSDOF 3
ENDMDL
MODEL 9
REMARK VINA RESULT:      -9.3      2.856      9.089
REMARK  Name = 23400214
REMARK  3 active torsions:
REMARK  status: ('A' for Active; 'I' for Inactive)
REMARK    1  A    between atoms: N_1  and  C_10
REMARK    2  A    between atoms: N_16  and  C_18
REMARK    3  A    between atoms: C_21  and  C_27
REMARK                            x       y       z     vdW  Elec       q    Type
REMARK                         _______ _______ _______ _____ _____    ______ ____
ROOT
ATOM      1  N   UNL     1      34.569 -15.903 -22.129  0.00  0.00    -0.176 N 
ATOM      2  N   UNL     1      34.752 -15.397 -20.895  0.00  0.00    -0.175 NA
ATOM      3  N   UNL     1      33.860 -15.195 -24.332  0.00  0.00    -0.231 NA
ATOM      4  N   UNL     1      33.287 -12.824 -24.377  0.00  0.00    -0.233 NA
ATOM      5  C   UNL     1      34.017 -13.790 -22.343  0.00  0.00    +0.152 C 
ATOM      6  C   UNL     1      34.130 -14.984 -23.034  0.00  0.00    +0.141 C 
ATOM      7  C   UNL     1      33.578 -12.683 -23.062  0.00  0.00    +0.118 C 
ATOM      8  C   UNL     1      34.415 -14.110 -21.032  0.00  0.00    +0.106 C 
ATOM      9  C   UNL     1      33.444 -14.053 -24.923  0.00  0.00    +0.253 C 
ATOM     10  N   UNL     1      33.434 -11.430 -22.440  0.00  0.00    -0.301 N 
ATOM     11  H   UNL     1      33.670 -11.434 -21.484  0.00  0.00    +0.153 HD
ENDROOT
BRANCH  10  12
ATOM     12  C   UNL     1      33.018 -10.167 -22.914  0.00  0.00    +0.045 C 
ATOM     13  C   UNL     1      31.693  -9.755 -22.775  0.00  0.00    -0.008 C 
ATOM     14  C   UNL     1      33.949  -9.329 -23.526  0.00  0.00    +0.019 C 
ATOM     15  C   UNL     1      33.554  -8.077 -24.001  0.00  0.00    +0.055 C 
ATOM     16  C   UNL     1      31.298  -8.504 -23.250  0.00  0.00    -0.003 C 
ATOM     17  C   UNL     1      32.230  -7.665 -23.863  0.00  0.00    +0.004 C 
ATOM     18  C   UNL     1      30.673 -10.632 -22.123  0.00  0.00    +0.032 C 
BRANCH  15  21
ATOM     19  O   UNL     1      35.417  -6.654 -23.968  0.00  0.00    -0.270 OA
ATOM     20  N   UNL     1      34.417  -7.036 -26.025  0.00  0.00    -0.299 N 
ATOM     21  C   UNL     1      34.526  -7.203 -24.640  0.00  0.00    +0.246 C 
ATOM     22  C   UNL     1      35.319  -6.219 -26.804  0.00  0.00    +0.111 C 
ATOM     23  H   UNL     1      33.687  -7.500 -26.494  0.00  0.00    +0.150 HD
ENDBRANCH  15  21
ENDBRANCH  10  12
BRANCH   1  24
ATOM     24  C   UNL     1      34.826 -17.250 -22.377  0.00  0.00    +0.075 C 
ATOM     25  C   UNL     1      34.569 -17.788 -23.638  0.00  0.00    +0.017 C 
ATOM     26  C   UNL     1      35.341 -18.061 -21.366  0.00  0.00    +0.017 C 
ATOM     27  C   UNL     1      34.826 -19.136 -23.888  0.00  0.00    +0.001 C 
ATOM     28  C   UNL     1      35.597 -19.409 -21.614  0.00  0.00    +0.001 C 
ATOM     29  C   UNL     1      35.340 -19.947 -22.876  0.00  0.00    +0.000 C 
ENDBRANCH   1  24
TORSDOF 3
ENDMDL
