MODEL 1
REMARK VINA RESULT:     -11.7      0.000      0.000
REMARK  Name = 25134248
REMARK  7 active torsions:
REMARK  status: ('A' for Active; 'I' for Inactive)
REMARK    1  A    between atoms: N_2  and  C_20
REMARK    2  A    between atoms: C_3  and  C_7
REMARK    3  A    between atoms: C_11  and  C_12
REMARK    4  A    between atoms: C_12  and  C_13
REMARK    5  A    between atoms: C_13  and  C_14
REMARK    6  A    between atoms: C_20  and  C_21
REMARK    7  A    between atoms: C_26  and  C_29
REMARK                            x       y       z     vdW  Elec       q    Type
REMARK                         _______ _______ _______ _____ _____    ______ ____
ROOT
ATOM      1  O   UNL     1      34.912 -23.947 -12.878  0.00  0.00    -0.273 OA
ATOM      2  N   UNL     1      33.462 -25.415 -13.955  0.00  0.00    -0.299 N 
ATOM      3  C   UNL     1      34.666 -24.758 -13.767  0.00  0.00    +0.241 C 
ATOM      4  H   UNL     1      33.386 -26.046 -14.708  0.00  0.00    +0.150 HD
ENDROOT
BRANCH   3   7
ATOM      5  O   UNL     1      37.104 -22.060 -16.160  0.00  0.00    -0.275 OA
ATOM      6  N   UNL     1      36.549 -24.004 -15.040  0.00  0.00    -0.273 N 
ATOM      7  C   UNL     1      35.697 -25.160 -14.778  0.00  0.00    +0.152 C 
ATOM      8  C   UNL     1      36.643 -26.207 -14.196  0.00  0.00    +0.031 C 
ATOM      9  C   UNL     1      37.855 -24.162 -14.413  0.00  0.00    +0.094 C 
ATOM     10  C   UNL     1      37.713 -25.370 -13.501  0.00  0.00    +0.024 C 
ATOM     11  C   UNL     1      36.283 -22.936 -15.882  0.00  0.00    +0.226 C 
BRANCH  11  12
ATOM     12  C   UNL     1      34.895 -22.885 -16.470  0.00  0.00    +0.085 C 
BRANCH  12  13
ATOM     13  C   UNL     1      34.953 -23.035 -17.981  0.00  0.00    +0.010 C 
BRANCH  13  14
ATOM     14  C   UNL     1      34.682 -21.725 -18.718  0.00  0.00    +0.000 C 
ATOM     15  C   UNL     1      35.786 -21.443 -19.746  0.00  0.00    +0.000 C 
ATOM     16  C   UNL     1      33.304 -21.758 -19.393  0.00  0.00    +0.000 C 
ATOM     17  C   UNL     1      35.510 -20.166 -20.534  0.00  0.00    +0.000 C 
ATOM     18  C   UNL     1      33.032 -20.479 -20.182  0.00  0.00    +0.000 C 
ATOM     19  C   UNL     1      34.137 -20.198 -21.195  0.00  0.00    +0.000 C 
ENDBRANCH  13  14
ENDBRANCH  12  13
ENDBRANCH  11  12
ENDBRANCH   3   7
BRANCH   2  20
ATOM     20  C   UNL     1      32.313 -25.221 -13.100  0.00  0.00    +0.116 C 
BRANCH  20  21
ATOM     21  C   UNL     1      31.125 -24.711 -13.863  0.00  0.00    -0.003 C 
ATOM     22  C   UNL     1      31.022 -23.353 -14.165  0.00  0.00    -0.003 C 
ATOM     23  C   UNL     1      30.126 -25.593 -14.271  0.00  0.00    -0.003 C 
ATOM     24  C   UNL     1      29.919 -22.878 -14.875  0.00  0.00    +0.002 C 
ATOM     25  C   UNL     1      29.022 -25.119 -14.980  0.00  0.00    +0.002 C 
ATOM     26  C   UNL     1      28.920 -23.761 -15.283  0.00  0.00    +0.031 C 
BRANCH  26  29
ATOM     27  N   UNL     1      26.786 -22.497 -15.405  0.00  0.00    -0.343 N 
ATOM     28  N   UNL     1      27.644 -23.546 -17.309  0.00  0.00    -0.285 NA
ATOM     29  C   UNL     1      27.770 -23.266 -16.024  0.00  0.00    +0.117 C 
ATOM     30  H   UNL     1      26.017 -22.172 -15.926  0.00  0.00    +0.144 HD
ATOM     31  H   UNL     1      26.860 -22.280 -14.448  0.00  0.00    +0.144 HD
ATOM     32  H   UNL     1      26.867 -23.211 -17.812  0.00  0.00    +0.188 HD
ENDBRANCH  26  29
ENDBRANCH  20  21
ENDBRANCH   2  20
TORSDOF 7
ENDMDL
MODEL 2
REMARK VINA RESULT:     -11.6      2.730      6.509
REMARK  Name = 25134248
REMARK  7 active torsions:
REMARK  status: ('A' for Active; 'I' for Inactive)
REMARK    1  A    between atoms: N_2  and  C_20
REMARK    2  A    between atoms: C_3  and  C_7
REMARK    3  A    between atoms: C_11  and  C_12
REMARK    4  A    between atoms: C_12  and  C_13
REMARK    5  A    between atoms: C_13  and  C_14
REMARK    6  A    between atoms: C_20  and  C_21
REMARK    7  A    between atoms: C_26  and  C_29
REMARK                            x       y       z     vdW  Elec       q    Type
REMARK                         _______ _______ _______ _____ _____    ______ ____
ROOT
ATOM      1  O   UNL     1      35.040 -25.151 -15.730  0.00  0.00    -0.273 OA
ATOM      2  N   UNL     1      34.621 -22.975 -16.442  0.00  0.00    -0.299 N 
ATOM      3  C   UNL     1      35.086 -23.936 -15.560  0.00  0.00    +0.241 C 
ATOM      4  H   UNL     1      34.714 -22.027 -16.193  0.00  0.00    +0.150 HD
ENDROOT
BRANCH   3   7
ATOM      5  O   UNL     1      34.616 -25.376 -11.479  0.00  0.00    -0.275 OA
ATOM      6  N   UNL     1      35.641 -24.322 -13.262  0.00  0.00    -0.273 N 
ATOM      7  C   UNL     1      35.700 -23.331 -14.333  0.00  0.00    +0.152 C 
ATOM      8  C   UNL     1      37.191 -23.084 -14.542  0.00  0.00    +0.031 C 
ATOM      9  C   UNL     1      36.955 -24.896 -13.005  0.00  0.00    +0.094 C 
ATOM     10  C   UNL     1      37.829 -24.415 -14.153  0.00  0.00    +0.024 C 
ATOM     11  C   UNL     1      34.557 -24.622 -12.452  0.00  0.00    +0.226 C 
BRANCH  11  12
ATOM     12  C   UNL     1      33.251 -23.965 -12.822  0.00  0.00    +0.085 C 
BRANCH  12  13
ATOM     13  C   UNL     1      32.177 -25.014 -13.060  0.00  0.00    +0.010 C 
BRANCH  13  14
ATOM     14  C   UNL     1      31.370 -24.759 -14.330  0.00  0.00    +0.000 C 
ATOM     15  C   UNL     1      29.900 -25.151 -14.127  0.00  0.00    +0.000 C 
ATOM     16  C   UNL     1      31.489 -23.291 -14.763  0.00  0.00    +0.000 C 
ATOM     17  C   UNL     1      29.060 -24.854 -15.367  0.00  0.00    +0.000 C 
ATOM     18  C   UNL     1      30.647 -22.999 -16.002  0.00  0.00    +0.000 C 
ATOM     19  C   UNL     1      29.189 -23.398 -15.799  0.00  0.00    +0.000 C 
ENDBRANCH  13  14
ENDBRANCH  12  13
ENDBRANCH  11  12
ENDBRANCH   3   7
BRANCH   2  20
ATOM     20  C   UNL     1      34.007 -23.297 -17.710  0.00  0.00    +0.116 C 
BRANCH  20  21
ATOM     21  C   UNL     1      34.238 -22.223 -18.734  0.00  0.00    -0.003 C 
ATOM     22  C   UNL     1      35.538 -21.889 -19.112  0.00  0.00    -0.003 C 
ATOM     23  C   UNL     1      33.153 -21.562 -19.309  0.00  0.00    -0.003 C 
ATOM     24  C   UNL     1      35.754 -20.893 -20.064  0.00  0.00    +0.002 C 
ATOM     25  C   UNL     1      33.368 -20.566 -20.261  0.00  0.00    +0.002 C 
ATOM     26  C   UNL     1      34.668 -20.232 -20.639  0.00  0.00    +0.031 C 
BRANCH  26  29
ATOM     27  N   UNL     1      35.373 -17.936 -21.272  0.00  0.00    -0.343 N 
ATOM     28  N   UNL     1      34.638 -19.435 -22.907  0.00  0.00    -0.285 NA
ATOM     29  C   UNL     1      34.893 -19.194 -21.633  0.00  0.00    +0.117 C 
ATOM     30  H   UNL     1      35.518 -17.248 -21.961  0.00  0.00    +0.144 HD
ATOM     31  H   UNL     1      35.566 -17.736 -20.327  0.00  0.00    +0.144 HD
ATOM     32  H   UNL     1      34.790 -18.734 -23.581  0.00  0.00    +0.188 HD
ENDBRANCH  26  29
ENDBRANCH  20  21
ENDBRANCH   2  20
TORSDOF 7
ENDMDL
MODEL 3
REMARK VINA RESULT:     -10.7      8.538     12.390
REMARK  Name = 25134248
REMARK  7 active torsions:
REMARK  status: ('A' for Active; 'I' for Inactive)
REMARK    1  A    between atoms: N_2  and  C_20
REMARK    2  A    between atoms: C_3  and  C_7
REMARK    3  A    between atoms: C_11  and  C_12
REMARK    4  A    between atoms: C_12  and  C_13
REMARK    5  A    between atoms: C_13  and  C_14
REMARK    6  A    between atoms: C_20  and  C_21
REMARK    7  A    between atoms: C_26  and  C_29
REMARK                            x       y       z     vdW  Elec       q    Type
REMARK                         _______ _______ _______ _____ _____    ______ ____
ROOT
ATOM      1  O   UNL     1      34.275 -15.132 -20.734  0.00  0.00    -0.273 OA
ATOM      2  N   UNL     1      32.898 -13.815 -22.071  0.00  0.00    -0.299 N 
ATOM      3  C   UNL     1      33.978 -14.646 -21.821  0.00  0.00    +0.241 C 
ATOM      4  H   UNL     1      32.762 -13.487 -22.990  0.00  0.00    +0.150 HD
ENDROOT
BRANCH   3   7
ATOM      5  O   UNL     1      34.329 -18.497 -23.819  0.00  0.00    -0.275 OA
ATOM      6  N   UNL     1      34.305 -16.195 -23.618  0.00  0.00    -0.273 N 
ATOM      7  C   UNL     1      34.773 -14.930 -23.060  0.00  0.00    +0.152 C 
ATOM      8  C   UNL     1      34.469 -13.899 -24.144  0.00  0.00    +0.031 C 
ATOM      9  C   UNL     1      33.500 -15.976 -24.812  0.00  0.00    +0.094 C 
ATOM     10  C   UNL     1      33.246 -14.478 -24.849  0.00  0.00    +0.024 C 
ATOM     11  C   UNL     1      34.658 -17.474 -23.216  0.00  0.00    +0.226 C 
BRANCH  11  12
ATOM     12  C   UNL     1      35.495 -17.569 -21.965  0.00  0.00    +0.085 C 
BRANCH  12  13
ATOM     13  C   UNL     1      36.039 -18.978 -21.796  0.00  0.00    +0.010 C 
BRANCH  13  14
ATOM     14  C   UNL     1      35.457 -19.696 -20.580  0.00  0.00    +0.000 C 
ATOM     15  C   UNL     1      34.054 -20.235 -20.888  0.00  0.00    +0.000 C 
ATOM     16  C   UNL     1      36.388 -20.827 -20.122  0.00  0.00    +0.000 C 
ATOM     17  C   UNL     1      33.472 -21.004 -19.705  0.00  0.00    +0.000 C 
ATOM     18  C   UNL     1      35.802 -21.595 -18.940  0.00  0.00    +0.000 C 
ATOM     19  C   UNL     1      34.404 -22.121 -19.247  0.00  0.00    +0.000 C 
ENDBRANCH  13  14
ENDBRANCH  12  13
ENDBRANCH  11  12
ENDBRANCH   3   7
BRANCH   2  20
ATOM     20  C   UNL     1      31.961 -13.409 -21.049  0.00  0.00    +0.116 C 
BRANCH  20  21
ATOM     21  C   UNL     1      32.015 -11.930 -20.794  0.00  0.00    -0.003 C 
ATOM     22  C   UNL     1      31.991 -11.448 -19.485  0.00  0.00    -0.003 C 
ATOM     23  C   UNL     1      32.092 -11.039 -21.863  0.00  0.00    -0.003 C 
ATOM     24  C   UNL     1      32.042 -10.075 -19.246  0.00  0.00    +0.002 C 
ATOM     25  C   UNL     1      32.143  -9.665 -21.625  0.00  0.00    +0.002 C 
ATOM     26  C   UNL     1      32.119  -9.183 -20.316  0.00  0.00    +0.031 C 
BRANCH  26  29
ATOM     27  N   UNL     1      31.317  -6.868 -20.722  0.00  0.00    -0.343 N 
ATOM     28  N   UNL     1      33.051  -7.266 -19.206  0.00  0.00    -0.285 NA
ATOM     29  C   UNL     1      32.174  -7.752 -20.067  0.00  0.00    +0.117 C 
ATOM     30  H   UNL     1      31.372  -5.903 -20.538  0.00  0.00    +0.144 HD
ATOM     31  H   UNL     1      30.659  -7.210 -21.369  0.00  0.00    +0.144 HD
ATOM     32  H   UNL     1      33.089  -6.297 -19.036  0.00  0.00    +0.188 HD
ENDBRANCH  26  29
ENDBRANCH  20  21
ENDBRANCH   2  20
TORSDOF 7
ENDMDL
MODEL 4
REMARK VINA RESULT:     -10.7      3.219      7.507
REMARK  Name = 25134248
REMARK  7 active torsions:
REMARK  status: ('A' for Active; 'I' for Inactive)
REMARK    1  A    between atoms: N_2  and  C_20
REMARK    2  A    between atoms: C_3  and  C_7
REMARK    3  A    between atoms: C_11  and  C_12
REMARK    4  A    between atoms: C_12  and  C_13
REMARK    5  A    between atoms: C_13  and  C_14
REMARK    6  A    between atoms: C_20  and  C_21
REMARK    7  A    between atoms: C_26  and  C_29
REMARK                            x       y       z     vdW  Elec       q    Type
REMARK                         _______ _______ _______ _____ _____    ______ ____
ROOT
ATOM      1  O   UNL     1      34.413 -23.629 -17.247  0.00  0.00    -0.273 OA
ATOM      2  N   UNL     1      35.957 -22.064 -18.011  0.00  0.00    -0.299 N 
ATOM      3  C   UNL     1      35.281 -22.786 -17.042  0.00  0.00    +0.241 C 
ATOM      4  H   UNL     1      36.636 -21.411 -17.721  0.00  0.00    +0.150 HD
ENDROOT
BRANCH   3   7
ATOM      5  O   UNL     1      34.517 -25.107 -13.440  0.00  0.00    -0.275 OA
ATOM      6  N   UNL     1      35.641 -23.649 -14.837  0.00  0.00    -0.273 N 
ATOM      7  C   UNL     1      35.742 -22.445 -15.656  0.00  0.00    +0.152 C 
ATOM      8  C   UNL     1      37.230 -22.105 -15.652  0.00  0.00    +0.031 C 
ATOM      9  C   UNL     1      36.956 -24.218 -14.575  0.00  0.00    +0.094 C 
ATOM     10  C   UNL     1      37.904 -23.465 -15.495  0.00  0.00    +0.024 C 
ATOM     11  C   UNL     1      34.505 -24.160 -14.228  0.00  0.00    +0.226 C 
BRANCH  11  12
ATOM     12  C   UNL     1      33.204 -23.484 -14.579  0.00  0.00    +0.085 C 
BRANCH  12  13
ATOM     13  C   UNL     1      32.248 -23.526 -13.399  0.00  0.00    +0.010 C 
BRANCH  13  14
ATOM     14  C   UNL     1      30.800 -23.774 -13.816  0.00  0.00    +0.000 C 
ATOM     15  C   UNL     1      30.478 -23.037 -15.123  0.00  0.00    +0.000 C 
ATOM     16  C   UNL     1      30.526 -25.278 -13.955  0.00  0.00    +0.000 C 
ATOM     17  C   UNL     1      29.051 -23.313 -15.589  0.00  0.00    +0.000 C 
ATOM     18  C   UNL     1      29.099 -25.549 -14.423  0.00  0.00    +0.000 C 
ATOM     19  C   UNL     1      28.780 -24.808 -15.718  0.00  0.00    +0.000 C 
ENDBRANCH  13  14
ENDBRANCH  12  13
ENDBRANCH  11  12
ENDBRANCH   3   7
BRANCH   2  20
ATOM     20  C   UNL     1      35.716 -22.223 -19.427  0.00  0.00    +0.116 C 
BRANCH  20  21
ATOM     21  C   UNL     1      35.591 -20.901 -20.128  0.00  0.00    -0.003 C 
ATOM     22  C   UNL     1      34.351 -20.482 -20.610  0.00  0.00    -0.003 C 
ATOM     23  C   UNL     1      36.713 -20.090 -20.294  0.00  0.00    -0.003 C 
ATOM     24  C   UNL     1      34.234 -19.254 -21.260  0.00  0.00    +0.002 C 
ATOM     25  C   UNL     1      36.597 -18.862 -20.944  0.00  0.00    +0.002 C 
ATOM     26  C   UNL     1      35.357 -18.443 -21.427  0.00  0.00    +0.031 C 
BRANCH  26  29
ATOM     27  N   UNL     1      34.938 -15.995 -21.401  0.00  0.00    -0.343 N 
ATOM     28  N   UNL     1      35.403 -17.090 -23.412  0.00  0.00    -0.285 NA
ATOM     29  C   UNL     1      35.235 -17.162 -22.104  0.00  0.00    +0.117 C 
ATOM     30  H   UNL     1      34.860 -15.139 -21.879  0.00  0.00    +0.144 HD
ATOM     31  H   UNL     1      34.806 -16.029 -20.426  0.00  0.00    +0.144 HD
ATOM     32  H   UNL     1      35.321 -16.223 -23.873  0.00  0.00    +0.188 HD
ENDBRANCH  26  29
ENDBRANCH  20  21
ENDBRANCH   2  20
TORSDOF 7
ENDMDL
MODEL 5
REMARK VINA RESULT:     -10.3      2.496      6.185
REMARK  Name = 25134248
REMARK  7 active torsions:
REMARK  status: ('A' for Active; 'I' for Inactive)
REMARK    1  A    between atoms: N_2  and  C_20
REMARK    2  A    between atoms: C_3  and  C_7
REMARK    3  A    between atoms: C_11  and  C_12
REMARK    4  A    between atoms: C_12  and  C_13
REMARK    5  A    between atoms: C_13  and  C_14
REMARK    6  A    between atoms: C_20  and  C_21
REMARK    7  A    between atoms: C_26  and  C_29
REMARK                            x       y       z     vdW  Elec       q    Type
REMARK                         _______ _______ _______ _____ _____    ______ ____
ROOT
ATOM      1  O   UNL     1      36.772 -24.850 -15.004  0.00  0.00    -0.273 OA
ATOM      2  N   UNL     1      36.933 -22.565 -15.419  0.00  0.00    -0.299 N 
ATOM      3  C   UNL     1      36.645 -23.681 -14.651  0.00  0.00    +0.241 C 
ATOM      4  H   UNL     1      36.789 -21.674 -15.023  0.00  0.00    +0.150 HD
ENDROOT
BRANCH   3   7
ATOM      5  O   UNL     1      33.008 -25.123 -12.743  0.00  0.00    -0.275 OA
ATOM      6  N   UNL     1      35.164 -24.303 -12.875  0.00  0.00    -0.273 N 
ATOM      7  C   UNL     1      36.162 -23.317 -13.279  0.00  0.00    +0.152 C 
ATOM      8  C   UNL     1      37.284 -23.468 -12.256  0.00  0.00    +0.031 C 
ATOM      9  C   UNL     1      35.704 -25.217 -11.877  0.00  0.00    +0.094 C 
ATOM     10  C   UNL     1      37.198 -24.936 -11.850  0.00  0.00    +0.024 C 
ATOM     11  C   UNL     1      33.825 -24.339 -13.229  0.00  0.00    +0.226 C 
BRANCH  11  12
ATOM     12  C   UNL     1      33.388 -23.341 -14.272  0.00  0.00    +0.085 C 
BRANCH  12  13
ATOM     13  C   UNL     1      32.553 -24.024 -15.342  0.00  0.00    +0.010 C 
BRANCH  13  14
ATOM     14  C   UNL     1      31.051 -23.843 -15.129  0.00  0.00    +0.000 C 
ATOM     15  C   UNL     1      30.445 -22.985 -16.247  0.00  0.00    +0.000 C 
ATOM     16  C   UNL     1      30.348 -25.203 -15.042  0.00  0.00    +0.000 C 
ATOM     17  C   UNL     1      28.934 -22.833 -16.086  0.00  0.00    +0.000 C 
ATOM     18  C   UNL     1      28.838 -25.048 -14.882  0.00  0.00    +0.000 C 
ATOM     19  C   UNL     1      28.240 -24.187 -15.991  0.00  0.00    +0.000 C 
ENDBRANCH  13  14
ENDBRANCH  12  13
ENDBRANCH  11  12
ENDBRANCH   3   7
BRANCH   2  20
ATOM     20  C   UNL     1      37.437 -22.644 -16.771  0.00  0.00    +0.116 C 
BRANCH  20  21
ATOM     21  C   UNL     1      36.449 -22.116 -17.770  0.00  0.00    -0.003 C 
ATOM     22  C   UNL     1      35.105 -22.482 -17.683  0.00  0.00    -0.003 C 
ATOM     23  C   UNL     1      36.872 -21.257 -18.784  0.00  0.00    -0.003 C 
ATOM     24  C   UNL     1      34.186 -21.991 -18.610  0.00  0.00    +0.002 C 
ATOM     25  C   UNL     1      35.954 -20.766 -19.712  0.00  0.00    +0.002 C 
ATOM     26  C   UNL     1      34.610 -21.132 -19.624  0.00  0.00    +0.031 C 
BRANCH  26  29
ATOM     27  N   UNL     1      34.067 -19.922 -21.723  0.00  0.00    -0.343 N 
ATOM     28  N   UNL     1      32.358 -20.810 -20.399  0.00  0.00    -0.285 NA
ATOM     29  C   UNL     1      33.652 -20.620 -20.590  0.00  0.00    +0.117 C 
ATOM     30  H   UNL     1      33.401 -19.584 -22.364  0.00  0.00    +0.144 HD
ATOM     31  H   UNL     1      35.026 -19.766 -21.881  0.00  0.00    +0.144 HD
ATOM     32  H   UNL     1      31.708 -20.464 -21.052  0.00  0.00    +0.188 HD
ENDBRANCH  26  29
ENDBRANCH  20  21
ENDBRANCH   2  20
TORSDOF 7
ENDMDL
MODEL 6
REMARK VINA RESULT:      -9.7      3.156      7.717
REMARK  Name = 25134248
REMARK  7 active torsions:
REMARK  status: ('A' for Active; 'I' for Inactive)
REMARK    1  A    between atoms: N_2  and  C_20
REMARK    2  A    between atoms: C_3  and  C_7
REMARK    3  A    between atoms: C_11  and  C_12
REMARK    4  A    between atoms: C_12  and  C_13
REMARK    5  A    between atoms: C_13  and  C_14
REMARK    6  A    between atoms: C_20  and  C_21
REMARK    7  A    between atoms: C_26  and  C_29
REMARK                            x       y       z     vdW  Elec       q    Type
REMARK                         _______ _______ _______ _____ _____    ______ ____
ROOT
ATOM      1  O   UNL     1      35.373 -22.328 -15.411  0.00  0.00    -0.273 OA
ATOM      2  N   UNL     1      35.467 -22.755 -17.697  0.00  0.00    -0.299 N 
ATOM      3  C   UNL     1      35.004 -22.945 -16.406  0.00  0.00    +0.241 C 
ATOM      4  H   UNL     1      35.093 -23.315 -18.416  0.00  0.00    +0.150 HD
ENDROOT
BRANCH   3   7
ATOM      5  O   UNL     1      33.366 -24.689 -12.770  0.00  0.00    -0.275 OA
ATOM      6  N   UNL     1      33.402 -24.007 -14.977  0.00  0.00    -0.273 N 
ATOM      7  C   UNL     1      33.945 -24.004 -16.333  0.00  0.00    +0.152 C 
ATOM      8  C   UNL     1      32.757 -23.640 -17.219  0.00  0.00    +0.031 C 
ATOM      9  C   UNL     1      32.074 -23.410 -14.943  0.00  0.00    +0.094 C 
ATOM     10  C   UNL     1      31.890 -22.772 -16.311  0.00  0.00    +0.024 C 
ATOM     11  C   UNL     1      33.946 -24.612 -13.855  0.00  0.00    +0.226 C 
BRANCH  11  12
ATOM     12  C   UNL     1      35.327 -25.194 -14.018  0.00  0.00    +0.085 C 
BRANCH  12  13
ATOM     13  C   UNL     1      36.220 -24.775 -12.863  0.00  0.00    +0.010 C 
BRANCH  13  14
ATOM     14  C   UNL     1      37.697 -24.716 -13.246  0.00  0.00    +0.000 C 
ATOM     15  C   UNL     1      38.405 -26.028 -12.880  0.00  0.00    +0.000 C 
ATOM     16  C   UNL     1      37.858 -24.408 -14.741  0.00  0.00    +0.000 C 
ATOM     17  C   UNL     1      39.872 -26.014 -13.302  0.00  0.00    +0.000 C 
ATOM     18  C   UNL     1      39.326 -24.397 -15.159  0.00  0.00    +0.000 C 
ATOM     19  C   UNL     1      40.028 -25.698 -14.785  0.00  0.00    +0.000 C 
ENDBRANCH  13  14
ENDBRANCH  12  13
ENDBRANCH  11  12
ENDBRANCH   3   7
BRANCH   2  20
ATOM     20  C   UNL     1      36.473 -21.776 -18.040  0.00  0.00    +0.116 C 
BRANCH  20  21
ATOM     21  C   UNL     1      36.081 -20.966 -19.242  0.00  0.00    -0.003 C 
ATOM     22  C   UNL     1      34.781 -21.046 -19.743  0.00  0.00    -0.003 C 
ATOM     23  C   UNL     1      37.014 -20.131 -19.856  0.00  0.00    -0.003 C 
ATOM     24  C   UNL     1      34.416 -20.293 -20.859  0.00  0.00    +0.002 C 
ATOM     25  C   UNL     1      36.650 -19.378 -20.972  0.00  0.00    +0.002 C 
ATOM     26  C   UNL     1      35.350 -19.459 -21.473  0.00  0.00    +0.031 C 
BRANCH  26  29
ATOM     27  N   UNL     1      35.416 -17.364 -22.805  0.00  0.00    -0.343 N 
ATOM     28  N   UNL     1      34.179 -19.198 -23.556  0.00  0.00    -0.285 NA
ATOM     29  C   UNL     1      34.968 -18.673 -22.636  0.00  0.00    +0.117 C 
ATOM     30  H   UNL     1      35.146 -16.850 -23.600  0.00  0.00    +0.144 HD
ATOM     31  H   UNL     1      36.002 -16.953 -22.129  0.00  0.00    +0.144 HD
ATOM     32  H   UNL     1      33.920 -18.669 -24.344  0.00  0.00    +0.188 HD
ENDBRANCH  26  29
ENDBRANCH  20  21
ENDBRANCH   2  20
TORSDOF 7
ENDMDL
MODEL 7
REMARK VINA RESULT:      -9.5     11.588     15.531
REMARK  Name = 25134248
REMARK  7 active torsions:
REMARK  status: ('A' for Active; 'I' for Inactive)
REMARK    1  A    between atoms: N_2  and  C_20
REMARK    2  A    between atoms: C_3  and  C_7
REMARK    3  A    between atoms: C_11  and  C_12
REMARK    4  A    between atoms: C_12  and  C_13
REMARK    5  A    between atoms: C_13  and  C_14
REMARK    6  A    between atoms: C_20  and  C_21
REMARK    7  A    between atoms: C_26  and  C_29
REMARK                            x       y       z     vdW  Elec       q    Type
REMARK                         _______ _______ _______ _____ _____    ______ ____
ROOT
ATOM      1  O   UNL     1      33.954 -11.604 -23.682  0.00  0.00    -0.273 OA
ATOM      2  N   UNL     1      32.855  -9.834 -22.644  0.00  0.00    -0.299 N 
ATOM      3  C   UNL     1      33.036 -11.160 -22.999  0.00  0.00    +0.241 C 
ATOM      4  H   UNL     1      32.075  -9.599 -22.090  0.00  0.00    +0.150 HD
ENDROOT
BRANCH   3   7
ATOM      5  O   UNL     1      33.691 -14.708 -20.563  0.00  0.00    -0.275 OA
ATOM      6  N   UNL     1      32.574 -12.852 -21.368  0.00  0.00    -0.273 N 
ATOM      7  C   UNL     1      31.972 -12.050 -22.429  0.00  0.00    +0.152 C 
ATOM      8  C   UNL     1      30.900 -11.224 -21.723  0.00  0.00    +0.031 C 
ATOM      9  C   UNL     1      32.155 -12.382 -20.054  0.00  0.00    +0.094 C 
ATOM     10  C   UNL     1      31.456 -11.056 -20.311  0.00  0.00    +0.024 C 
ATOM     11  C   UNL     1      33.326 -14.007 -21.509  0.00  0.00    +0.226 C 
BRANCH  11  12
ATOM     12  C   UNL     1      33.695 -14.389 -22.920  0.00  0.00    +0.085 C 
BRANCH  12  13
ATOM     13  C   UNL     1      34.880 -15.340 -22.920  0.00  0.00    +0.010 C 
BRANCH  13  14
ATOM     14  C   UNL     1      34.462 -16.809 -22.872  0.00  0.00    +0.000 C 
ATOM     15  C   UNL     1      34.486 -17.425 -24.277  0.00  0.00    +0.000 C 
ATOM     16  C   UNL     1      35.364 -17.598 -21.914  0.00  0.00    +0.000 C 
ATOM     17  C   UNL     1      34.123 -18.908 -24.248  0.00  0.00    +0.000 C 
ATOM     18  C   UNL     1      35.000 -19.080 -21.889  0.00  0.00    +0.000 C 
ATOM     19  C   UNL     1      35.015 -19.687 -23.289  0.00  0.00    +0.000 C 
ENDBRANCH  13  14
ENDBRANCH  12  13
ENDBRANCH  11  12
ENDBRANCH   3   7
BRANCH   2  20
ATOM     20  C   UNL     1      33.756  -8.779 -23.046  0.00  0.00    +0.116 C 
BRANCH  20  21
ATOM     21  C   UNL     1      33.179  -7.417 -22.784  0.00  0.00    -0.003 C 
ATOM     22  C   UNL     1      33.146  -6.467 -23.805  0.00  0.00    -0.003 C 
ATOM     23  C   UNL     1      32.675  -7.103 -21.523  0.00  0.00    -0.003 C 
ATOM     24  C   UNL     1      32.608  -5.203 -23.564  0.00  0.00    +0.002 C 
ATOM     25  C   UNL     1      32.138  -5.839 -21.281  0.00  0.00    +0.002 C 
ATOM     26  C   UNL     1      32.104  -4.888 -22.302  0.00  0.00    +0.031 C 
BRANCH  26  29
ATOM     27  N   UNL     1      30.537  -3.044 -22.860  0.00  0.00    -0.343 N 
ATOM     28  N   UNL     1      31.991  -2.846 -21.041  0.00  0.00    -0.285 NA
ATOM     29  C   UNL     1      31.544  -3.570 -22.051  0.00  0.00    +0.117 C 
ATOM     30  H   UNL     1      30.172  -2.150 -22.672  0.00  0.00    +0.144 HD
ATOM     31  H   UNL     1      30.193  -3.567 -23.619  0.00  0.00    +0.144 HD
ATOM     32  H   UNL     1      31.613  -1.953 -20.869  0.00  0.00    +0.188 HD
ENDBRANCH  26  29
ENDBRANCH  20  21
ENDBRANCH   2  20
TORSDOF 7
ENDMDL
MODEL 8
REMARK VINA RESULT:      -9.4      5.129      8.708
REMARK  Name = 25134248
REMARK  7 active torsions:
REMARK  status: ('A' for Active; 'I' for Inactive)
REMARK    1  A    between atoms: N_2  and  C_20
REMARK    2  A    between atoms: C_3  and  C_7
REMARK    3  A    between atoms: C_11  and  C_12
REMARK    4  A    between atoms: C_12  and  C_13
REMARK    5  A    between atoms: C_13  and  C_14
REMARK    6  A    between atoms: C_20  and  C_21
REMARK    7  A    between atoms: C_26  and  C_29
REMARK                            x       y       z     vdW  Elec       q    Type
REMARK                         _______ _______ _______ _____ _____    ______ ____
ROOT
ATOM      1  O   UNL     1      36.682 -18.360 -20.777  0.00  0.00    -0.273 OA
ATOM      2  N   UNL     1      35.561 -20.353 -20.344  0.00  0.00    -0.299 N 
ATOM      3  C   UNL     1      35.697 -19.085 -20.884  0.00  0.00    +0.241 C 
ATOM      4  H   UNL     1      34.718 -20.839 -20.498  0.00  0.00    +0.150 HD
ENDROOT
BRANCH   3   7
ATOM      5  O   UNL     1      35.274 -15.421 -23.196  0.00  0.00    -0.275 OA
ATOM      6  N   UNL     1      34.892 -17.621 -22.600  0.00  0.00    -0.273 N 
ATOM      7  C   UNL     1      34.488 -18.668 -21.666  0.00  0.00    +0.152 C 
ATOM      8  C   UNL     1      34.004 -19.808 -22.558  0.00  0.00    +0.031 C 
ATOM      9  C   UNL     1      34.957 -18.131 -23.963  0.00  0.00    +0.094 C 
ATOM     10  C   UNL     1      34.831 -19.640 -23.829  0.00  0.00    +0.024 C 
ATOM     11  C   UNL     1      35.061 -16.272 -22.330  0.00  0.00    +0.226 C 
BRANCH  11  12
ATOM     12  C   UNL     1      34.970 -15.870 -20.880  0.00  0.00    +0.085 C 
BRANCH  12  13
ATOM     13  C   UNL     1      33.555 -15.434 -20.537  0.00  0.00    +0.010 C 
BRANCH  13  14
ATOM     14  C   UNL     1      33.314 -13.947 -20.792  0.00  0.00    +0.000 C 
ATOM     15  C   UNL     1      32.806 -13.718 -22.222  0.00  0.00    +0.000 C 
ATOM     16  C   UNL     1      32.331 -13.373 -19.764  0.00  0.00    +0.000 C 
ATOM     17  C   UNL     1      32.506 -12.244 -22.484  0.00  0.00    +0.000 C 
ATOM     18  C   UNL     1      32.033 -11.900 -20.030  0.00  0.00    +0.000 C 
ATOM     19  C   UNL     1      31.536 -11.675 -21.455  0.00  0.00    +0.000 C 
ENDBRANCH  13  14
ENDBRANCH  12  13
ENDBRANCH  11  12
ENDBRANCH   3   7
BRANCH   2  20
ATOM     20  C   UNL     1      36.594 -20.996 -19.565  0.00  0.00    +0.116 C 
BRANCH  20  21
ATOM     21  C   UNL     1      36.031 -21.739 -18.388  0.00  0.00    -0.003 C 
ATOM     22  C   UNL     1      34.744 -22.273 -18.452  0.00  0.00    -0.003 C 
ATOM     23  C   UNL     1      36.795 -21.898 -17.232  0.00  0.00    -0.003 C 
ATOM     24  C   UNL     1      34.220 -22.965 -17.360  0.00  0.00    +0.002 C 
ATOM     25  C   UNL     1      36.272 -22.589 -16.139  0.00  0.00    +0.002 C 
ATOM     26  C   UNL     1      34.984 -23.123 -16.204  0.00  0.00    +0.031 C 
BRANCH  26  29
ATOM     27  N   UNL     1      34.882 -25.125 -14.738  0.00  0.00    -0.343 N 
ATOM     28  N   UNL     1      33.501 -23.287 -14.320  0.00  0.00    -0.285 NA
ATOM     29  C   UNL     1      34.439 -23.845 -15.065  0.00  0.00    +0.117 C 
ATOM     30  H   UNL     1      34.498 -25.596 -13.964  0.00  0.00    +0.144 HD
ATOM     31  H   UNL     1      35.577 -25.559 -15.284  0.00  0.00    +0.144 HD
ATOM     32  H   UNL     1      33.130 -23.774 -13.549  0.00  0.00    +0.188 HD
ENDBRANCH  26  29
ENDBRANCH  20  21
ENDBRANCH   2  20
TORSDOF 7
ENDMDL
MODEL 9
REMARK VINA RESULT:      -9.3      8.309     12.167
REMARK  Name = 25134248
REMARK  7 active torsions:
REMARK  status: ('A' for Active; 'I' for Inactive)
REMARK    1  A    between atoms: N_2  and  C_20
REMARK    2  A    between atoms: C_3  and  C_7
REMARK    3  A    between atoms: C_11  and  C_12
REMARK    4  A    between atoms: C_12  and  C_13
REMARK    5  A    between atoms: C_13  and  C_14
REMARK    6  A    between atoms: C_20  and  C_21
REMARK    7  A    between atoms: C_26  and  C_29
REMARK                            x       y       z     vdW  Elec       q    Type
REMARK                         _______ _______ _______ _____ _____    ______ ____
ROOT
ATOM      1  O   UNL     1      33.710 -15.036 -23.569  0.00  0.00    -0.273 OA
ATOM      2  N   UNL     1      34.996 -16.129 -21.966  0.00  0.00    -0.299 N 
ATOM      3  C   UNL     1      34.259 -15.071 -22.472  0.00  0.00    +0.241 C 
ATOM      4  H   UNL     1      35.390 -16.038 -21.068  0.00  0.00    +0.150 HD
ENDROOT
BRANCH   3   7
ATOM      5  O   UNL     1      31.419 -11.777 -22.648  0.00  0.00    -0.275 OA
ATOM      6  N   UNL     1      32.866 -13.294 -21.675  0.00  0.00    -0.273 N 
ATOM      7  C   UNL     1      34.170 -13.929 -21.505  0.00  0.00    +0.152 C 
ATOM      8  C   UNL     1      34.161 -14.439 -20.067  0.00  0.00    +0.031 C 
ATOM      9  C   UNL     1      31.975 -13.621 -20.569  0.00  0.00    +0.094 C 
ATOM     10  C   UNL     1      32.686 -14.724 -19.801  0.00  0.00    +0.024 C 
ATOM     11  C   UNL     1      32.497 -12.374 -22.644  0.00  0.00    +0.226 C 
BRANCH  11  12
ATOM     12  C   UNL     1      33.506 -12.121 -23.736  0.00  0.00    +0.085 C 
BRANCH  12  13
ATOM     13  C   UNL     1      34.537 -11.103 -23.280  0.00  0.00    +0.010 C 
BRANCH  13  14
ATOM     14  C   UNL     1      34.170  -9.672 -23.667  0.00  0.00    +0.000 C 
ATOM     15  C   UNL     1      33.321  -9.015 -22.571  0.00  0.00    +0.000 C 
ATOM     16  C   UNL     1      35.432  -8.846 -23.950  0.00  0.00    +0.000 C 
ATOM     17  C   UNL     1      32.986  -7.565 -22.910  0.00  0.00    +0.000 C 
ATOM     18  C   UNL     1      35.093  -7.396 -24.288  0.00  0.00    +0.000 C 
ATOM     19  C   UNL     1      34.241  -6.749 -23.199  0.00  0.00    +0.000 C 
ENDBRANCH  13  14
ENDBRANCH  12  13
ENDBRANCH  11  12
ENDBRANCH   3   7
BRANCH   2  20
ATOM     20  C   UNL     1      35.212 -17.360 -22.692  0.00  0.00    +0.116 C 
BRANCH  20  21
ATOM     21  C   UNL     1      35.337 -18.540 -21.772  0.00  0.00    -0.003 C 
ATOM     22  C   UNL     1      36.561 -18.824 -21.165  0.00  0.00    -0.003 C 
ATOM     23  C   UNL     1      34.231 -19.351 -21.522  0.00  0.00    -0.003 C 
ATOM     24  C   UNL     1      36.678 -19.919 -20.309  0.00  0.00    +0.002 C 
ATOM     25  C   UNL     1      34.347 -20.446 -20.666  0.00  0.00    +0.002 C 
ATOM     26  C   UNL     1      35.571 -20.730 -20.060  0.00  0.00    +0.031 C 
BRANCH  26  29
ATOM     27  N   UNL     1      36.677 -21.918 -18.180  0.00  0.00    -0.343 N 
ATOM     28  N   UNL     1      34.862 -22.892 -19.285  0.00  0.00    -0.285 NA
ATOM     29  C   UNL     1      35.693 -21.871 -19.167  0.00  0.00    +0.117 C 
ATOM     30  H   UNL     1      36.741 -22.701 -17.587  0.00  0.00    +0.144 HD
ATOM     31  H   UNL     1      37.307 -21.169 -18.079  0.00  0.00    +0.144 HD
ATOM     32  H   UNL     1      34.943 -23.665 -18.682  0.00  0.00    +0.188 HD
ENDBRANCH  26  29
ENDBRANCH  20  21
ENDBRANCH   2  20
TORSDOF 7
ENDMDL
