MODEL 1
REMARK VINA RESULT:     -12.1      0.000      0.000
REMARK  Name = 16048422
REMARK  11 active torsions:
REMARK  status: ('A' for Active; 'I' for Inactive)
REMARK    1  A    between atoms: C_1  and  C_4
REMARK    2  A    between atoms: C_1  and  N_18
REMARK    3  A    between atoms: C_1  and  C_33
REMARK    4  A    between atoms: N_3  and  C_6
REMARK    5  A    between atoms: C_6  and  C_9
REMARK    6  A    between atoms: C_9  and  C_11
REMARK    7  A    between atoms: C_19  and  C_21
REMARK    8  A    between atoms: C_24  and  C_27
REMARK    9  A    between atoms: C_33  and  C_34
REMARK   10  A    between atoms: C_34  and  C_36
REMARK   11  A    between atoms: C_36  and  O_37
REMARK                            x       y       z     vdW  Elec       q    Type
REMARK                         _______ _______ _______ _____ _____    ______ ____
ROOT
ATOM      1  C   UNL     1      34.578 -24.195 -15.518  0.00  0.00    +0.149 C 
ENDROOT
BRANCH   1   4
ATOM      2  O   UNL     1      33.434 -23.150 -13.661  0.00  0.00    -0.273 OA
ATOM      3  N   UNL     1      32.190 -24.393 -15.177  0.00  0.00    -0.306 N 
ATOM      4  C   UNL     1      33.358 -23.836 -14.679  0.00  0.00    +0.240 C 
ATOM      5  H   UNL     1      32.242 -24.928 -16.003  0.00  0.00    +0.149 HD
BRANCH   3   6
ATOM      6  C   UNL     1      30.902 -24.229 -14.544  0.00  0.00    +0.061 C 
ATOM      7  C   UNL     1      30.948 -24.843 -13.137  0.00  0.00    +0.020 C 
ATOM      8  C   UNL     1      30.626 -22.721 -14.412  0.00  0.00    +0.020 C 
BRANCH   6   9
ATOM      9  C   UNL     1      29.782 -24.860 -15.412  0.00  0.00    +0.044 C 
BRANCH   9  11
ATOM     10  F   UNL     1      25.571 -21.413 -16.898  0.00  0.00    -0.204 F 
ATOM     11  C   UNL     1      28.653 -23.936 -15.810  0.00  0.00    -0.020 C 
ATOM     12  C   UNL     1      28.293 -23.813 -17.152  0.00  0.00    -0.002 C 
ATOM     13  C   UNL     1      27.972 -23.207 -14.836  0.00  0.00    -0.002 C 
ATOM     14  C   UNL     1      27.252 -22.961 -17.520  0.00  0.00    +0.029 C 
ATOM     15  C   UNL     1      26.931 -22.355 -15.203  0.00  0.00    +0.029 C 
ATOM     16  C   UNL     1      26.571 -22.232 -16.545  0.00  0.00    +0.140 C 
ENDBRANCH   9  11
ENDBRANCH   6   9
ENDBRANCH   3   6
ENDBRANCH   1   4
BRANCH   1  18
ATOM     17  O   UNL     1      33.415 -24.400 -18.135  0.00  0.00    -0.270 OA
ATOM     18  N   UNL     1      34.634 -23.205 -16.565  0.00  0.00    -0.295 N 
ATOM     19  C   UNL     1      34.038 -23.395 -17.803  0.00  0.00    +0.246 C 
ATOM     20  H   UNL     1      35.114 -22.363 -16.395  0.00  0.00    +0.150 HD
BRANCH  19  21
ATOM     21  C   UNL     1      34.210 -22.291 -18.783  0.00  0.00    +0.053 C 
ATOM     22  C   UNL     1      35.490 -21.895 -19.170  0.00  0.00    +0.005 C 
ATOM     23  C   UNL     1      33.091 -21.652 -19.316  0.00  0.00    +0.005 C 
ATOM     24  C   UNL     1      34.532 -20.220 -20.623  0.00  0.00    +0.000 C 
ATOM     25  C   UNL     1      35.651 -20.859 -20.090  0.00  0.00    +0.000 C 
ATOM     26  C   UNL     1      33.252 -20.616 -20.237  0.00  0.00    +0.000 C 
BRANCH  24  27
ATOM     27  C   UNL     1      34.699 -19.145 -21.577  0.00  0.00    +0.000 C 
ATOM     28  C   UNL     1      35.171 -17.903 -21.154  0.00  0.00    +0.000 C 
ATOM     29  C   UNL     1      34.389 -19.351 -22.922  0.00  0.00    +0.000 C 
ATOM     30  C   UNL     1      35.333 -16.867 -22.074  0.00  0.00    +0.000 C 
ATOM     31  C   UNL     1      34.550 -18.315 -23.842  0.00  0.00    +0.000 C 
ATOM     32  C   UNL     1      35.022 -17.073 -23.418  0.00  0.00    +0.000 C 
ENDBRANCH  24  27
ENDBRANCH  19  21
ENDBRANCH   1  18
BRANCH   1  33
ATOM     33  C   UNL     1      35.866 -24.179 -14.686  0.00  0.00    +0.041 C 
BRANCH  33  34
ATOM     34  C   UNL     1      36.187 -25.506 -13.995  0.00  0.00    +0.112 C 
BRANCH  34  36
ATOM     35  O   UNL     1      36.273 -27.374 -15.556  0.00  0.00    -0.250 OA
ATOM     36  C   UNL     1      36.851 -26.512 -14.909  0.00  0.00    +0.314 C 
BRANCH  36  37
ATOM     37  O   UNL     1      38.196 -26.328 -14.956  0.00  0.00    -0.480 OA
ATOM     38  H   UNL     1      38.633 -26.273 -15.783  0.00  0.00    +0.295 HD
ENDBRANCH  36  37
ENDBRANCH  34  36
ENDBRANCH  33  34
ENDBRANCH   1  33
TORSDOF 11
ENDMDL
MODEL 2
REMARK VINA RESULT:     -12.1      1.308      2.006
REMARK  Name = 16048422
REMARK  11 active torsions:
REMARK  status: ('A' for Active; 'I' for Inactive)
REMARK    1  A    between atoms: C_1  and  C_4
REMARK    2  A    between atoms: C_1  and  N_18
REMARK    3  A    between atoms: C_1  and  C_33
REMARK    4  A    between atoms: N_3  and  C_6
REMARK    5  A    between atoms: C_6  and  C_9
REMARK    6  A    between atoms: C_9  and  C_11
REMARK    7  A    between atoms: C_19  and  C_21
REMARK    8  A    between atoms: C_24  and  C_27
REMARK    9  A    between atoms: C_33  and  C_34
REMARK   10  A    between atoms: C_34  and  C_36
REMARK   11  A    between atoms: C_36  and  O_37
REMARK                            x       y       z     vdW  Elec       q    Type
REMARK                         _______ _______ _______ _____ _____    ______ ____
ROOT
ATOM      1  C   UNL     1      34.179 -24.008 -15.299  0.00  0.00    +0.149 C 
ENDROOT
BRANCH   1   4
ATOM      2  O   UNL     1      32.670 -22.664 -13.971  0.00  0.00    -0.273 OA
ATOM      3  N   UNL     1      31.923 -24.710 -14.777  0.00  0.00    -0.306 N 
ATOM      4  C   UNL     1      32.855 -23.696 -14.615  0.00  0.00    +0.240 C 
ATOM      5  H   UNL     1      32.176 -25.496 -15.314  0.00  0.00    +0.149 HD
BRANCH   3   6
ATOM      6  C   UNL     1      30.601 -24.670 -14.197  0.00  0.00    +0.061 C 
ATOM      7  C   UNL     1      29.693 -25.663 -14.938  0.00  0.00    +0.020 C 
ATOM      8  C   UNL     1      30.712 -25.111 -12.727  0.00  0.00    +0.020 C 
BRANCH   6   9
ATOM      9  C   UNL     1      30.030 -23.228 -14.236  0.00  0.00    +0.044 C 
BRANCH   9  11
ATOM     10  F   UNL     1      25.793 -22.347 -17.854  0.00  0.00    -0.204 F 
ATOM     11  C   UNL     1      28.894 -22.992 -15.206  0.00  0.00    -0.020 C 
ATOM     12  C   UNL     1      29.060 -23.288 -16.559  0.00  0.00    -0.002 C 
ATOM     13  C   UNL     1      27.682 -22.477 -14.747  0.00  0.00    -0.002 C 
ATOM     14  C   UNL     1      28.012 -23.071 -17.453  0.00  0.00    +0.029 C 
ATOM     15  C   UNL     1      26.634 -22.260 -15.642  0.00  0.00    +0.029 C 
ATOM     16  C   UNL     1      26.799 -22.557 -16.994  0.00  0.00    +0.140 C 
ENDBRANCH   9  11
ENDBRANCH   6   9
ENDBRANCH   3   6
ENDBRANCH   1   4
BRANCH   1  18
ATOM     17  O   UNL     1      33.555 -24.495 -18.059  0.00  0.00    -0.270 OA
ATOM     18  N   UNL     1      34.287 -23.066 -16.385  0.00  0.00    -0.295 N 
ATOM     19  C   UNL     1      33.960 -23.395 -17.693  0.00  0.00    +0.246 C 
ATOM     20  H   UNL     1      34.604 -22.155 -16.192  0.00  0.00    +0.150 HD
BRANCH  19  21
ATOM     21  C   UNL     1      34.152 -22.320 -18.701  0.00  0.00    +0.053 C 
ATOM     22  C   UNL     1      33.047 -21.652 -19.227  0.00  0.00    +0.005 C 
ATOM     23  C   UNL     1      35.438 -21.979 -19.119  0.00  0.00    +0.005 C 
ATOM     24  C   UNL     1      34.513 -20.302 -20.592  0.00  0.00    +0.000 C 
ATOM     25  C   UNL     1      33.227 -20.643 -20.174  0.00  0.00    +0.000 C 
ATOM     26  C   UNL     1      35.619 -20.970 -20.066  0.00  0.00    +0.000 C 
BRANCH  24  27
ATOM     27  C   UNL     1      34.701 -19.256 -21.574  0.00  0.00    +0.000 C 
ATOM     28  C   UNL     1      34.343 -19.475 -22.904  0.00  0.00    +0.000 C 
ATOM     29  C   UNL     1      35.238 -18.027 -21.190  0.00  0.00    +0.000 C 
ATOM     30  C   UNL     1      34.523 -18.465 -23.850  0.00  0.00    +0.000 C 
ATOM     31  C   UNL     1      35.418 -17.018 -22.136  0.00  0.00    +0.000 C 
ATOM     32  C   UNL     1      35.061 -17.237 -23.466  0.00  0.00    +0.000 C 
ENDBRANCH  24  27
ENDBRANCH  19  21
ENDBRANCH   1  18
BRANCH   1  33
ATOM     33  C   UNL     1      35.365 -23.865 -14.337  0.00  0.00    +0.041 C 
BRANCH  33  34
ATOM     34  C   UNL     1      35.630 -25.101 -13.475  0.00  0.00    +0.112 C 
BRANCH  34  36
ATOM     35  O   UNL     1      35.821 -25.561 -11.090  0.00  0.00    -0.250 OA
ATOM     36  C   UNL     1      35.393 -24.864 -12.000  0.00  0.00    +0.314 C 
BRANCH  36  37
ATOM     37  O   UNL     1      34.656 -23.742 -11.789  0.00  0.00    -0.480 OA
ATOM     38  H   UNL     1      33.881 -23.589 -12.293  0.00  0.00    +0.295 HD
ENDBRANCH  36  37
ENDBRANCH  34  36
ENDBRANCH  33  34
ENDBRANCH   1  33
TORSDOF 11
ENDMDL
MODEL 3
REMARK VINA RESULT:     -11.4      1.475      2.037
REMARK  Name = 16048422
REMARK  11 active torsions:
REMARK  status: ('A' for Active; 'I' for Inactive)
REMARK    1  A    between atoms: C_1  and  C_4
REMARK    2  A    between atoms: C_1  and  N_18
REMARK    3  A    between atoms: C_1  and  C_33
REMARK    4  A    between atoms: N_3  and  C_6
REMARK    5  A    between atoms: C_6  and  C_9
REMARK    6  A    between atoms: C_9  and  C_11
REMARK    7  A    between atoms: C_19  and  C_21
REMARK    8  A    between atoms: C_24  and  C_27
REMARK    9  A    between atoms: C_33  and  C_34
REMARK   10  A    between atoms: C_34  and  C_36
REMARK   11  A    between atoms: C_36  and  O_37
REMARK                            x       y       z     vdW  Elec       q    Type
REMARK                         _______ _______ _______ _____ _____    ______ ____
ROOT
ATOM      1  C   UNL     1      33.822 -23.559 -16.623  0.00  0.00    +0.149 C 
ENDROOT
BRANCH   1   4
ATOM      2  O   UNL     1      31.488 -22.952 -16.821  0.00  0.00    -0.273 OA
ATOM      3  N   UNL     1      32.149 -24.266 -15.023  0.00  0.00    -0.306 N 
ATOM      4  C   UNL     1      32.359 -23.553 -16.195  0.00  0.00    +0.240 C 
ATOM      5  H   UNL     1      32.919 -24.712 -14.602  0.00  0.00    +0.149 HD
BRANCH   3   6
ATOM      6  C   UNL     1      30.855 -24.384 -14.392  0.00  0.00    +0.061 C 
ATOM      7  C   UNL     1      30.985 -25.255 -13.133  0.00  0.00    +0.020 C 
ATOM      8  C   UNL     1      30.400 -22.977 -13.970  0.00  0.00    +0.020 C 
BRANCH   6   9
ATOM      9  C   UNL     1      29.812 -24.961 -15.385  0.00  0.00    +0.044 C 
BRANCH   9  11
ATOM     10  F   UNL     1      25.626 -21.482 -16.866  0.00  0.00    -0.204 F 
ATOM     11  C   UNL     1      28.690 -24.028 -15.782  0.00  0.00    -0.020 C 
ATOM     12  C   UNL     1      28.087 -23.215 -14.823  0.00  0.00    -0.002 C 
ATOM     13  C   UNL     1      28.258 -23.982 -17.107  0.00  0.00    -0.002 C 
ATOM     14  C   UNL     1      27.052 -22.355 -15.189  0.00  0.00    +0.029 C 
ATOM     15  C   UNL     1      27.224 -23.121 -17.474  0.00  0.00    +0.029 C 
ATOM     16  C   UNL     1      26.621 -22.308 -16.514  0.00  0.00    +0.140 C 
ENDBRANCH   9  11
ENDBRANCH   6   9
ENDBRANCH   3   6
ENDBRANCH   1   4
BRANCH   1  18
ATOM     17  O   UNL     1      36.218 -22.676 -17.935  0.00  0.00    -0.270 OA
ATOM     18  N   UNL     1      33.910 -22.620 -17.715  0.00  0.00    -0.295 N 
ATOM     19  C   UNL     1      35.119 -22.254 -18.286  0.00  0.00    +0.246 C 
ATOM     20  H   UNL     1      33.081 -22.225 -18.067  0.00  0.00    +0.150 HD
BRANCH  19  21
ATOM     21  C   UNL     1      35.043 -21.255 -19.384  0.00  0.00    +0.053 C 
ATOM     22  C   UNL     1      36.207 -20.650 -19.858  0.00  0.00    +0.005 C 
ATOM     23  C   UNL     1      33.808 -20.924 -19.940  0.00  0.00    +0.005 C 
ATOM     24  C   UNL     1      34.899 -19.381 -21.445  0.00  0.00    +0.000 C 
ATOM     25  C   UNL     1      36.135 -19.712 -20.889  0.00  0.00    +0.000 C 
ATOM     26  C   UNL     1      33.735 -19.987 -20.971  0.00  0.00    +0.000 C 
BRANCH  24  27
ATOM     27  C   UNL     1      34.824 -18.409 -22.514  0.00  0.00    +0.000 C 
ATOM     28  C   UNL     1      34.316 -18.779 -23.759  0.00  0.00    +0.000 C 
ATOM     29  C   UNL     1      35.258 -17.101 -22.299  0.00  0.00    +0.000 C 
ATOM     30  C   UNL     1      34.243 -17.841 -24.789  0.00  0.00    +0.000 C 
ATOM     31  C   UNL     1      35.184 -16.163 -23.330  0.00  0.00    +0.000 C 
ATOM     32  C   UNL     1      34.677 -16.534 -24.575  0.00  0.00    +0.000 C 
ENDBRANCH  24  27
ENDBRANCH  19  21
ENDBRANCH   1  18
BRANCH   1  33
ATOM     33  C   UNL     1      34.752 -23.145 -15.476  0.00  0.00    +0.041 C 
BRANCH  33  34
ATOM     34  C   UNL     1      35.710 -24.244 -15.014  0.00  0.00    +0.112 C 
BRANCH  34  36
ATOM     35  O   UNL     1      37.561 -23.637 -13.551  0.00  0.00    -0.250 OA
ATOM     36  C   UNL     1      37.093 -23.730 -14.677  0.00  0.00    +0.314 C 
BRANCH  36  37
ATOM     37  O   UNL     1      37.788 -23.402 -15.798  0.00  0.00    -0.480 OA
ATOM     38  H   UNL     1      37.936 -22.502 -16.011  0.00  0.00    +0.295 HD
ENDBRANCH  36  37
ENDBRANCH  34  36
ENDBRANCH  33  34
ENDBRANCH   1  33
TORSDOF 11
ENDMDL
MODEL 4
REMARK VINA RESULT:     -11.0      1.359      1.994
REMARK  Name = 16048422
REMARK  11 active torsions:
REMARK  status: ('A' for Active; 'I' for Inactive)
REMARK    1  A    between atoms: C_1  and  C_4
REMARK    2  A    between atoms: C_1  and  N_18
REMARK    3  A    between atoms: C_1  and  C_33
REMARK    4  A    between atoms: N_3  and  C_6
REMARK    5  A    between atoms: C_6  and  C_9
REMARK    6  A    between atoms: C_9  and  C_11
REMARK    7  A    between atoms: C_19  and  C_21
REMARK    8  A    between atoms: C_24  and  C_27
REMARK    9  A    between atoms: C_33  and  C_34
REMARK   10  A    between atoms: C_34  and  C_36
REMARK   11  A    between atoms: C_36  and  O_37
REMARK                            x       y       z     vdW  Elec       q    Type
REMARK                         _______ _______ _______ _____ _____    ______ ____
ROOT
ATOM      1  C   UNL     1      35.865 -23.806 -15.809  0.00  0.00    +0.149 C 
ENDROOT
BRANCH   1   4
ATOM      2  O   UNL     1      34.842 -22.368 -14.155  0.00  0.00    -0.273 OA
ATOM      3  N   UNL     1      33.824 -24.396 -14.650  0.00  0.00    -0.306 N 
ATOM      4  C   UNL     1      34.800 -23.420 -14.790  0.00  0.00    +0.240 C 
ATOM      5  H   UNL     1      33.886 -25.203 -15.210  0.00  0.00    +0.149 HD
BRANCH   3   6
ATOM      6  C   UNL     1      32.721 -24.284 -13.723  0.00  0.00    +0.061 C 
ATOM      7  C   UNL     1      33.222 -24.589 -12.303  0.00  0.00    +0.020 C 
ATOM      8  C   UNL     1      32.211 -22.834 -13.762  0.00  0.00    +0.020 C 
BRANCH   6   9
ATOM      9  C   UNL     1      31.560 -25.225 -14.138  0.00  0.00    +0.044 C 
BRANCH   9  11
ATOM     10  F   UNL     1      27.453 -22.874 -17.206  0.00  0.00    -0.204 F 
ATOM     11  C   UNL     1      30.459 -24.595 -14.961  0.00  0.00    -0.020 C 
ATOM     12  C   UNL     1      29.161 -25.101 -14.893  0.00  0.00    -0.002 C 
ATOM     13  C   UNL     1      30.742 -23.508 -15.787  0.00  0.00    -0.002 C 
ATOM     14  C   UNL     1      28.145 -24.519 -15.651  0.00  0.00    +0.029 C 
ATOM     15  C   UNL     1      29.726 -22.926 -16.545  0.00  0.00    +0.029 C 
ATOM     16  C   UNL     1      28.428 -23.432 -16.477  0.00  0.00    +0.140 C 
ENDBRANCH   9  11
ENDBRANCH   6   9
ENDBRANCH   3   6
ENDBRANCH   1   4
BRANCH   1  18
ATOM     17  O   UNL     1      33.832 -23.808 -17.836  0.00  0.00    -0.270 OA
ATOM     18  N   UNL     1      35.727 -22.863 -16.891  0.00  0.00    -0.295 N 
ATOM     19  C   UNL     1      34.706 -22.945 -17.826  0.00  0.00    +0.246 C 
ATOM     20  H   UNL     1      36.382 -22.132 -16.968  0.00  0.00    +0.150 HD
BRANCH  19  21
ATOM     21  C   UNL     1      34.719 -21.913 -18.895  0.00  0.00    +0.053 C 
ATOM     22  C   UNL     1      33.518 -21.452 -19.434  0.00  0.00    +0.005 C 
ATOM     23  C   UNL     1      35.932 -21.405 -19.358  0.00  0.00    +0.005 C 
ATOM     24  C   UNL     1      34.744 -19.975 -20.901  0.00  0.00    +0.000 C 
ATOM     25  C   UNL     1      33.530 -20.483 -20.438  0.00  0.00    +0.000 C 
ATOM     26  C   UNL     1      35.945 -20.436 -20.362  0.00  0.00    +0.000 C 
BRANCH  24  27
ATOM     27  C   UNL     1      34.757 -18.970 -21.942  0.00  0.00    +0.000 C 
ATOM     28  C   UNL     1      35.227 -17.686 -21.666  0.00  0.00    +0.000 C 
ATOM     29  C   UNL     1      34.301 -19.285 -23.222  0.00  0.00    +0.000 C 
ATOM     30  C   UNL     1      35.241 -16.718 -22.669  0.00  0.00    +0.000 C 
ATOM     31  C   UNL     1      34.315 -18.316 -24.225  0.00  0.00    +0.000 C 
ATOM     32  C   UNL     1      34.785 -17.032 -23.949  0.00  0.00    +0.000 C 
ENDBRANCH  24  27
ENDBRANCH  19  21
ENDBRANCH   1  18
BRANCH   1  33
ATOM     33  C   UNL     1      37.275 -23.743 -15.210  0.00  0.00    +0.041 C 
BRANCH  33  34
ATOM     34  C   UNL     1      37.536 -24.765 -14.102  0.00  0.00    +0.112 C 
BRANCH  34  36
ATOM     35  O   UNL     1      39.909 -24.820 -14.651  0.00  0.00    -0.250 OA
ATOM     36  C   UNL     1      38.930 -25.350 -14.144  0.00  0.00    +0.314 C 
BRANCH  36  37
ATOM     37  O   UNL     1      38.984 -26.552 -13.513  0.00  0.00    -0.480 OA
ATOM     38  H   UNL     1      38.834 -26.605 -12.590  0.00  0.00    +0.295 HD
ENDBRANCH  36  37
ENDBRANCH  34  36
ENDBRANCH  33  34
ENDBRANCH   1  33
TORSDOF 11
ENDMDL
MODEL 5
REMARK VINA RESULT:     -10.5      5.526     10.827
REMARK  Name = 16048422
REMARK  11 active torsions:
REMARK  status: ('A' for Active; 'I' for Inactive)
REMARK    1  A    between atoms: C_1  and  C_4
REMARK    2  A    between atoms: C_1  and  N_18
REMARK    3  A    between atoms: C_1  and  C_33
REMARK    4  A    between atoms: N_3  and  C_6
REMARK    5  A    between atoms: C_6  and  C_9
REMARK    6  A    between atoms: C_9  and  C_11
REMARK    7  A    between atoms: C_19  and  C_21
REMARK    8  A    between atoms: C_24  and  C_27
REMARK    9  A    between atoms: C_33  and  C_34
REMARK   10  A    between atoms: C_34  and  C_36
REMARK   11  A    between atoms: C_36  and  O_37
REMARK                            x       y       z     vdW  Elec       q    Type
REMARK                         _______ _______ _______ _____ _____    ______ ____
ROOT
ATOM      1  C   UNL     1      35.493 -16.834 -23.026  0.00  0.00    +0.149 C 
ENDROOT
BRANCH   1   4
ATOM      2  O   UNL     1      34.498 -15.313 -21.430  0.00  0.00    -0.273 OA
ATOM      3  N   UNL     1      34.228 -14.882 -23.696  0.00  0.00    -0.306 N 
ATOM      4  C   UNL     1      34.703 -15.600 -22.608  0.00  0.00    +0.240 C 
ATOM      5  H   UNL     1      34.451 -15.201 -24.600  0.00  0.00    +0.149 HD
BRANCH   3   6
ATOM      6  C   UNL     1      33.423 -13.690 -23.566  0.00  0.00    +0.061 C 
ATOM      7  C   UNL     1      34.329 -12.504 -23.204  0.00  0.00    +0.020 C 
ATOM      8  C   UNL     1      32.768 -13.408 -24.929  0.00  0.00    +0.020 C 
BRANCH   6   9
ATOM      9  C   UNL     1      32.301 -13.900 -22.516  0.00  0.00    +0.044 C 
BRANCH   9  11
ATOM     10  F   UNL     1      31.182  -9.488 -19.184  0.00  0.00    -0.204 F 
ATOM     11  C   UNL     1      32.001 -12.717 -21.623  0.00  0.00    -0.020 C 
ATOM     12  C   UNL     1      31.421 -11.567 -22.160  0.00  0.00    -0.002 C 
ATOM     13  C   UNL     1      32.304 -12.776 -20.263  0.00  0.00    -0.002 C 
ATOM     14  C   UNL     1      31.144 -10.477 -21.335  0.00  0.00    +0.029 C 
ATOM     15  C   UNL     1      32.026 -11.685 -19.439  0.00  0.00    +0.029 C 
ATOM     16  C   UNL     1      31.447 -10.536 -19.976  0.00  0.00    +0.140 C 
ENDBRANCH   9  11
ENDBRANCH   6   9
ENDBRANCH   3   6
ENDBRANCH   1   4
BRANCH   1  18
ATOM     17  O   UNL     1      37.099 -19.137 -22.428  0.00  0.00    -0.270 OA
ATOM     18  N   UNL     1      35.234 -17.823 -22.009  0.00  0.00    -0.295 N 
ATOM     19  C   UNL     1      36.073 -18.907 -21.793  0.00  0.00    +0.246 C 
ATOM     20  H   UNL     1      34.433 -17.726 -21.446  0.00  0.00    +0.150 HD
BRANCH  19  21
ATOM     21  C   UNL     1      35.652 -19.852 -20.726  0.00  0.00    +0.053 C 
ATOM     22  C   UNL     1      34.303 -20.162 -20.562  0.00  0.00    +0.005 C 
ATOM     23  C   UNL     1      36.608 -20.429 -19.891  0.00  0.00    +0.005 C 
ATOM     24  C   UNL     1      34.864 -21.626 -18.723  0.00  0.00    +0.000 C 
ATOM     25  C   UNL     1      33.908 -21.049 -19.559  0.00  0.00    +0.000 C 
ATOM     26  C   UNL     1      36.214 -21.316 -18.888  0.00  0.00    +0.000 C 
BRANCH  24  27
ATOM     27  C   UNL     1      34.455 -22.545 -17.684  0.00  0.00    +0.000 C 
ATOM     28  C   UNL     1      35.354 -22.909 -16.681  0.00  0.00    +0.000 C 
ATOM     29  C   UNL     1      33.162 -23.068 -17.683  0.00  0.00    +0.000 C 
ATOM     30  C   UNL     1      34.960 -23.795 -15.678  0.00  0.00    +0.000 C 
ATOM     31  C   UNL     1      32.768 -23.955 -16.680  0.00  0.00    +0.000 C 
ATOM     32  C   UNL     1      33.668 -24.318 -15.678  0.00  0.00    +0.000 C 
ENDBRANCH  24  27
ENDBRANCH  19  21
ENDBRANCH   1  18
BRANCH   1  33
ATOM     33  C   UNL     1      35.060 -17.347 -24.404  0.00  0.00    +0.041 C 
BRANCH  33  34
ATOM     34  C   UNL     1      34.070 -18.513 -24.360  0.00  0.00    +0.112 C 
BRANCH  34  36
ATOM     35  O   UNL     1      31.896 -19.041 -25.323  0.00  0.00    -0.250 OA
ATOM     36  C   UNL     1      32.768 -18.221 -25.073  0.00  0.00    +0.314 C 
BRANCH  36  37
ATOM     37  O   UNL     1      32.658 -16.904 -25.386  0.00  0.00    -0.480 OA
ATOM     38  H   UNL     1      31.894 -16.424 -25.136  0.00  0.00    +0.295 HD
ENDBRANCH  36  37
ENDBRANCH  34  36
ENDBRANCH  33  34
ENDBRANCH   1  33
TORSDOF 11
ENDMDL
MODEL 6
REMARK VINA RESULT:     -10.4      9.833     15.475
REMARK  Name = 16048422
REMARK  11 active torsions:
REMARK  status: ('A' for Active; 'I' for Inactive)
REMARK    1  A    between atoms: C_1  and  C_4
REMARK    2  A    between atoms: C_1  and  N_18
REMARK    3  A    between atoms: C_1  and  C_33
REMARK    4  A    between atoms: N_3  and  C_6
REMARK    5  A    between atoms: C_6  and  C_9
REMARK    6  A    between atoms: C_9  and  C_11
REMARK    7  A    between atoms: C_19  and  C_21
REMARK    8  A    between atoms: C_24  and  C_27
REMARK    9  A    between atoms: C_33  and  C_34
REMARK   10  A    between atoms: C_34  and  C_36
REMARK   11  A    between atoms: C_36  and  O_37
REMARK                            x       y       z     vdW  Elec       q    Type
REMARK                         _______ _______ _______ _____ _____    ______ ____
ROOT
ATOM      1  C   UNL     1      32.309 -10.999 -23.187  0.00  0.00    +0.149 C 
ENDROOT
BRANCH   1   4
ATOM      2  O   UNL     1      34.648 -10.404 -23.335  0.00  0.00    -0.273 OA
ATOM      3  N   UNL     1      33.062  -8.709 -23.398  0.00  0.00    -0.306 N 
ATOM      4  C   UNL     1      33.477 -10.031 -23.324  0.00  0.00    +0.240 C 
ATOM      5  H   UNL     1      32.096  -8.520 -23.380  0.00  0.00    +0.149 HD
BRANCH   3   6
ATOM      6  C   UNL     1      33.979  -7.597 -23.498  0.00  0.00    +0.061 C 
ATOM      7  C   UNL     1      33.179  -6.294 -23.648  0.00  0.00    +0.020 C 
ATOM      8  C   UNL     1      34.788  -7.527 -22.192  0.00  0.00    +0.020 C 
BRANCH   6   9
ATOM      9  C   UNL     1      34.965  -7.806 -24.677  0.00  0.00    +0.044 C 
BRANCH   9  11
ATOM     10  F   UNL     1      34.883  -3.849 -28.696  0.00  0.00    -0.204 F 
ATOM     11  C   UNL     1      34.943  -6.745 -25.755  0.00  0.00    -0.020 C 
ATOM     12  C   UNL     1      34.140  -6.914 -26.883  0.00  0.00    -0.002 C 
ATOM     13  C   UNL     1      35.725  -5.598 -25.620  0.00  0.00    -0.002 C 
ATOM     14  C   UNL     1      34.119  -5.935 -27.876  0.00  0.00    +0.029 C 
ATOM     15  C   UNL     1      35.704  -4.619 -26.613  0.00  0.00    +0.029 C 
ATOM     16  C   UNL     1      34.901  -4.788 -27.741  0.00  0.00    +0.140 C 
ENDBRANCH   9  11
ENDBRANCH   6   9
ENDBRANCH   3   6
ENDBRANCH   1   4
BRANCH   1  18
ATOM     17  O   UNL     1      33.282 -13.069 -24.923  0.00  0.00    -0.270 OA
ATOM     18  N   UNL     1      32.892 -12.256 -22.786  0.00  0.00    -0.295 N 
ATOM     19  C   UNL     1      33.336 -13.198 -23.703  0.00  0.00    +0.246 C 
ATOM     20  H   UNL     1      32.978 -12.453 -21.826  0.00  0.00    +0.150 HD
BRANCH  19  21
ATOM     21  C   UNL     1      33.886 -14.453 -23.129  0.00  0.00    +0.053 C 
ATOM     22  C   UNL     1      34.172 -15.534 -23.963  0.00  0.00    +0.005 C 
ATOM     23  C   UNL     1      34.118 -14.550 -21.758  0.00  0.00    +0.005 C 
ATOM     24  C   UNL     1      34.920 -16.810 -22.053  0.00  0.00    +0.000 C 
ATOM     25  C   UNL     1      34.688 -16.713 -23.425  0.00  0.00    +0.000 C 
ATOM     26  C   UNL     1      34.635 -15.728 -21.219  0.00  0.00    +0.000 C 
BRANCH  24  27
ATOM     27  C   UNL     1      35.456 -18.032 -21.494  0.00  0.00    +0.000 C 
ATOM     28  C   UNL     1      34.593 -19.040 -21.066  0.00  0.00    +0.000 C 
ATOM     29  C   UNL     1      36.836 -18.203 -21.384  0.00  0.00    +0.000 C 
ATOM     30  C   UNL     1      35.109 -20.219 -20.528  0.00  0.00    +0.000 C 
ATOM     31  C   UNL     1      37.352 -19.382 -20.846  0.00  0.00    +0.000 C 
ATOM     32  C   UNL     1      36.489 -20.389 -20.418  0.00  0.00    +0.000 C 
ENDBRANCH  24  27
ENDBRANCH  19  21
ENDBRANCH   1  18
BRANCH   1  33
ATOM     33  C   UNL     1      31.289 -10.518 -22.147  0.00  0.00    +0.041 C 
BRANCH  33  34
ATOM     34  C   UNL     1      31.688 -10.798 -20.697  0.00  0.00    +0.112 C 
BRANCH  34  36
ATOM     35  O   UNL     1      32.507  -9.519 -18.792  0.00  0.00    -0.250 OA
ATOM     36  C   UNL     1      32.030  -9.547 -19.918  0.00  0.00    +0.314 C 
BRANCH  36  37
ATOM     37  O   UNL     1      31.769  -8.426 -20.639  0.00  0.00    -0.480 OA
ATOM     38  H   UNL     1      30.931  -8.312 -21.043  0.00  0.00    +0.295 HD
ENDBRANCH  36  37
ENDBRANCH  34  36
ENDBRANCH  33  34
ENDBRANCH   1  33
TORSDOF 11
ENDMDL
MODEL 7
REMARK VINA RESULT:     -10.3      9.633     14.799
REMARK  Name = 16048422
REMARK  11 active torsions:
REMARK  status: ('A' for Active; 'I' for Inactive)
REMARK    1  A    between atoms: C_1  and  C_4
REMARK    2  A    between atoms: C_1  and  N_18
REMARK    3  A    between atoms: C_1  and  C_33
REMARK    4  A    between atoms: N_3  and  C_6
REMARK    5  A    between atoms: C_6  and  C_9
REMARK    6  A    between atoms: C_9  and  C_11
REMARK    7  A    between atoms: C_19  and  C_21
REMARK    8  A    between atoms: C_24  and  C_27
REMARK    9  A    between atoms: C_33  and  C_34
REMARK   10  A    between atoms: C_34  and  C_36
REMARK   11  A    between atoms: C_36  and  O_37
REMARK                            x       y       z     vdW  Elec       q    Type
REMARK                         _______ _______ _______ _____ _____    ______ ____
ROOT
ATOM      1  C   UNL     1      32.332 -11.254 -23.180  0.00  0.00    +0.149 C 
ENDROOT
BRANCH   1   4
ATOM      2  O   UNL     1      34.672 -10.663 -23.339  0.00  0.00    -0.273 OA
ATOM      3  N   UNL     1      33.086  -8.971 -23.452  0.00  0.00    -0.306 N 
ATOM      4  C   UNL     1      33.501 -10.290 -23.341  0.00  0.00    +0.240 C 
ATOM      5  H   UNL     1      32.120  -8.782 -23.441  0.00  0.00    +0.149 HD
BRANCH   3   6
ATOM      6  C   UNL     1      34.003  -7.862 -23.581  0.00  0.00    +0.061 C 
ATOM      7  C   UNL     1      34.450  -7.410 -22.182  0.00  0.00    +0.020 C 
ATOM      8  C   UNL     1      35.238  -8.353 -24.355  0.00  0.00    +0.020 C 
BRANCH   6   9
ATOM      9  C   UNL     1      33.350  -6.703 -24.379  0.00  0.00    +0.044 C 
BRANCH   9  11
ATOM     10  F   UNL     1      30.570  -2.861 -21.325  0.00  0.00    -0.204 F 
ATOM     11  C   UNL     1      32.605  -5.673 -23.560  0.00  0.00    -0.020 C 
ATOM     12  C   UNL     1      32.643  -4.328 -23.930  0.00  0.00    -0.002 C 
ATOM     13  C   UNL     1      31.880  -6.067 -22.436  0.00  0.00    -0.002 C 
ATOM     14  C   UNL     1      31.954  -3.378 -23.175  0.00  0.00    +0.029 C 
ATOM     15  C   UNL     1      31.192  -5.118 -21.681  0.00  0.00    +0.029 C 
ATOM     16  C   UNL     1      31.230  -3.773 -22.051  0.00  0.00    +0.140 C 
ENDBRANCH   9  11
ENDBRANCH   6   9
ENDBRANCH   3   6
ENDBRANCH   1   4
BRANCH   1  18
ATOM     17  O   UNL     1      33.364 -13.322 -24.884  0.00  0.00    -0.270 OA
ATOM     18  N   UNL     1      32.916 -12.505 -22.760  0.00  0.00    -0.295 N 
ATOM     19  C   UNL     1      33.390 -13.446 -23.662  0.00  0.00    +0.246 C 
ATOM     20  H   UNL     1      32.981 -12.697 -21.798  0.00  0.00    +0.150 HD
BRANCH  19  21
ATOM     21  C   UNL     1      33.937 -14.695 -23.072  0.00  0.00    +0.053 C 
ATOM     22  C   UNL     1      34.239 -15.781 -23.892  0.00  0.00    +0.005 C 
ATOM     23  C   UNL     1      34.149 -14.780 -21.696  0.00  0.00    +0.005 C 
ATOM     24  C   UNL     1      34.964 -17.038 -21.961  0.00  0.00    +0.000 C 
ATOM     25  C   UNL     1      34.752 -16.954 -23.337  0.00  0.00    +0.000 C 
ATOM     26  C   UNL     1      34.663 -15.952 -21.140  0.00  0.00    +0.000 C 
BRANCH  24  27
ATOM     27  C   UNL     1      35.497 -18.254 -21.385  0.00  0.00    +0.000 C 
ATOM     28  C   UNL     1      34.633 -19.276 -20.991  0.00  0.00    +0.000 C 
ATOM     29  C   UNL     1      36.875 -18.405 -21.225  0.00  0.00    +0.000 C 
ATOM     30  C   UNL     1      35.147 -20.448 -20.437  0.00  0.00    +0.000 C 
ATOM     31  C   UNL     1      37.388 -19.577 -20.670  0.00  0.00    +0.000 C 
ATOM     32  C   UNL     1      36.524 -20.599 -20.276  0.00  0.00    +0.000 C 
ENDBRANCH  24  27
ENDBRANCH  19  21
ENDBRANCH   1  18
BRANCH   1  33
ATOM     33  C   UNL     1      31.319 -10.754 -22.143  0.00  0.00    +0.041 C 
BRANCH  33  34
ATOM     34  C   UNL     1      31.552 -11.285 -20.727  0.00  0.00    +0.112 C 
BRANCH  34  36
ATOM     35  O   UNL     1      31.528 -10.318 -18.491  0.00  0.00    -0.250 OA
ATOM     36  C   UNL     1      31.706 -10.190 -19.695  0.00  0.00    +0.314 C 
BRANCH  36  37
ATOM     37  O   UNL     1      32.105  -9.023 -20.264  0.00  0.00    -0.480 OA
ATOM     38  H   UNL     1      32.391  -9.009 -21.156  0.00  0.00    +0.295 HD
ENDBRANCH  36  37
ENDBRANCH  34  36
ENDBRANCH  33  34
ENDBRANCH   1  33
TORSDOF 11
ENDMDL
MODEL 8
REMARK VINA RESULT:     -10.1      5.276     10.631
REMARK  Name = 16048422
REMARK  11 active torsions:
REMARK  status: ('A' for Active; 'I' for Inactive)
REMARK    1  A    between atoms: C_1  and  C_4
REMARK    2  A    between atoms: C_1  and  N_18
REMARK    3  A    between atoms: C_1  and  C_33
REMARK    4  A    between atoms: N_3  and  C_6
REMARK    5  A    between atoms: C_6  and  C_9
REMARK    6  A    between atoms: C_9  and  C_11
REMARK    7  A    between atoms: C_19  and  C_21
REMARK    8  A    between atoms: C_24  and  C_27
REMARK    9  A    between atoms: C_33  and  C_34
REMARK   10  A    between atoms: C_34  and  C_36
REMARK   11  A    between atoms: C_36  and  O_37
REMARK                            x       y       z     vdW  Elec       q    Type
REMARK                         _______ _______ _______ _____ _____    ______ ____
ROOT
ATOM      1  C   UNL     1      35.341 -17.825 -21.945  0.00  0.00    +0.149 C 
ENDROOT
BRANCH   1   4
ATOM      2  O   UNL     1      34.895 -16.300 -20.121  0.00  0.00    -0.273 OA
ATOM      3  N   UNL     1      34.630 -15.539 -22.299  0.00  0.00    -0.306 N 
ATOM      4  C   UNL     1      34.947 -16.485 -21.336  0.00  0.00    +0.240 C 
ATOM      5  H   UNL     1      34.705 -15.793 -23.247  0.00  0.00    +0.149 HD
BRANCH   3   6
ATOM      6  C   UNL     1      34.193 -14.199 -21.979  0.00  0.00    +0.061 C 
ATOM      7  C   UNL     1      35.110 -13.615 -20.894  0.00  0.00    +0.020 C 
ATOM      8  C   UNL     1      34.325 -13.340 -23.247  0.00  0.00    +0.020 C 
BRANCH   6   9
ATOM      9  C   UNL     1      32.706 -14.200 -21.537  0.00  0.00    +0.044 C 
BRANCH   9  11
ATOM     10  F   UNL     1      30.729  -9.317 -19.521  0.00  0.00    -0.204 F 
ATOM     11  C   UNL     1      32.176 -12.891 -20.996  0.00  0.00    -0.020 C 
ATOM     12  C   UNL     1      32.378 -12.556 -19.657  0.00  0.00    -0.002 C 
ATOM     13  C   UNL     1      31.485 -12.019 -21.837  0.00  0.00    -0.002 C 
ATOM     14  C   UNL     1      31.890 -11.348 -19.159  0.00  0.00    +0.029 C 
ATOM     15  C   UNL     1      30.997 -10.811 -21.339  0.00  0.00    +0.029 C 
ATOM     16  C   UNL     1      31.199 -10.476 -20.000  0.00  0.00    +0.140 C 
ENDBRANCH   9  11
ENDBRANCH   6   9
ENDBRANCH   3   6
ENDBRANCH   1   4
BRANCH   1  18
ATOM     17  O   UNL     1      35.000 -20.672 -22.085  0.00  0.00    -0.270 OA
ATOM     18  N   UNL     1      35.390 -18.753 -20.842  0.00  0.00    -0.295 N 
ATOM     19  C   UNL     1      35.213 -20.119 -21.009  0.00  0.00    +0.246 C 
ATOM     20  H   UNL     1      35.555 -18.405 -19.937  0.00  0.00    +0.150 HD
BRANCH  19  21
ATOM     21  C   UNL     1      35.265 -20.937 -19.771  0.00  0.00    +0.053 C 
ATOM     22  C   UNL     1      36.458 -21.047 -19.056  0.00  0.00    +0.005 C 
ATOM     23  C   UNL     1      34.120 -21.595 -19.322  0.00  0.00    +0.005 C 
ATOM     24  C   UNL     1      35.361 -22.474 -17.444  0.00  0.00    +0.000 C 
ATOM     25  C   UNL     1      36.506 -21.816 -17.893  0.00  0.00    +0.000 C 
ATOM     26  C   UNL     1      34.167 -22.364 -18.158  0.00  0.00    +0.000 C 
BRANCH  24  27
ATOM     27  C   UNL     1      35.410 -23.271 -16.238  0.00  0.00    +0.000 C 
ATOM     28  C   UNL     1      34.251 -23.878 -15.755  0.00  0.00    +0.000 C 
ATOM     29  C   UNL     1      36.618 -23.435 -15.559  0.00  0.00    +0.000 C 
ATOM     30  C   UNL     1      34.299 -24.647 -14.592  0.00  0.00    +0.000 C 
ATOM     31  C   UNL     1      36.665 -24.204 -14.396  0.00  0.00    +0.000 C 
ATOM     32  C   UNL     1      35.506 -24.810 -13.913  0.00  0.00    +0.000 C 
ENDBRANCH  24  27
ENDBRANCH  19  21
ENDBRANCH   1  18
BRANCH   1  33
ATOM     33  C   UNL     1      34.330 -18.289 -23.000  0.00  0.00    +0.041 C 
BRANCH  33  34
ATOM     34  C   UNL     1      34.668 -17.859 -24.429  0.00  0.00    +0.112 C 
BRANCH  34  36
ATOM     35  O   UNL     1      33.635 -15.925 -25.490  0.00  0.00    -0.250 OA
ATOM     36  C   UNL     1      33.557 -17.081 -25.099  0.00  0.00    +0.314 C 
BRANCH  36  37
ATOM     37  O   UNL     1      32.440 -17.839 -25.250  0.00  0.00    -0.480 OA
ATOM     38  H   UNL     1      32.471 -18.760 -25.076  0.00  0.00    +0.295 HD
ENDBRANCH  36  37
ENDBRANCH  34  36
ENDBRANCH  33  34
ENDBRANCH   1  33
TORSDOF 11
ENDMDL
MODEL 9
REMARK VINA RESULT:     -10.0     10.905     16.227
REMARK  Name = 16048422
REMARK  11 active torsions:
REMARK  status: ('A' for Active; 'I' for Inactive)
REMARK    1  A    between atoms: C_1  and  C_4
REMARK    2  A    between atoms: C_1  and  N_18
REMARK    3  A    between atoms: C_1  and  C_33
REMARK    4  A    between atoms: N_3  and  C_6
REMARK    5  A    between atoms: C_6  and  C_9
REMARK    6  A    between atoms: C_9  and  C_11
REMARK    7  A    between atoms: C_19  and  C_21
REMARK    8  A    between atoms: C_24  and  C_27
REMARK    9  A    between atoms: C_33  and  C_34
REMARK   10  A    between atoms: C_34  and  C_36
REMARK   11  A    between atoms: C_36  and  O_37
REMARK                            x       y       z     vdW  Elec       q    Type
REMARK                         _______ _______ _______ _____ _____    ______ ____
ROOT
ATOM      1  C   UNL     1      32.219  -9.183 -23.351  0.00  0.00    +0.149 C 
ENDROOT
BRANCH   1   4
ATOM      2  O   UNL     1      34.535  -8.616 -23.758  0.00  0.00    -0.273 OA
ATOM      3  N   UNL     1      32.881  -7.277 -24.687  0.00  0.00    -0.306 N 
ATOM      4  C   UNL     1      33.349  -8.354 -23.949  0.00  0.00    +0.240 C 
ATOM      5  H   UNL     1      31.907  -7.159 -24.777  0.00  0.00    +0.149 HD
BRANCH   3   6
ATOM      6  C   UNL     1      33.752  -6.320 -25.329  0.00  0.00    +0.061 C 
ATOM      7  C   UNL     1      34.936  -6.011 -24.400  0.00  0.00    +0.020 C 
ATOM      8  C   UNL     1      34.294  -6.959 -26.618  0.00  0.00    +0.020 C 
BRANCH   6   9
ATOM      9  C   UNL     1      32.968  -5.036 -25.709  0.00  0.00    +0.044 C 
BRANCH   9  11
ATOM     10  F   UNL     1      30.946  -2.012 -21.398  0.00  0.00    -0.204 F 
ATOM     11  C   UNL     1      32.426  -4.225 -24.553  0.00  0.00    -0.020 C 
ATOM     12  C   UNL     1      31.795  -4.867 -23.487  0.00  0.00    -0.002 C 
ATOM     13  C   UNL     1      32.557  -2.837 -24.554  0.00  0.00    -0.002 C 
ATOM     14  C   UNL     1      31.296  -4.119 -22.421  0.00  0.00    +0.029 C 
ATOM     15  C   UNL     1      32.058  -2.089 -23.487  0.00  0.00    +0.029 C 
ATOM     16  C   UNL     1      31.427  -2.730 -22.421  0.00  0.00    +0.140 C 
ENDBRANCH   9  11
ENDBRANCH   6   9
ENDBRANCH   3   6
ENDBRANCH   1   4
BRANCH   1  18
ATOM     17  O   UNL     1      31.104 -11.324 -21.796  0.00  0.00    -0.270 OA
ATOM     18  N   UNL     1      32.743 -10.521 -23.227  0.00  0.00    -0.295 N 
ATOM     19  C   UNL     1      32.131 -11.492 -22.448  0.00  0.00    +0.246 C 
ATOM     20  H   UNL     1      33.566 -10.754 -23.714  0.00  0.00    +0.150 HD
BRANCH  19  21
ATOM     21  C   UNL     1      32.811 -12.813 -22.403  0.00  0.00    +0.053 C 
ATOM     22  C   UNL     1      33.153 -13.462 -23.589  0.00  0.00    +0.005 C 
ATOM     23  C   UNL     1      33.107 -13.402 -21.174  0.00  0.00    +0.005 C 
ATOM     24  C   UNL     1      34.087 -15.291 -22.318  0.00  0.00    +0.000 C 
ATOM     25  C   UNL     1      33.791 -14.702 -23.546  0.00  0.00    +0.000 C 
ATOM     26  C   UNL     1      33.746 -14.642 -21.131  0.00  0.00    +0.000 C 
BRANCH  24  27
ATOM     27  C   UNL     1      34.749 -16.577 -22.273  0.00  0.00    +0.000 C 
ATOM     28  C   UNL     1      34.832 -17.360 -23.424  0.00  0.00    +0.000 C 
ATOM     29  C   UNL     1      35.306 -17.034 -21.078  0.00  0.00    +0.000 C 
ATOM     30  C   UNL     1      35.471 -18.599 -23.381  0.00  0.00    +0.000 C 
ATOM     31  C   UNL     1      35.945 -18.274 -21.035  0.00  0.00    +0.000 C 
ATOM     32  C   UNL     1      36.027 -19.056 -22.187  0.00  0.00    +0.000 C 
ENDBRANCH  24  27
ENDBRANCH  19  21
ENDBRANCH   1  18
BRANCH   1  33
ATOM     33  C   UNL     1      31.780  -8.644 -21.984  0.00  0.00    +0.041 C 
BRANCH  33  34
ATOM     34  C   UNL     1      32.854  -7.840 -21.249  0.00  0.00    +0.112 C 
BRANCH  34  36
ATOM     35  O   UNL     1      32.150  -8.844 -19.144  0.00  0.00    -0.250 OA
ATOM     36  C   UNL     1      32.793  -7.995 -19.745  0.00  0.00    +0.314 C 
BRANCH  36  37
ATOM     37  O   UNL     1      33.578  -7.080 -19.119  0.00  0.00    -0.480 OA
ATOM     38  H   UNL     1      34.483  -7.266 -18.963  0.00  0.00    +0.295 HD
ENDBRANCH  36  37
ENDBRANCH  34  36
ENDBRANCH  33  34
ENDBRANCH   1  33
TORSDOF 11
ENDMDL
