MODEL 1
REMARK VINA RESULT:     -11.9      0.000      0.000
REMARK  Name = 24764443
REMARK  5 active torsions:
REMARK  status: ('A' for Active; 'I' for Inactive)
REMARK    1  A    between atoms: C_2  and  C_17
REMARK    2  A    between atoms: C_3  and  N_19
REMARK    3  A    between atoms: C_20  and  C_22
REMARK    4  A    between atoms: C_22  and  C_23
REMARK    5  A    between atoms: C_23  and  C_31
REMARK                            x       y       z     vdW  Elec       q    Type
REMARK                         _______ _______ _______ _____ _____    ______ ____
ROOT
ATOM      1 BR   UNL     1      36.666 -24.187 -13.612  0.00  0.00    -0.049 Br
ATOM      2  C   UNL     1      34.429 -22.963 -16.901  0.00  0.00    +0.068 C 
ATOM      3  C   UNL     1      35.370 -22.309 -17.697  0.00  0.00    +0.055 C 
ATOM      4  C   UNL     1      34.816 -23.523 -15.684  0.00  0.00    +0.012 C 
ATOM      5  C   UNL     1      36.696 -22.214 -17.275  0.00  0.00    +0.015 C 
ATOM      6  C   UNL     1      36.142 -23.428 -15.261  0.00  0.00    +0.035 C 
ATOM      7  C   UNL     1      37.082 -22.774 -16.057  0.00  0.00    +0.008 C 
ENDROOT
BRANCH   2  17
ATOM      8  O   UNL     1      32.780 -22.788 -18.485  0.00  0.00    -0.270 OA
ATOM      9  N   UNL     1      32.090 -23.499 -16.367  0.00  0.00    -0.276 N 
ATOM     10  C   UNL     1      29.807 -22.760 -15.813  0.00  0.00    +0.020 C 
ATOM     11  C   UNL     1      31.572 -23.020 -14.006  0.00  0.00    +0.020 C 
ATOM     12  C   UNL     1      30.073 -23.115 -14.340  0.00  0.00    +0.003 C 
ATOM     13  C   UNL     1      30.681 -23.615 -16.741  0.00  0.00    +0.094 C 
ATOM     14  C   UNL     1      32.389 -23.877 -14.979  0.00  0.00    +0.094 C 
ATOM     15  C   UNL     1      28.328 -22.930 -16.154  0.00  0.00    +0.002 C 
ATOM     16  C   UNL     1      31.833 -23.442 -12.562  0.00  0.00    +0.002 C 
ATOM     17  C   UNL     1      33.026 -23.081 -17.317  0.00  0.00    +0.250 C 
ENDBRANCH   2  17
BRANCH   3  19
ATOM     18  O   UNL     1      36.852 -20.388 -19.468  0.00  0.00    -0.275 OA
ATOM     19  N   UNL     1      35.006 -21.740 -18.922  0.00  0.00    -0.284 N 
ATOM     20  C   UNL     1      35.739 -20.843 -19.711  0.00  0.00    +0.227 C 
ATOM     21  H   UNL     1      34.124 -22.002 -19.273  0.00  0.00    +0.155 HD
BRANCH  20  22
ATOM     22  C   UNL     1      34.974 -20.471 -20.973  0.00  0.00    +0.095 C 
BRANCH  22  23
ATOM     23  C   UNL     1      34.981 -18.973 -21.241  0.00  0.00    +0.095 C 
BRANCH  23  31
ATOM     24  O   UNL     1      34.133 -14.779 -23.921  0.00  0.00    -0.350 OA
ATOM     25  O   UNL     1      34.676 -19.675 -23.485  0.00  0.00    -0.275 OA
ATOM     26  N   UNL     1      34.843 -17.388 -23.127  0.00  0.00    -0.274 N 
ATOM     27  C   UNL     1      35.139 -16.239 -22.264  0.00  0.00    +0.125 C 
ATOM     28  C   UNL     1      34.689 -17.053 -24.543  0.00  0.00    +0.125 C 
ATOM     29  C   UNL     1      34.150 -15.111 -22.530  0.00  0.00    +0.164 C 
ATOM     30  C   UNL     1      33.715 -15.895 -24.710  0.00  0.00    +0.164 C 
ATOM     31  C   UNL     1      34.820 -18.720 -22.719  0.00  0.00    +0.226 C 
ENDBRANCH  23  31
ENDBRANCH  22  23
ENDBRANCH  20  22
ENDBRANCH   3  19
TORSDOF 5
ENDMDL
MODEL 2
REMARK VINA RESULT:     -11.2      2.779      5.211
REMARK  Name = 24764443
REMARK  5 active torsions:
REMARK  status: ('A' for Active; 'I' for Inactive)
REMARK    1  A    between atoms: C_2  and  C_17
REMARK    2  A    between atoms: C_3  and  N_19
REMARK    3  A    between atoms: C_20  and  C_22
REMARK    4  A    between atoms: C_22  and  C_23
REMARK    5  A    between atoms: C_23  and  C_31
REMARK                            x       y       z     vdW  Elec       q    Type
REMARK                         _______ _______ _______ _____ _____    ______ ____
ROOT
ATOM      1 BR   UNL     1      30.821 -25.248 -12.732  0.00  0.00    -0.049 Br
ATOM      2  C   UNL     1      34.247 -24.511 -14.976  0.00  0.00    +0.068 C 
ATOM      3  C   UNL     1      33.911 -23.365 -15.698  0.00  0.00    +0.055 C 
ATOM      4  C   UNL     1      33.326 -25.072 -14.091  0.00  0.00    +0.012 C 
ATOM      5  C   UNL     1      32.655 -22.781 -15.536  0.00  0.00    +0.015 C 
ATOM      6  C   UNL     1      32.069 -24.489 -13.930  0.00  0.00    +0.035 C 
ATOM      7  C   UNL     1      31.734 -23.344 -14.652  0.00  0.00    +0.008 C 
ENDROOT
BRANCH   2  17
ATOM      8  O   UNL     1      35.635 -26.057 -15.949  0.00  0.00    -0.270 OA
ATOM      9  N   UNL     1      36.609 -24.692 -14.319  0.00  0.00    -0.276 N 
ATOM     10  C   UNL     1      38.391 -25.836 -13.061  0.00  0.00    +0.020 C 
ATOM     11  C   UNL     1      36.938 -24.069 -11.957  0.00  0.00    +0.020 C 
ATOM     12  C   UNL     1      38.332 -24.719 -12.005  0.00  0.00    +0.003 C 
ATOM     13  C   UNL     1      37.930 -25.311 -14.428  0.00  0.00    +0.094 C 
ATOM     14  C   UNL     1      36.529 -23.588 -13.354  0.00  0.00    +0.094 C 
ATOM     15  C   UNL     1      39.797 -26.422 -13.153  0.00  0.00    +0.002 C 
ATOM     16  C   UNL     1      36.912 -22.916 -10.957  0.00  0.00    +0.002 C 
ATOM     17  C   UNL     1      35.561 -25.149 -15.123  0.00  0.00    +0.250 C 
ENDBRANCH   2  17
BRANCH   3  19
ATOM     18  O   UNL     1      33.918 -23.303 -18.701  0.00  0.00    -0.275 OA
ATOM     19  N   UNL     1      34.819 -22.785 -16.590  0.00  0.00    -0.284 N 
ATOM     20  C   UNL     1      34.775 -22.786 -17.991  0.00  0.00    +0.227 C 
ATOM     21  H   UNL     1      35.584 -22.318 -16.183  0.00  0.00    +0.155 HD
BRANCH  20  22
ATOM     22  C   UNL     1      35.963 -22.036 -18.578  0.00  0.00    +0.095 C 
BRANCH  22  23
ATOM     23  C   UNL     1      35.725 -21.595 -20.014  0.00  0.00    +0.095 C 
BRANCH  23  31
ATOM     24  O   UNL     1      34.460 -18.053 -23.383  0.00  0.00    -0.350 OA
ATOM     25  O   UNL     1      37.065 -19.704 -19.517  0.00  0.00    -0.275 OA
ATOM     26  N   UNL     1      35.380 -19.399 -21.084  0.00  0.00    -0.274 N 
ATOM     27  C   UNL     1      34.178 -19.859 -21.787  0.00  0.00    +0.125 C 
ATOM     28  C   UNL     1      35.702 -17.988 -21.305  0.00  0.00    +0.125 C 
ATOM     29  C   UNL     1      34.240 -19.460 -23.256  0.00  0.00    +0.164 C 
ATOM     30  C   UNL     1      35.706 -17.673 -22.794  0.00  0.00    +0.164 C 
ATOM     31  C   UNL     1      36.122 -20.150 -20.176  0.00  0.00    +0.226 C 
ENDBRANCH  23  31
ENDBRANCH  22  23
ENDBRANCH  20  22
ENDBRANCH   3  19
TORSDOF 5
ENDMDL
MODEL 3
REMARK VINA RESULT:     -10.7      9.188     15.716
REMARK  Name = 24764443
REMARK  5 active torsions:
REMARK  status: ('A' for Active; 'I' for Inactive)
REMARK    1  A    between atoms: C_2  and  C_17
REMARK    2  A    between atoms: C_3  and  N_19
REMARK    3  A    between atoms: C_20  and  C_22
REMARK    4  A    between atoms: C_22  and  C_23
REMARK    5  A    between atoms: C_23  and  C_31
REMARK                            x       y       z     vdW  Elec       q    Type
REMARK                         _______ _______ _______ _____ _____    ______ ____
ROOT
ATOM      1 BR   UNL     1      31.566  -3.485 -21.504  0.00  0.00    -0.049 Br
ATOM      2  C   UNL     1      33.367  -6.917 -23.021  0.00  0.00    +0.068 C 
ATOM      3  C   UNL     1      32.766  -7.940 -22.287  0.00  0.00    +0.055 C 
ATOM      4  C   UNL     1      33.009  -5.589 -22.788  0.00  0.00    +0.012 C 
ATOM      5  C   UNL     1      31.808  -7.635 -21.320  0.00  0.00    +0.015 C 
ATOM      6  C   UNL     1      32.052  -5.284 -21.820  0.00  0.00    +0.035 C 
ATOM      7  C   UNL     1      31.451  -6.307 -21.087  0.00  0.00    +0.008 C 
ENDROOT
BRANCH   2  17
ATOM      8  O   UNL     1      35.318  -7.916 -23.698  0.00  0.00    -0.270 OA
ATOM      9  N   UNL     1      34.205  -6.648 -25.316  0.00  0.00    -0.276 N 
ATOM     10  C   UNL     1      35.746  -5.579 -26.912  0.00  0.00    +0.020 C 
ATOM     11  C   UNL     1      33.557  -4.467 -26.263  0.00  0.00    +0.020 C 
ATOM     12  C   UNL     1      34.597  -4.669 -27.379  0.00  0.00    +0.003 C 
ATOM     13  C   UNL     1      35.198  -6.901 -26.360  0.00  0.00    +0.094 C 
ATOM     14  C   UNL     1      33.067  -5.822 -25.742  0.00  0.00    +0.094 C 
ATOM     15  C   UNL     1      36.732  -5.834 -28.049  0.00  0.00    +0.002 C 
ATOM     16  C   UNL     1      32.387  -3.622 -26.760  0.00  0.00    +0.002 C 
ATOM     17  C   UNL     1      34.378  -7.204 -24.046  0.00  0.00    +0.250 C 
ENDBRANCH   2  17
BRANCH   3  19
ATOM     18  O   UNL     1      31.029 -10.379 -22.521  0.00  0.00    -0.275 OA
ATOM     19  N   UNL     1      33.108  -9.278 -22.504  0.00  0.00    -0.284 N 
ATOM     20  C   UNL     1      32.253 -10.385 -22.604  0.00  0.00    +0.227 C 
ATOM     21  H   UNL     1      34.070  -9.467 -22.597  0.00  0.00    +0.155 HD
BRANCH  20  22
ATOM     22  C   UNL     1      33.039 -11.666 -22.844  0.00  0.00    +0.095 C 
BRANCH  22  23
ATOM     23  C   UNL     1      32.339 -12.895 -22.282  0.00  0.00    +0.095 C 
BRANCH  23  31
ATOM     24  O   UNL     1      34.536 -16.466 -25.094  0.00  0.00    -0.350 OA
ATOM     25  O   UNL     1      33.638 -14.203 -20.790  0.00  0.00    -0.275 OA
ATOM     26  N   UNL     1      33.925 -14.619 -23.055  0.00  0.00    -0.274 N 
ATOM     27  C   UNL     1      33.712 -14.273 -24.465  0.00  0.00    +0.125 C 
ATOM     28  C   UNL     1      34.920 -15.671 -22.839  0.00  0.00    +0.125 C 
ATOM     29  C   UNL     1      33.471 -15.532 -25.287  0.00  0.00    +0.164 C 
ATOM     30  C   UNL     1      34.622 -16.872 -23.726  0.00  0.00    +0.164 C 
ATOM     31  C   UNL     1      33.358 -13.961 -21.967  0.00  0.00    +0.226 C 
ENDBRANCH  23  31
ENDBRANCH  22  23
ENDBRANCH  20  22
ENDBRANCH   3  19
TORSDOF 5
ENDMDL
MODEL 4
REMARK VINA RESULT:     -10.3      2.635      5.113
REMARK  Name = 24764443
REMARK  5 active torsions:
REMARK  status: ('A' for Active; 'I' for Inactive)
REMARK    1  A    between atoms: C_2  and  C_17
REMARK    2  A    between atoms: C_3  and  N_19
REMARK    3  A    between atoms: C_20  and  C_22
REMARK    4  A    between atoms: C_22  and  C_23
REMARK    5  A    between atoms: C_23  and  C_31
REMARK                            x       y       z     vdW  Elec       q    Type
REMARK                         _______ _______ _______ _____ _____    ______ ____
ROOT
ATOM      1 BR   UNL     1      31.163 -24.712 -13.238  0.00  0.00    -0.049 Br
ATOM      2  C   UNL     1      34.629 -23.370 -15.109  0.00  0.00    +0.068 C 
ATOM      3  C   UNL     1      34.199 -23.091 -16.407  0.00  0.00    +0.055 C 
ATOM      4  C   UNL     1      33.723 -23.852 -14.165  0.00  0.00    +0.012 C 
ATOM      5  C   UNL     1      32.865 -23.295 -16.760  0.00  0.00    +0.015 C 
ATOM      6  C   UNL     1      32.390 -24.058 -14.517  0.00  0.00    +0.035 C 
ATOM      7  C   UNL     1      31.961 -23.779 -15.815  0.00  0.00    +0.008 C 
ENDROOT
BRANCH   2  17
ATOM      8  O   UNL     1      36.471 -22.027 -14.851  0.00  0.00    -0.270 OA
ATOM      9  N   UNL     1      36.735 -24.259 -14.207  0.00  0.00    -0.276 N 
ATOM     10  C   UNL     1      39.027 -25.086 -14.565  0.00  0.00    +0.020 C 
ATOM     11  C   UNL     1      37.028 -26.638 -14.779  0.00  0.00    +0.020 C 
ATOM     12  C   UNL     1      38.512 -26.525 -14.388  0.00  0.00    +0.003 C 
ATOM     13  C   UNL     1      38.133 -24.096 -13.807  0.00  0.00    +0.094 C 
ATOM     14  C   UNL     1      36.195 -25.610 -14.006  0.00  0.00    +0.094 C 
ATOM     15  C   UNL     1      40.478 -24.969 -14.103  0.00  0.00    +0.002 C 
ATOM     16  C   UNL     1      36.509 -28.052 -14.532  0.00  0.00    +0.002 C 
ATOM     17  C   UNL     1      36.025 -23.164 -14.706  0.00  0.00    +0.250 C 
ENDBRANCH   2  17
BRANCH   3  19
ATOM     18  O   UNL     1      33.727 -22.296 -19.265  0.00  0.00    -0.275 OA
ATOM     19  N   UNL     1      35.089 -22.605 -17.371  0.00  0.00    -0.284 N 
ATOM     20  C   UNL     1      34.814 -22.248 -18.699  0.00  0.00    +0.227 C 
ATOM     21  H   UNL     1      36.024 -22.501 -17.081  0.00  0.00    +0.155 HD
BRANCH  20  22
ATOM     22  C   UNL     1      36.072 -21.765 -19.408  0.00  0.00    +0.095 C 
BRANCH  22  23
ATOM     23  C   UNL     1      35.781 -21.188 -20.785  0.00  0.00    +0.095 C 
BRANCH  23  31
ATOM     24  O   UNL     1      34.345 -17.486 -23.904  0.00  0.00    -0.350 OA
ATOM     25  O   UNL     1      36.815 -19.211 -19.982  0.00  0.00    -0.275 OA
ATOM     26  N   UNL     1      35.241 -18.948 -21.667  0.00  0.00    -0.274 N 
ATOM     27  C   UNL     1      34.172 -19.474 -22.524  0.00  0.00    +0.125 C 
ATOM     28  C   UNL     1      35.391 -17.493 -21.719  0.00  0.00    +0.125 C 
ATOM     29  C   UNL     1      34.303 -18.915 -23.934  0.00  0.00    +0.164 C 
ATOM     30  C   UNL     1      35.476 -17.021 -23.164  0.00  0.00    +0.164 C 
ATOM     31  C   UNL     1      35.997 -19.696 -20.768  0.00  0.00    +0.226 C 
ENDBRANCH  23  31
ENDBRANCH  22  23
ENDBRANCH  20  22
ENDBRANCH   3  19
TORSDOF 5
ENDMDL
MODEL 5
REMARK VINA RESULT:     -10.3      7.293     13.180
REMARK  Name = 24764443
REMARK  5 active torsions:
REMARK  status: ('A' for Active; 'I' for Inactive)
REMARK    1  A    between atoms: C_2  and  C_17
REMARK    2  A    between atoms: C_3  and  N_19
REMARK    3  A    between atoms: C_20  and  C_22
REMARK    4  A    between atoms: C_22  and  C_23
REMARK    5  A    between atoms: C_23  and  C_31
REMARK                            x       y       z     vdW  Elec       q    Type
REMARK                         _______ _______ _______ _____ _____    ______ ____
ROOT
ATOM      1 BR   UNL     1      31.033  -8.655 -18.676  0.00  0.00    -0.049 Br
ATOM      2  C   UNL     1      32.805 -10.132 -22.140  0.00  0.00    +0.068 C 
ATOM      3  C   UNL     1      32.419 -11.473 -22.146  0.00  0.00    +0.055 C 
ATOM      4  C   UNL     1      32.391  -9.293 -21.107  0.00  0.00    +0.012 C 
ATOM      5  C   UNL     1      31.620 -11.974 -21.117  0.00  0.00    +0.015 C 
ATOM      6  C   UNL     1      31.594  -9.793 -20.078  0.00  0.00    +0.035 C 
ATOM      7  C   UNL     1      31.208 -11.133 -20.083  0.00  0.00    +0.008 C 
ENDROOT
BRANCH   2  17
ATOM      8  O   UNL     1      34.605 -10.258 -23.557  0.00  0.00    -0.270 OA
ATOM      9  N   UNL     1      33.300  -8.326 -23.732  0.00  0.00    -0.276 N 
ATOM     10  C   UNL     1      34.616  -6.343 -24.366  0.00  0.00    +0.020 C 
ATOM     11  C   UNL     1      32.579  -6.135 -22.863  0.00  0.00    +0.020 C 
ATOM     12  C   UNL     1      33.436  -5.451 -23.942  0.00  0.00    +0.003 C 
ATOM     13  C   UNL     1      34.119  -7.732 -24.789  0.00  0.00    +0.094 C 
ATOM     14  C   UNL     1      32.135  -7.523 -23.337  0.00  0.00    +0.094 C 
ATOM     15  C   UNL     1      35.415  -5.688 -25.490  0.00  0.00    +0.002 C 
ATOM     16  C   UNL     1      31.373  -5.273 -22.502  0.00  0.00    +0.002 C 
ATOM     17  C   UNL     1      33.643  -9.575 -23.209  0.00  0.00    +0.250 C 
ENDBRANCH   2  17
BRANCH   3  19
ATOM     18  O   UNL     1      34.166 -13.915 -22.065  0.00  0.00    -0.275 OA
ATOM     19  N   UNL     1      32.820 -12.334 -23.173  0.00  0.00    -0.284 N 
ATOM     20  C   UNL     1      33.643 -13.466 -23.080  0.00  0.00    +0.227 C 
ATOM     21  H   UNL     1      32.484 -12.118 -24.072  0.00  0.00    +0.155 HD
BRANCH  20  22
ATOM     22  C   UNL     1      33.829 -14.120 -24.441  0.00  0.00    +0.095 C 
BRANCH  22  23
ATOM     23  C   UNL     1      34.884 -15.218 -24.423  0.00  0.00    +0.095 C 
BRANCH  23  31
ATOM     24  O   UNL     1      35.519 -19.631 -22.054  0.00  0.00    -0.350 OA
ATOM     25  O   UNL     1      33.500 -16.777 -25.551  0.00  0.00    -0.275 OA
ATOM     26  N   UNL     1      34.478 -17.498 -23.575  0.00  0.00    -0.274 N 
ATOM     27  C   UNL     1      35.224 -17.239 -22.338  0.00  0.00    +0.125 C 
ATOM     28  C   UNL     1      33.878 -18.831 -23.646  0.00  0.00    +0.125 C 
ATOM     29  C   UNL     1      36.202 -18.375 -22.064  0.00  0.00    +0.164 C 
ATOM     30  C   UNL     1      34.916 -19.897 -23.322  0.00  0.00    +0.164 C 
ATOM     31  C   UNL     1      34.221 -16.563 -24.574  0.00  0.00    +0.226 C 
ENDBRANCH  23  31
ENDBRANCH  22  23
ENDBRANCH  20  22
ENDBRANCH   3  19
TORSDOF 5
ENDMDL
MODEL 6
REMARK VINA RESULT:     -10.2      1.540      2.240
REMARK  Name = 24764443
REMARK  5 active torsions:
REMARK  status: ('A' for Active; 'I' for Inactive)
REMARK    1  A    between atoms: C_2  and  C_17
REMARK    2  A    between atoms: C_3  and  N_19
REMARK    3  A    between atoms: C_20  and  C_22
REMARK    4  A    between atoms: C_22  and  C_23
REMARK    5  A    between atoms: C_23  and  C_31
REMARK                            x       y       z     vdW  Elec       q    Type
REMARK                         _______ _______ _______ _____ _____    ______ ____
ROOT
ATOM      1 BR   UNL     1      35.491 -24.245 -11.546  0.00  0.00    -0.049 Br
ATOM      2  C   UNL     1      34.703 -23.320 -15.526  0.00  0.00    +0.068 C 
ATOM      3  C   UNL     1      35.973 -23.091 -16.055  0.00  0.00    +0.055 C 
ATOM      4  C   UNL     1      34.559 -23.665 -14.183  0.00  0.00    +0.012 C 
ATOM      5  C   UNL     1      37.100 -23.205 -15.240  0.00  0.00    +0.015 C 
ATOM      6  C   UNL     1      35.685 -23.778 -13.367  0.00  0.00    +0.035 C 
ATOM      7  C   UNL     1      36.955 -23.549 -13.896  0.00  0.00    +0.008 C 
ENDROOT
BRANCH   2  17
ATOM      8  O   UNL     1      33.627 -22.609 -17.423  0.00  0.00    -0.270 OA
ATOM      9  N   UNL     1      32.313 -23.775 -15.880  0.00  0.00    -0.276 N 
ATOM     10  C   UNL     1      29.971 -23.012 -15.857  0.00  0.00    +0.020 C 
ATOM     11  C   UNL     1      31.088 -23.872 -13.744  0.00  0.00    +0.020 C 
ATOM     12  C   UNL     1      29.767 -23.751 -14.523  0.00  0.00    +0.003 C 
ATOM     13  C   UNL     1      31.089 -23.673 -16.674  0.00  0.00    +0.094 C 
ATOM     14  C   UNL     1      32.165 -24.518 -14.621  0.00  0.00    +0.094 C 
ATOM     15  C   UNL     1      28.671 -22.965 -16.655  0.00  0.00    +0.002 C 
ATOM     16  C   UNL     1      30.887 -24.668 -12.457  0.00  0.00    +0.002 C 
ATOM     17  C   UNL     1      33.498 -23.210 -16.358  0.00  0.00    +0.250 C 
ENDBRANCH   2  17
BRANCH   3  19
ATOM     18  O   UNL     1      37.198 -20.645 -17.296  0.00  0.00    -0.275 OA
ATOM     19  N   UNL     1      36.142 -22.745 -17.400  0.00  0.00    -0.284 N 
ATOM     20  C   UNL     1      36.723 -21.583 -17.928  0.00  0.00    +0.227 C 
ATOM     21  H   UNL     1      35.811 -23.398 -18.057  0.00  0.00    +0.155 HD
BRANCH  20  22
ATOM     22  C   UNL     1      36.707 -21.605 -19.450  0.00  0.00    +0.095 C 
BRANCH  22  23
ATOM     23  C   UNL     1      35.497 -20.889 -20.032  0.00  0.00    +0.095 C 
BRANCH  23  31
ATOM     24  O   UNL     1      34.083 -18.165 -24.041  0.00  0.00    -0.350 OA
ATOM     25  O   UNL     1      36.894 -18.973 -20.053  0.00  0.00    -0.275 OA
ATOM     26  N   UNL     1      35.121 -18.982 -21.552  0.00  0.00    -0.274 N 
ATOM     27  C   UNL     1      33.872 -19.555 -22.064  0.00  0.00    +0.125 C 
ATOM     28  C   UNL     1      35.451 -17.668 -22.105  0.00  0.00    +0.125 C 
ATOM     29  C   UNL     1      33.850 -19.500 -23.586  0.00  0.00    +0.164 C 
ATOM     30  C   UNL     1      35.368 -17.697 -23.625  0.00  0.00    +0.164 C 
ATOM     31  C   UNL     1      35.906 -19.529 -20.539  0.00  0.00    +0.226 C 
ENDBRANCH  23  31
ENDBRANCH  22  23
ENDBRANCH  20  22
ENDBRANCH   3  19
TORSDOF 5
ENDMDL
MODEL 7
REMARK VINA RESULT:     -10.1      9.126     16.253
REMARK  Name = 24764443
REMARK  5 active torsions:
REMARK  status: ('A' for Active; 'I' for Inactive)
REMARK    1  A    between atoms: C_2  and  C_17
REMARK    2  A    between atoms: C_3  and  N_19
REMARK    3  A    between atoms: C_20  and  C_22
REMARK    4  A    between atoms: C_22  and  C_23
REMARK    5  A    between atoms: C_23  and  C_31
REMARK                            x       y       z     vdW  Elec       q    Type
REMARK                         _______ _______ _______ _____ _____    ______ ____
ROOT
ATOM      1 BR   UNL     1      30.931  -2.932 -21.792  0.00  0.00    -0.049 Br
ATOM      2  C   UNL     1      33.244  -6.189 -22.959  0.00  0.00    +0.068 C 
ATOM      3  C   UNL     1      32.638  -7.259 -22.300  0.00  0.00    +0.055 C 
ATOM      4  C   UNL     1      32.735  -4.899 -22.808  0.00  0.00    +0.012 C 
ATOM      5  C   UNL     1      31.524  -7.039 -21.490  0.00  0.00    +0.015 C 
ATOM      6  C   UNL     1      31.622  -4.679 -21.997  0.00  0.00    +0.035 C 
ATOM      7  C   UNL     1      31.016  -5.749 -21.338  0.00  0.00    +0.008 C 
ENDROOT
BRANCH   2  17
ATOM      8  O   UNL     1      35.388  -6.930 -23.297  0.00  0.00    -0.270 OA
ATOM      9  N   UNL     1      34.347  -5.941 -25.141  0.00  0.00    -0.276 N 
ATOM     10  C   UNL     1      35.934  -4.756 -26.607  0.00  0.00    +0.020 C 
ATOM     11  C   UNL     1      33.544  -3.940 -26.336  0.00  0.00    +0.020 C 
ATOM     12  C   UNL     1      34.746  -4.055 -27.289  0.00  0.00    +0.003 C 
ATOM     13  C   UNL     1      35.501  -6.109 -26.025  0.00  0.00    +0.094 C 
ATOM     14  C   UNL     1      33.177  -5.318 -25.774  0.00  0.00    +0.094 C 
ATOM     15  C   UNL     1      37.094  -4.932 -27.583  0.00  0.00    +0.002 C 
ATOM     16  C   UNL     1      32.349  -3.308 -27.045  0.00  0.00    +0.002 C 
ATOM     17  C   UNL     1      34.417  -6.387 -23.819  0.00  0.00    +0.250 C 
ENDBRANCH   2  17
BRANCH   3  19
ATOM     18  O   UNL     1      31.691  -9.525 -24.030  0.00  0.00    -0.275 OA
ATOM     19  N   UNL     1      33.130  -8.561 -22.437  0.00  0.00    -0.284 N 
ATOM     20  C   UNL     1      32.647  -9.586 -23.263  0.00  0.00    +0.227 C 
ATOM     21  H   UNL     1      33.913  -8.786 -21.884  0.00  0.00    +0.155 HD
BRANCH  20  22
ATOM     22  C   UNL     1      33.477 -10.852 -23.107  0.00  0.00    +0.095 C 
BRANCH  22  23
ATOM     23  C   UNL     1      32.622 -12.083 -22.843  0.00  0.00    +0.095 C 
BRANCH  23  31
ATOM     24  O   UNL     1      34.922 -16.268 -21.204  0.00  0.00    -0.350 OA
ATOM     25  O   UNL     1      33.362 -13.230 -24.781  0.00  0.00    -0.275 OA
ATOM     26  N   UNL     1      33.546 -14.369 -22.767  0.00  0.00    -0.274 N 
ATOM     27  C   UNL     1      33.260 -14.505 -21.335  0.00  0.00    +0.125 C 
ATOM     28  C   UNL     1      34.125 -15.565 -23.380  0.00  0.00    +0.125 C 
ATOM     29  C   UNL     1      34.480 -15.048 -20.602  0.00  0.00    +0.164 C 
ATOM     30  C   UNL     1      35.311 -16.058 -22.564  0.00  0.00    +0.164 C 
ATOM     31  C   UNL     1      33.207 -13.273 -23.558  0.00  0.00    +0.226 C 
ENDBRANCH  23  31
ENDBRANCH  22  23
ENDBRANCH  20  22
ENDBRANCH   3  19
TORSDOF 5
ENDMDL
MODEL 8
REMARK VINA RESULT:      -9.9      4.249      9.308
REMARK  Name = 24764443
REMARK  5 active torsions:
REMARK  status: ('A' for Active; 'I' for Inactive)
REMARK    1  A    between atoms: C_2  and  C_17
REMARK    2  A    between atoms: C_3  and  N_19
REMARK    3  A    between atoms: C_20  and  C_22
REMARK    4  A    between atoms: C_22  and  C_23
REMARK    5  A    between atoms: C_23  and  C_31
REMARK                            x       y       z     vdW  Elec       q    Type
REMARK                         _______ _______ _______ _____ _____    ______ ____
ROOT
ATOM      1 BR   UNL     1      30.785 -22.783 -15.368  0.00  0.00    -0.049 Br
ATOM      2  C   UNL     1      34.853 -23.404 -15.988  0.00  0.00    +0.068 C 
ATOM      3  C   UNL     1      35.139 -24.483 -15.151  0.00  0.00    +0.055 C 
ATOM      4  C   UNL     1      33.555 -22.898 -16.054  0.00  0.00    +0.012 C 
ATOM      5  C   UNL     1      34.128 -25.054 -14.378  0.00  0.00    +0.015 C 
ATOM      6  C   UNL     1      32.544 -23.468 -15.280  0.00  0.00    +0.035 C 
ATOM      7  C   UNL     1      32.830 -24.546 -14.443  0.00  0.00    +0.008 C 
ENDROOT
BRANCH   2  17
ATOM      8  O   UNL     1      36.989 -22.619 -16.279  0.00  0.00    -0.270 OA
ATOM      9  N   UNL     1      35.567 -22.417 -18.124  0.00  0.00    -0.276 N 
ATOM     10  C   UNL     1      36.064 -20.433 -19.495  0.00  0.00    +0.020 C 
ATOM     11  C   UNL     1      33.690 -21.311 -19.278  0.00  0.00    +0.020 C 
ATOM     12  C   UNL     1      34.703 -20.601 -20.193  0.00  0.00    +0.003 C 
ATOM     13  C   UNL     1      36.574 -21.782 -18.974  0.00  0.00    +0.094 C 
ATOM     14  C   UNL     1      34.269 -22.639 -18.775  0.00  0.00    +0.094 C 
ATOM     15  C   UNL     1      37.082 -19.796 -20.437  0.00  0.00    +0.002 C 
ATOM     16  C   UNL     1      32.368 -21.537 -20.005  0.00  0.00    +0.002 C 
ATOM     17  C   UNL     1      35.894 -22.782 -16.815  0.00  0.00    +0.250 C 
ENDBRANCH   2  17
BRANCH   3  19
ATOM     18  O   UNL     1      36.115 -27.309 -15.445  0.00  0.00    -0.275 OA
ATOM     19  N   UNL     1      36.433 -25.008 -15.070  0.00  0.00    -0.284 N 
ATOM     20  C   UNL     1      36.835 -26.343 -15.215  0.00  0.00    +0.227 C 
ATOM     21  H   UNL     1      37.151 -24.359 -14.887  0.00  0.00    +0.155 HD
BRANCH  20  22
ATOM     22  C   UNL     1      38.342 -26.483 -15.052  0.00  0.00    +0.095 C 
BRANCH  22  23
ATOM     23  C   UNL     1      38.753 -26.744 -13.610  0.00  0.00    +0.095 C 
BRANCH  23  31
ATOM     24  O   UNL     1      35.909 -23.881 -10.575  0.00  0.00    -0.350 OA
ATOM     25  O   UNL     1      40.000 -24.769 -13.208  0.00  0.00    -0.275 OA
ATOM     26  N   UNL     1      38.075 -25.055 -11.944  0.00  0.00    -0.274 N 
ATOM     27  C   UNL     1      36.955 -25.878 -11.472  0.00  0.00    +0.125 C 
ATOM     28  C   UNL     1      38.243 -23.796 -11.217  0.00  0.00    +0.125 C 
ATOM     29  C   UNL     1      35.686 -25.041 -11.382  0.00  0.00    +0.164 C 
ATOM     30  C   UNL     1      36.920 -23.046 -11.144  0.00  0.00    +0.164 C 
ATOM     31  C   UNL     1      39.007 -25.435 -12.907  0.00  0.00    +0.226 C 
ENDBRANCH  23  31
ENDBRANCH  22  23
ENDBRANCH  20  22
ENDBRANCH   3  19
TORSDOF 5
ENDMDL
MODEL 9
REMARK VINA RESULT:      -9.7      4.585      9.381
REMARK  Name = 24764443
REMARK  5 active torsions:
REMARK  status: ('A' for Active; 'I' for Inactive)
REMARK    1  A    between atoms: C_2  and  C_17
REMARK    2  A    between atoms: C_3  and  N_19
REMARK    3  A    between atoms: C_20  and  C_22
REMARK    4  A    between atoms: C_22  and  C_23
REMARK    5  A    between atoms: C_23  and  C_31
REMARK                            x       y       z     vdW  Elec       q    Type
REMARK                         _______ _______ _______ _____ _____    ______ ____
ROOT
ATOM      1 BR   UNL     1      28.459 -23.526 -16.913  0.00  0.00    -0.049 Br
ATOM      2  C   UNL     1      32.480 -23.419 -15.845  0.00  0.00    +0.068 C 
ATOM      3  C   UNL     1      32.435 -23.217 -14.466  0.00  0.00    +0.055 C 
ATOM      4  C   UNL     1      31.295 -23.512 -16.574  0.00  0.00    +0.012 C 
ATOM      5  C   UNL     1      31.206 -23.106 -13.816  0.00  0.00    +0.015 C 
ATOM      6  C   UNL     1      30.065 -23.400 -15.926  0.00  0.00    +0.035 C 
ATOM      7  C   UNL     1      30.021 -23.198 -14.546  0.00  0.00    +0.008 C 
ENDROOT
BRANCH   2  17
ATOM      8  O   UNL     1      34.677 -24.073 -15.938  0.00  0.00    -0.270 OA
ATOM      9  N   UNL     1      33.835 -23.043 -17.861  0.00  0.00    -0.276 N 
ATOM     10  C   UNL     1      35.544 -21.744 -19.070  0.00  0.00    +0.020 C 
ATOM     11  C   UNL     1      33.108 -21.023 -19.072  0.00  0.00    +0.020 C 
ATOM     12  C   UNL     1      34.424 -21.056 -19.870  0.00  0.00    +0.003 C 
ATOM     13  C   UNL     1      35.095 -23.134 -18.599  0.00  0.00    +0.094 C 
ATOM     14  C   UNL     1      32.729 -22.435 -18.613  0.00  0.00    +0.094 C 
ATOM     15  C   UNL     1      36.822 -21.840 -19.899  0.00  0.00    +0.002 C 
ATOM     16  C   UNL     1      31.987 -20.402 -19.901  0.00  0.00    +0.002 C 
ATOM     17  C   UNL     1      33.757 -23.541 -16.558  0.00  0.00    +0.250 C 
ENDBRANCH   2  17
BRANCH   3  19
ATOM     18  O   UNL     1      33.566 -25.060 -12.380  0.00  0.00    -0.275 OA
ATOM     19  N   UNL     1      33.610 -23.121 -13.713  0.00  0.00    -0.284 N 
ATOM     20  C   UNL     1      34.093 -24.014 -12.746  0.00  0.00    +0.227 C 
ATOM     21  H   UNL     1      34.168 -22.328 -13.883  0.00  0.00    +0.155 HD
BRANCH  20  22
ATOM     22  C   UNL     1      35.415 -23.532 -12.165  0.00  0.00    +0.095 C 
BRANCH  22  23
ATOM     23  C   UNL     1      36.181 -24.639 -11.456  0.00  0.00    +0.095 C 
BRANCH  23  31
ATOM     24  O   UNL     1      39.242 -26.937 -14.749  0.00  0.00    -0.350 OA
ATOM     25  O   UNL     1      38.370 -23.871 -10.968  0.00  0.00    -0.275 OA
ATOM     26  N   UNL     1      38.118 -25.128 -12.902  0.00  0.00    -0.274 N 
ATOM     27  C   UNL     1      37.279 -25.780 -13.913  0.00  0.00    +0.125 C 
ATOM     28  C   UNL     1      39.536 -25.051 -13.257  0.00  0.00    +0.125 C 
ATOM     29  C   UNL     1      37.888 -27.115 -14.324  0.00  0.00    +0.164 C 
ATOM     30  C   UNL     1      40.049 -26.418 -13.688  0.00  0.00    +0.164 C 
ATOM     31  C   UNL     1      37.654 -24.505 -11.746  0.00  0.00    +0.226 C 
ENDBRANCH  23  31
ENDBRANCH  22  23
ENDBRANCH  20  22
ENDBRANCH   3  19
TORSDOF 5
ENDMDL
