MODEL 1
REMARK VINA RESULT:     -11.3      0.000      0.000
REMARK  Name = 6957673
REMARK  9 active torsions:
REMARK  status: ('A' for Active; 'I' for Inactive)
REMARK    1  A    between atoms: C_1  and  C_4
REMARK    2  A    between atoms: C_1  and  N_17
REMARK    3  A    between atoms: C_1  and  C_26
REMARK    4  A    between atoms: N_3  and  C_6
REMARK    5  A    between atoms: C_11  and  C_13
REMARK    6  A    between atoms: C_13  and  O_14
REMARK    7  A    between atoms: C_18  and  C_20
REMARK    8  A    between atoms: C_26  and  C_27
REMARK    9  A    between atoms: C_32  and  O_33
REMARK                            x       y       z     vdW  Elec       q    Type
REMARK                         _______ _______ _______ _____ _____    ______ ____
ROOT
ATOM      1  C   UNL     1      33.795 -23.618 -16.048  0.00  0.00    +0.153 C 
ENDROOT
BRANCH   1   4
ATOM      2  O   UNL     1      35.773 -22.842 -17.190  0.00  0.00    -0.273 OA
ATOM      3  N   UNL     1      33.664 -22.281 -18.054  0.00  0.00    -0.283 N 
ATOM      4  C   UNL     1      34.545 -22.859 -17.144  0.00  0.00    +0.244 C 
ATOM      5  H   UNL     1      32.706 -22.428 -17.883  0.00  0.00    +0.155 HD
BRANCH   3   6
ATOM      6  C   UNL     1      33.983 -21.508 -19.194  0.00  0.00    +0.050 C 
ATOM      7  C   UNL     1      35.307 -21.399 -19.589  0.00  0.00    +0.015 C 
ATOM      8  C   UNL     1      32.968 -20.877 -19.893  0.00  0.00    +0.015 C 
ATOM      9  C   UNL     1      35.624 -20.637 -20.714  0.00  0.00    +0.008 C 
ATOM     10  C   UNL     1      33.284 -20.116 -21.019  0.00  0.00    +0.008 C 
ATOM     11  C   UNL     1      34.612 -19.996 -21.429  0.00  0.00    +0.076 C 
BRANCH  11  13
ATOM     12  O   UNL     1      34.187 -18.991 -23.558  0.00  0.00    -0.245 OA
ATOM     13  C   UNL     1      34.942 -19.204 -22.602  0.00  0.00    +0.338 C 
BRANCH  13  14
ATOM     14  O   UNL     1      36.204 -18.696 -22.551  0.00  0.00    -0.477 OA
ATOM     15  H   UNL     1      36.340 -17.805 -22.297  0.00  0.00    +0.295 HD
ENDBRANCH  13  14
ENDBRANCH  11  13
ENDBRANCH   3   6
ENDBRANCH   1   4
BRANCH   1  17
ATOM     16  O   UNL     1      35.370 -25.935 -15.417  0.00  0.00    -0.270 OA
ATOM     17  N   UNL     1      34.710 -23.763 -14.942  0.00  0.00    -0.295 N 
ATOM     18  C   UNL     1      35.431 -24.926 -14.717  0.00  0.00    +0.246 C 
ATOM     19  H   UNL     1      34.829 -23.005 -14.323  0.00  0.00    +0.150 HD
BRANCH  18  20
ATOM     20  C   UNL     1      36.311 -24.926 -13.522  0.00  0.00    +0.053 C 
ATOM     21  C   UNL     1      37.150 -26.000 -13.310  0.00  0.00    +0.005 C 
ATOM     22  C   UNL     1      36.263 -23.850 -12.660  0.00  0.00    +0.005 C 
ATOM     23  C   UNL     1      37.977 -26.000 -12.188  0.00  0.00    +0.000 C 
ATOM     24  C   UNL     1      37.090 -23.849 -11.536  0.00  0.00    +0.000 C 
ATOM     25  C   UNL     1      37.947 -24.923 -11.300  0.00  0.00    +0.000 C 
ENDBRANCH  18  20
ENDBRANCH   1  17
BRANCH   1  26
ATOM     26  C   UNL     1      32.533 -22.869 -15.606  0.00  0.00    +0.055 C 
BRANCH  26  27
ATOM     27  C   UNL     1      31.425 -23.780 -15.139  0.00  0.00    -0.020 C 
ATOM     28  C   UNL     1      30.229 -23.809 -15.840  0.00  0.00    -0.001 C 
ATOM     29  C   UNL     1      31.623 -24.573 -14.020  0.00  0.00    -0.001 C 
ATOM     30  C   UNL     1      29.204 -24.652 -15.408  0.00  0.00    +0.036 C 
ATOM     31  C   UNL     1      30.598 -25.415 -13.589  0.00  0.00    +0.036 C 
ATOM     32  C   UNL     1      29.389 -25.455 -14.283  0.00  0.00    +0.134 C 
BRANCH  32  33
ATOM     33  O   UNL     1      28.390 -26.278 -13.862  0.00  0.00    -0.506 OA
ATOM     34  H   UNL     1      27.787 -25.985 -13.207  0.00  0.00    +0.292 HD
ENDBRANCH  32  33
ENDBRANCH  26  27
ENDBRANCH   1  26
TORSDOF 9
ENDMDL
MODEL 2
REMARK VINA RESULT:     -11.0      2.877      6.937
REMARK  Name = 6957673
REMARK  9 active torsions:
REMARK  status: ('A' for Active; 'I' for Inactive)
REMARK    1  A    between atoms: C_1  and  C_4
REMARK    2  A    between atoms: C_1  and  N_17
REMARK    3  A    between atoms: C_1  and  C_26
REMARK    4  A    between atoms: N_3  and  C_6
REMARK    5  A    between atoms: C_11  and  C_13
REMARK    6  A    between atoms: C_13  and  O_14
REMARK    7  A    between atoms: C_18  and  C_20
REMARK    8  A    between atoms: C_26  and  C_27
REMARK    9  A    between atoms: C_32  and  O_33
REMARK                            x       y       z     vdW  Elec       q    Type
REMARK                         _______ _______ _______ _____ _____    ______ ____
ROOT
ATOM      1  C   UNL     1      32.529 -23.497 -15.045  0.00  0.00    +0.153 C 
ENDROOT
BRANCH   1   4
ATOM      2  O   UNL     1      33.671 -24.859 -13.414  0.00  0.00    -0.273 OA
ATOM      3  N   UNL     1      34.884 -23.993 -15.227  0.00  0.00    -0.283 N 
ATOM      4  C   UNL     1      33.752 -24.188 -14.440  0.00  0.00    +0.244 C 
ATOM      5  H   UNL     1      34.759 -23.456 -16.042  0.00  0.00    +0.155 HD
BRANCH   3   6
ATOM      6  C   UNL     1      36.193 -24.476 -14.993  0.00  0.00    +0.050 C 
ATOM      7  C   UNL     1      36.373 -25.810 -14.662  0.00  0.00    +0.015 C 
ATOM      8  C   UNL     1      37.267 -23.609 -15.099  0.00  0.00    +0.015 C 
ATOM      9  C   UNL     1      37.663 -26.288 -14.431  0.00  0.00    +0.008 C 
ATOM     10  C   UNL     1      38.557 -24.087 -14.870  0.00  0.00    +0.008 C 
ATOM     11  C   UNL     1      38.755 -25.427 -14.536  0.00  0.00    +0.076 C 
BRANCH  11  13
ATOM     12  O   UNL     1      40.415 -27.116 -14.201  0.00  0.00    -0.245 OA
ATOM     13  C   UNL     1      40.099 -25.925 -14.297  0.00  0.00    +0.338 C 
BRANCH  13  14
ATOM     14  O   UNL     1      41.014 -24.923 -14.187  0.00  0.00    -0.477 OA
ATOM     15  H   UNL     1      41.657 -24.949 -13.506  0.00  0.00    +0.295 HD
ENDBRANCH  13  14
ENDBRANCH  11  13
ENDBRANCH   3   6
ENDBRANCH   1   4
BRANCH   1  17
ATOM     16  O   UNL     1      33.270 -24.494 -17.633  0.00  0.00    -0.270 OA
ATOM     17  N   UNL     1      33.003 -22.720 -16.164  0.00  0.00    -0.295 N 
ATOM     18  C   UNL     1      33.338 -23.293 -17.382  0.00  0.00    +0.246 C 
ATOM     19  H   UNL     1      33.090 -21.744 -16.060  0.00  0.00    +0.150 HD
BRANCH  18  20
ATOM     20  C   UNL     1      33.834 -22.361 -18.425  0.00  0.00    +0.053 C 
ATOM     21  C   UNL     1      32.924 -21.591 -19.119  0.00  0.00    +0.005 C 
ATOM     22  C   UNL     1      35.191 -22.294 -18.668  0.00  0.00    +0.005 C 
ATOM     23  C   UNL     1      33.391 -20.714 -20.098  0.00  0.00    +0.000 C 
ATOM     24  C   UNL     1      35.658 -21.418 -19.648  0.00  0.00    +0.000 C 
ATOM     25  C   UNL     1      34.758 -20.628 -20.363  0.00  0.00    +0.000 C 
ENDBRANCH  18  20
ENDBRANCH   1  17
BRANCH   1  26
ATOM     26  C   UNL     1      31.477 -24.513 -15.504  0.00  0.00    +0.055 C 
BRANCH  26  27
ATOM     27  C   UNL     1      30.084 -23.938 -15.588  0.00  0.00    -0.020 C 
ATOM     28  C   UNL     1      29.739 -22.871 -14.773  0.00  0.00    -0.001 C 
ATOM     29  C   UNL     1      29.175 -24.487 -16.479  0.00  0.00    -0.001 C 
ATOM     30  C   UNL     1      28.451 -22.340 -14.851  0.00  0.00    +0.036 C 
ATOM     31  C   UNL     1      27.887 -23.956 -16.556  0.00  0.00    +0.036 C 
ATOM     32  C   UNL     1      27.526 -22.883 -15.742  0.00  0.00    +0.134 C 
BRANCH  32  33
ATOM     33  O   UNL     1      26.269 -22.364 -15.819  0.00  0.00    -0.506 OA
ATOM     34  H   UNL     1      25.833 -22.315 -16.647  0.00  0.00    +0.292 HD
ENDBRANCH  32  33
ENDBRANCH  26  27
ENDBRANCH   1  26
TORSDOF 9
ENDMDL
MODEL 3
REMARK VINA RESULT:     -10.8      1.477      5.454
REMARK  Name = 6957673
REMARK  9 active torsions:
REMARK  status: ('A' for Active; 'I' for Inactive)
REMARK    1  A    between atoms: C_1  and  C_4
REMARK    2  A    between atoms: C_1  and  N_17
REMARK    3  A    between atoms: C_1  and  C_26
REMARK    4  A    between atoms: N_3  and  C_6
REMARK    5  A    between atoms: C_11  and  C_13
REMARK    6  A    between atoms: C_13  and  O_14
REMARK    7  A    between atoms: C_18  and  C_20
REMARK    8  A    between atoms: C_26  and  C_27
REMARK    9  A    between atoms: C_32  and  O_33
REMARK                            x       y       z     vdW  Elec       q    Type
REMARK                         _______ _______ _______ _____ _____    ______ ____
ROOT
ATOM      1  C   UNL     1      34.516 -23.749 -15.592  0.00  0.00    +0.153 C 
ENDROOT
BRANCH   1   4
ATOM      2  O   UNL     1      36.236 -22.326 -16.508  0.00  0.00    -0.273 OA
ATOM      3  N   UNL     1      34.229 -22.597 -17.694  0.00  0.00    -0.283 N 
ATOM      4  C   UNL     1      35.106 -22.792 -16.630  0.00  0.00    +0.244 C 
ATOM      5  H   UNL     1      33.374 -23.081 -17.646  0.00  0.00    +0.155 HD
BRANCH   3   6
ATOM      6  C   UNL     1      34.423 -21.785 -18.837  0.00  0.00    +0.050 C 
ATOM      7  C   UNL     1      33.321 -21.242 -19.477  0.00  0.00    +0.015 C 
ATOM      8  C   UNL     1      35.710 -21.549 -19.290  0.00  0.00    +0.015 C 
ATOM      9  C   UNL     1      33.512 -20.442 -20.603  0.00  0.00    +0.008 C 
ATOM     10  C   UNL     1      35.901 -20.747 -20.415  0.00  0.00    +0.008 C 
ATOM     11  C   UNL     1      34.801 -20.194 -21.072  0.00  0.00    +0.076 C 
BRANCH  11  13
ATOM     12  O   UNL     1      34.221 -19.265 -23.199  0.00  0.00    -0.245 OA
ATOM     13  C   UNL     1      35.001 -19.358 -22.245  0.00  0.00    +0.338 C 
BRANCH  13  14
ATOM     14  O   UNL     1      36.167 -18.658 -22.193  0.00  0.00    -0.477 OA
ATOM     15  H   UNL     1      36.160 -17.727 -22.296  0.00  0.00    +0.295 HD
ENDBRANCH  13  14
ENDBRANCH  11  13
ENDBRANCH   3   6
ENDBRANCH   1   4
BRANCH   1  17
ATOM     16  O   UNL     1      32.488 -24.084 -13.587  0.00  0.00    -0.270 OA
ATOM     17  N   UNL     1      33.089 -23.763 -15.804  0.00  0.00    -0.295 N 
ATOM     18  C   UNL     1      32.183 -23.932 -14.767  0.00  0.00    +0.246 C 
ATOM     19  H   UNL     1      32.745 -23.647 -16.719  0.00  0.00    +0.150 HD
BRANCH  18  20
ATOM     20  C   UNL     1      30.749 -23.949 -15.153  0.00  0.00    +0.053 C 
ATOM     21  C   UNL     1      29.937 -24.949 -14.659  0.00  0.00    +0.005 C 
ATOM     22  C   UNL     1      30.274 -22.964 -15.994  0.00  0.00    +0.005 C 
ATOM     23  C   UNL     1      28.591 -24.965 -15.020  0.00  0.00    +0.000 C 
ATOM     24  C   UNL     1      28.926 -22.979 -16.356  0.00  0.00    +0.000 C 
ATOM     25  C   UNL     1      28.085 -23.980 -15.870  0.00  0.00    +0.000 C 
ENDBRANCH  18  20
ENDBRANCH   1  17
BRANCH   1  26
ATOM     26  C   UNL     1      35.094 -25.161 -15.734  0.00  0.00    +0.055 C 
BRANCH  26  27
ATOM     27  C   UNL     1      35.903 -25.602 -14.540  0.00  0.00    -0.020 C 
ATOM     28  C   UNL     1      35.759 -24.930 -13.336  0.00  0.00    -0.001 C 
ATOM     29  C   UNL     1      36.775 -26.672 -14.667  0.00  0.00    -0.001 C 
ATOM     30  C   UNL     1      36.508 -25.337 -12.232  0.00  0.00    +0.036 C 
ATOM     31  C   UNL     1      37.524 -27.079 -13.563  0.00  0.00    +0.036 C 
ATOM     32  C   UNL     1      37.390 -26.412 -12.346  0.00  0.00    +0.134 C 
BRANCH  32  33
ATOM     33  O   UNL     1      38.120 -26.810 -11.268  0.00  0.00    -0.506 OA
ATOM     34  H   UNL     1      39.038 -26.629 -11.232  0.00  0.00    +0.292 HD
ENDBRANCH  32  33
ENDBRANCH  26  27
ENDBRANCH   1  26
TORSDOF 9
ENDMDL
MODEL 4
REMARK VINA RESULT:     -10.5      1.446      2.110
REMARK  Name = 6957673
REMARK  9 active torsions:
REMARK  status: ('A' for Active; 'I' for Inactive)
REMARK    1  A    between atoms: C_1  and  C_4
REMARK    2  A    between atoms: C_1  and  N_17
REMARK    3  A    between atoms: C_1  and  C_26
REMARK    4  A    between atoms: N_3  and  C_6
REMARK    5  A    between atoms: C_11  and  C_13
REMARK    6  A    between atoms: C_13  and  O_14
REMARK    7  A    between atoms: C_18  and  C_20
REMARK    8  A    between atoms: C_26  and  C_27
REMARK    9  A    between atoms: C_32  and  O_33
REMARK                            x       y       z     vdW  Elec       q    Type
REMARK                         _______ _______ _______ _____ _____    ______ ____
ROOT
ATOM      1  C   UNL     1      33.891 -24.485 -15.612  0.00  0.00    +0.153 C 
ENDROOT
BRANCH   1   4
ATOM      2  O   UNL     1      33.586 -24.684 -17.997  0.00  0.00    -0.273 OA
ATOM      3  N   UNL     1      34.535 -22.721 -17.129  0.00  0.00    -0.283 N 
ATOM      4  C   UNL     1      33.993 -24.002 -17.060  0.00  0.00    +0.244 C 
ATOM      5  H   UNL     1      34.773 -22.303 -16.271  0.00  0.00    +0.155 HD
BRANCH   3   6
ATOM      6  C   UNL     1      34.781 -21.948 -18.289  0.00  0.00    +0.050 C 
ATOM      7  C   UNL     1      33.709 -21.507 -19.048  0.00  0.00    +0.015 C 
ATOM      8  C   UNL     1      36.086 -21.648 -18.640  0.00  0.00    +0.015 C 
ATOM      9  C   UNL     1      33.951 -20.746 -20.192  0.00  0.00    +0.008 C 
ATOM     10  C   UNL     1      36.328 -20.884 -19.782  0.00  0.00    +0.008 C 
ATOM     11  C   UNL     1      35.260 -20.434 -20.558  0.00  0.00    +0.076 C 
BRANCH  11  13
ATOM     12  O   UNL     1      36.452 -18.850 -21.897  0.00  0.00    -0.245 OA
ATOM     13  C   UNL     1      35.512 -19.638 -21.748  0.00  0.00    +0.338 C 
BRANCH  13  14
ATOM     14  O   UNL     1      34.584 -19.848 -22.721  0.00  0.00    -0.477 OA
ATOM     15  H   UNL     1      34.467 -19.216 -23.403  0.00  0.00    +0.295 HD
ENDBRANCH  13  14
ENDBRANCH  11  13
ENDBRANCH   3   6
ENDBRANCH   1   4
BRANCH   1  17
ATOM     16  O   UNL     1      35.579 -26.782 -15.272  0.00  0.00    -0.270 OA
ATOM     17  N   UNL     1      35.233 -24.497 -15.083  0.00  0.00    -0.295 N 
ATOM     18  C   UNL     1      35.974 -25.662 -14.956  0.00  0.00    +0.246 C 
ATOM     19  H   UNL     1      35.639 -23.644 -14.801  0.00  0.00    +0.150 HD
BRANCH  18  20
ATOM     20  C   UNL     1      37.330 -25.510 -14.369  0.00  0.00    +0.053 C 
ATOM     21  C   UNL     1      37.473 -24.797 -13.197  0.00  0.00    +0.005 C 
ATOM     22  C   UNL     1      38.404 -26.088 -15.015  0.00  0.00    +0.005 C 
ATOM     23  C   UNL     1      38.746 -24.655 -12.645  0.00  0.00    +0.000 C 
ATOM     24  C   UNL     1      39.678 -25.946 -14.464  0.00  0.00    +0.000 C 
ATOM     25  C   UNL     1      39.849 -25.230 -13.279  0.00  0.00    +0.000 C 
ENDBRANCH  18  20
ENDBRANCH   1  17
BRANCH   1  26
ATOM     26  C   UNL     1      32.992 -23.569 -14.775  0.00  0.00    +0.055 C 
BRANCH  26  27
ATOM     27  C   UNL     1      31.522 -23.728 -15.079  0.00  0.00    -0.020 C 
ATOM     28  C   UNL     1      30.929 -22.897 -16.016  0.00  0.00    -0.001 C 
ATOM     29  C   UNL     1      30.793 -24.704 -14.418  0.00  0.00    -0.001 C 
ATOM     30  C   UNL     1      29.570 -23.044 -16.297  0.00  0.00    +0.036 C 
ATOM     31  C   UNL     1      29.434 -24.850 -14.699  0.00  0.00    +0.036 C 
ATOM     32  C   UNL     1      28.824 -24.020 -15.639  0.00  0.00    +0.134 C 
BRANCH  32  33
ATOM     33  O   UNL     1      27.498 -24.165 -15.914  0.00  0.00    -0.506 OA
ATOM     34  H   UNL     1      27.192 -24.085 -16.796  0.00  0.00    +0.292 HD
ENDBRANCH  32  33
ENDBRANCH  26  27
ENDBRANCH   1  26
TORSDOF 9
ENDMDL
MODEL 5
REMARK VINA RESULT:      -9.6     11.247     16.314
REMARK  Name = 6957673
REMARK  9 active torsions:
REMARK  status: ('A' for Active; 'I' for Inactive)
REMARK    1  A    between atoms: C_1  and  C_4
REMARK    2  A    between atoms: C_1  and  N_17
REMARK    3  A    between atoms: C_1  and  C_26
REMARK    4  A    between atoms: N_3  and  C_6
REMARK    5  A    between atoms: C_11  and  C_13
REMARK    6  A    between atoms: C_13  and  O_14
REMARK    7  A    between atoms: C_18  and  C_20
REMARK    8  A    between atoms: C_26  and  C_27
REMARK    9  A    between atoms: C_32  and  O_33
REMARK                            x       y       z     vdW  Elec       q    Type
REMARK                         _______ _______ _______ _____ _____    ______ ____
ROOT
ATOM      1  C   UNL     1      33.395  -9.015 -23.136  0.00  0.00    +0.153 C 
ENDROOT
BRANCH   1   4
ATOM      2  O   UNL     1      35.276 -10.314 -23.906  0.00  0.00    -0.273 OA
ATOM      3  N   UNL     1      33.292 -11.421 -23.315  0.00  0.00    -0.283 N 
ATOM      4  C   UNL     1      34.110 -10.312 -23.520  0.00  0.00    +0.244 C 
ATOM      5  H   UNL     1      32.392 -11.237 -22.963  0.00  0.00    +0.155 HD
BRANCH   3   6
ATOM      6  C   UNL     1      33.604 -12.780 -23.554  0.00  0.00    +0.050 C 
ATOM      7  C   UNL     1      34.219 -13.519 -22.557  0.00  0.00    +0.015 C 
ATOM      8  C   UNL     1      33.286 -13.344 -24.779  0.00  0.00    +0.015 C 
ATOM      9  C   UNL     1      34.527 -14.859 -22.791  0.00  0.00    +0.008 C 
ATOM     10  C   UNL     1      33.592 -14.685 -25.013  0.00  0.00    +0.008 C 
ATOM     11  C   UNL     1      34.213 -15.442 -24.019  0.00  0.00    +0.076 C 
BRANCH  11  13
ATOM     12  O   UNL     1      33.994 -17.558 -25.112  0.00  0.00    -0.245 OA
ATOM     13  C   UNL     1      34.531 -16.839 -24.262  0.00  0.00    +0.338 C 
BRANCH  13  14
ATOM     14  O   UNL     1      35.512 -17.301 -23.439  0.00  0.00    -0.477 OA
ATOM     15  H   UNL     1      35.632 -16.919 -22.593  0.00  0.00    +0.295 HD
ENDBRANCH  13  14
ENDBRANCH  11  13
ENDBRANCH   3   6
ENDBRANCH   1   4
BRANCH   1  17
ATOM     16  O   UNL     1      34.940  -6.642 -23.607  0.00  0.00    -0.270 OA
ATOM     17  N   UNL     1      33.368  -8.190 -24.319  0.00  0.00    -0.295 N 
ATOM     18  C   UNL     1      34.155  -7.056 -24.456  0.00  0.00    +0.246 C 
ATOM     19  H   UNL     1      32.768  -8.442 -25.059  0.00  0.00    +0.150 HD
BRANCH  18  20
ATOM     20  C   UNL     1      33.992  -6.301 -25.724  0.00  0.00    +0.053 C 
ATOM     21  C   UNL     1      33.257  -5.133 -25.715  0.00  0.00    +0.005 C 
ATOM     22  C   UNL     1      34.582  -6.790 -26.871  0.00  0.00    +0.005 C 
ATOM     23  C   UNL     1      33.105  -4.423 -26.905  0.00  0.00    +0.000 C 
ATOM     24  C   UNL     1      34.429  -6.080 -28.063  0.00  0.00    +0.000 C 
ATOM     25  C   UNL     1      33.691  -4.897 -28.079  0.00  0.00    +0.000 C 
ENDBRANCH  18  20
ENDBRANCH   1  17
BRANCH   1  26
ATOM     26  C   UNL     1      31.971  -9.283 -22.636  0.00  0.00    +0.055 C 
BRANCH  26  27
ATOM     27  C   UNL     1      31.898  -9.567 -21.155  0.00  0.00    -0.020 C 
ATOM     28  C   UNL     1      32.041  -8.522 -20.255  0.00  0.00    -0.001 C 
ATOM     29  C   UNL     1      31.688 -10.867 -20.722  0.00  0.00    -0.001 C 
ATOM     30  C   UNL     1      31.974  -8.785 -18.887  0.00  0.00    +0.036 C 
ATOM     31  C   UNL     1      31.621 -11.128 -19.353  0.00  0.00    +0.036 C 
ATOM     32  C   UNL     1      31.764 -10.087 -18.436  0.00  0.00    +0.134 C 
BRANCH  32  33
ATOM     33  O   UNL     1      31.697 -10.344 -17.101  0.00  0.00    -0.506 OA
ATOM     34  H   UNL     1      32.220  -9.848 -16.503  0.00  0.00    +0.292 HD
ENDBRANCH  32  33
ENDBRANCH  26  27
ENDBRANCH   1  26
TORSDOF 9
ENDMDL
MODEL 6
REMARK VINA RESULT:      -9.5     11.601     17.412
REMARK  Name = 6957673
REMARK  9 active torsions:
REMARK  status: ('A' for Active; 'I' for Inactive)
REMARK    1  A    between atoms: C_1  and  C_4
REMARK    2  A    between atoms: C_1  and  N_17
REMARK    3  A    between atoms: C_1  and  C_26
REMARK    4  A    between atoms: N_3  and  C_6
REMARK    5  A    between atoms: C_11  and  C_13
REMARK    6  A    between atoms: C_13  and  O_14
REMARK    7  A    between atoms: C_18  and  C_20
REMARK    8  A    between atoms: C_26  and  C_27
REMARK    9  A    between atoms: C_32  and  O_33
REMARK                            x       y       z     vdW  Elec       q    Type
REMARK                         _______ _______ _______ _____ _____    ______ ____
ROOT
ATOM      1  C   UNL     1      33.005  -9.037 -22.410  0.00  0.00    +0.153 C 
ENDROOT
BRANCH   1   4
ATOM      2  O   UNL     1      31.447 -10.825 -22.852  0.00  0.00    -0.273 OA
ATOM      3  N   UNL     1      33.745 -11.223 -23.120  0.00  0.00    -0.283 N 
ATOM      4  C   UNL     1      32.621 -10.466 -22.799  0.00  0.00    +0.244 C 
ATOM      5  H   UNL     1      34.611 -10.760 -23.059  0.00  0.00    +0.155 HD
BRANCH   3   6
ATOM      6  C   UNL     1      33.787 -12.578 -23.524  0.00  0.00    +0.050 C 
ATOM      7  C   UNL     1      33.401 -12.912 -24.813  0.00  0.00    +0.015 C 
ATOM      8  C   UNL     1      34.214 -13.541 -22.626  0.00  0.00    +0.015 C 
ATOM      9  C   UNL     1      33.442 -14.248 -25.213  0.00  0.00    +0.008 C 
ATOM     10  C   UNL     1      34.257 -14.877 -23.027  0.00  0.00    +0.008 C 
ATOM     11  C   UNL     1      33.871 -15.230 -24.320  0.00  0.00    +0.076 C 
BRANCH  11  13
ATOM     12  O   UNL     1      34.932 -17.325 -24.775  0.00  0.00    -0.245 OA
ATOM     13  C   UNL     1      33.916 -16.622 -24.737  0.00  0.00    +0.338 C 
BRANCH  13  14
ATOM     14  O   UNL     1      32.693 -17.098 -25.095  0.00  0.00    -0.477 OA
ATOM     15  H   UNL     1      32.249 -16.739 -25.838  0.00  0.00    +0.295 HD
ENDBRANCH  13  14
ENDBRANCH  11  13
ENDBRANCH   3   6
ENDBRANCH   1   4
BRANCH   1  17
ATOM     16  O   UNL     1      35.299  -7.361 -22.828  0.00  0.00    -0.270 OA
ATOM     17  N   UNL     1      33.365  -8.357 -23.631  0.00  0.00    -0.295 N 
ATOM     18  C   UNL     1      34.498  -7.565 -23.737  0.00  0.00    +0.246 C 
ATOM     19  H   UNL     1      32.783  -8.460 -24.419  0.00  0.00    +0.150 HD
BRANCH  18  20
ATOM     20  C   UNL     1      34.714  -6.912 -25.053  0.00  0.00    +0.053 C 
ATOM     21  C   UNL     1      35.664  -5.917 -25.157  0.00  0.00    +0.005 C 
ATOM     22  C   UNL     1      33.958  -7.322 -26.132  0.00  0.00    +0.005 C 
ATOM     23  C   UNL     1      35.868  -5.305 -26.392  0.00  0.00    +0.000 C 
ATOM     24  C   UNL     1      34.161  -6.709 -27.369  0.00  0.00    +0.000 C 
ATOM     25  C   UNL     1      35.116  -5.701 -27.499  0.00  0.00    +0.000 C 
ENDBRANCH  18  20
ENDBRANCH   1  17
BRANCH   1  26
ATOM     26  C   UNL     1      31.850  -8.312 -21.712  0.00  0.00    +0.055 C 
BRANCH  26  27
ATOM     27  C   UNL     1      31.791  -6.836 -22.022  0.00  0.00    -0.020 C 
ATOM     28  C   UNL     1      32.331  -5.931 -21.120  0.00  0.00    -0.001 C 
ATOM     29  C   UNL     1      31.201  -6.412 -23.202  0.00  0.00    -0.001 C 
ATOM     30  C   UNL     1      32.277  -4.567 -21.406  0.00  0.00    +0.036 C 
ATOM     31  C   UNL     1      31.147  -5.048 -23.487  0.00  0.00    +0.036 C 
ATOM     32  C   UNL     1      31.685  -4.126 -22.590  0.00  0.00    +0.134 C 
BRANCH  32  33
ATOM     33  O   UNL     1      31.633  -2.795 -22.869  0.00  0.00    -0.506 OA
ATOM     34  H   UNL     1      31.415  -2.183 -22.194  0.00  0.00    +0.292 HD
ENDBRANCH  32  33
ENDBRANCH  26  27
ENDBRANCH   1  26
TORSDOF 9
ENDMDL
MODEL 7
REMARK VINA RESULT:      -9.4      1.740      7.205
REMARK  Name = 6957673
REMARK  9 active torsions:
REMARK  status: ('A' for Active; 'I' for Inactive)
REMARK    1  A    between atoms: C_1  and  C_4
REMARK    2  A    between atoms: C_1  and  N_17
REMARK    3  A    between atoms: C_1  and  C_26
REMARK    4  A    between atoms: N_3  and  C_6
REMARK    5  A    between atoms: C_11  and  C_13
REMARK    6  A    between atoms: C_13  and  O_14
REMARK    7  A    between atoms: C_18  and  C_20
REMARK    8  A    between atoms: C_26  and  C_27
REMARK    9  A    between atoms: C_32  and  O_33
REMARK                            x       y       z     vdW  Elec       q    Type
REMARK                         _______ _______ _______ _____ _____    ______ ____
ROOT
ATOM      1  C   UNL     1      35.791 -22.278 -17.706  0.00  0.00    +0.153 C 
ENDROOT
BRANCH   1   4
ATOM      2  O   UNL     1      33.957 -23.500 -18.688  0.00  0.00    -0.273 OA
ATOM      3  N   UNL     1      33.811 -22.836 -16.442  0.00  0.00    -0.283 N 
ATOM      4  C   UNL     1      34.408 -22.933 -17.696  0.00  0.00    +0.244 C 
ATOM      5  H   UNL     1      34.335 -22.378 -15.746  0.00  0.00    +0.155 HD
BRANCH   3   6
ATOM      6  C   UNL     1      32.541 -23.321 -16.050  0.00  0.00    +0.050 C 
ATOM      7  C   UNL     1      31.410 -22.865 -16.707  0.00  0.00    +0.015 C 
ATOM      8  C   UNL     1      32.455 -24.242 -15.019  0.00  0.00    +0.015 C 
ATOM      9  C   UNL     1      30.157 -23.343 -16.322  0.00  0.00    +0.008 C 
ATOM     10  C   UNL     1      31.202 -24.722 -14.635  0.00  0.00    +0.008 C 
ATOM     11  C   UNL     1      30.054 -24.271 -15.286  0.00  0.00    +0.076 C 
BRANCH  11  13
ATOM     12  O   UNL     1      27.662 -24.323 -15.268  0.00  0.00    -0.245 OA
ATOM     13  C   UNL     1      28.748 -24.771 -14.886  0.00  0.00    +0.338 C 
BRANCH  13  14
ATOM     14  O   UNL     1      28.835 -25.817 -14.020  0.00  0.00    -0.477 OA
ATOM     15  H   UNL     1      28.064 -26.294 -13.783  0.00  0.00    +0.295 HD
ENDBRANCH  13  14
ENDBRANCH  11  13
ENDBRANCH   3   6
ENDBRANCH   1   4
BRANCH   1  17
ATOM     16  O   UNL     1      35.977 -22.071 -14.848  0.00  0.00    -0.270 OA
ATOM     17  N   UNL     1      36.630 -23.069 -16.837  0.00  0.00    -0.295 N 
ATOM     18  C   UNL     1      36.652 -22.895 -15.461  0.00  0.00    +0.246 C 
ATOM     19  H   UNL     1      37.208 -23.758 -17.237  0.00  0.00    +0.150 HD
BRANCH  18  20
ATOM     20  C   UNL     1      37.588 -23.769 -14.710  0.00  0.00    +0.053 C 
ATOM     21  C   UNL     1      38.715 -24.244 -15.349  0.00  0.00    +0.005 C 
ATOM     22  C   UNL     1      37.302 -24.079 -13.397  0.00  0.00    +0.005 C 
ATOM     23  C   UNL     1      39.595 -25.064 -14.644  0.00  0.00    +0.000 C 
ATOM     24  C   UNL     1      38.181 -24.900 -12.690  0.00  0.00    +0.000 C 
ATOM     25  C   UNL     1      39.328 -25.392 -13.314  0.00  0.00    +0.000 C 
ENDBRANCH  18  20
ENDBRANCH   1  17
BRANCH   1  26
ATOM     26  C   UNL     1      36.380 -22.226 -19.119  0.00  0.00    +0.055 C 
BRANCH  26  27
ATOM     27  C   UNL     1      36.052 -20.953 -19.860  0.00  0.00    -0.020 C 
ATOM     28  C   UNL     1      34.744 -20.712 -20.251  0.00  0.00    -0.001 C 
ATOM     29  C   UNL     1      37.064 -20.046 -20.135  0.00  0.00    -0.001 C 
ATOM     30  C   UNL     1      34.440 -19.536 -20.936  0.00  0.00    +0.036 C 
ATOM     31  C   UNL     1      36.759 -18.870 -20.820  0.00  0.00    +0.036 C 
ATOM     32  C   UNL     1      35.448 -18.615 -21.220  0.00  0.00    +0.134 C 
BRANCH  32  33
ATOM     33  O   UNL     1      35.152 -17.466 -21.888  0.00  0.00    -0.506 OA
ATOM     34  H   UNL     1      34.944 -16.687 -21.411  0.00  0.00    +0.292 HD
ENDBRANCH  32  33
ENDBRANCH  26  27
ENDBRANCH   1  26
TORSDOF 9
ENDMDL
MODEL 8
REMARK VINA RESULT:      -8.9     11.383     17.552
REMARK  Name = 6957673
REMARK  9 active torsions:
REMARK  status: ('A' for Active; 'I' for Inactive)
REMARK    1  A    between atoms: C_1  and  C_4
REMARK    2  A    between atoms: C_1  and  N_17
REMARK    3  A    between atoms: C_1  and  C_26
REMARK    4  A    between atoms: N_3  and  C_6
REMARK    5  A    between atoms: C_11  and  C_13
REMARK    6  A    between atoms: C_13  and  O_14
REMARK    7  A    between atoms: C_18  and  C_20
REMARK    8  A    between atoms: C_26  and  C_27
REMARK    9  A    between atoms: C_32  and  O_33
REMARK                            x       y       z     vdW  Elec       q    Type
REMARK                         _______ _______ _______ _____ _____    ______ ____
ROOT
ATOM      1  C   UNL     1      34.300  -8.884 -23.308  0.00  0.00    +0.153 C 
ENDROOT
BRANCH   1   4
ATOM      2  O   UNL     1      35.756 -10.450 -24.428  0.00  0.00    -0.273 OA
ATOM      3  N   UNL     1      33.796 -11.244 -23.408  0.00  0.00    -0.283 N 
ATOM      4  C   UNL     1      34.712 -10.272 -23.805  0.00  0.00    +0.244 C 
ATOM      5  H   UNL     1      33.031 -10.927 -22.878  0.00  0.00    +0.155 HD
BRANCH   3   6
ATOM      6  C   UNL     1      33.840 -12.632 -23.676  0.00  0.00    +0.050 C 
ATOM      7  C   UNL     1      34.345 -13.492 -22.714  0.00  0.00    +0.015 C 
ATOM      8  C   UNL     1      33.375 -13.103 -24.892  0.00  0.00    +0.015 C 
ATOM      9  C   UNL     1      34.388 -14.861 -22.977  0.00  0.00    +0.008 C 
ATOM     10  C   UNL     1      33.416 -14.473 -25.155  0.00  0.00    +0.008 C 
ATOM     11  C   UNL     1      33.923 -15.351 -24.197  0.00  0.00    +0.076 C 
BRANCH  11  13
ATOM     12  O   UNL     1      34.768 -17.579 -23.978  0.00  0.00    -0.245 OA
ATOM     13  C   UNL     1      33.965 -16.779 -24.471  0.00  0.00    +0.338 C 
BRANCH  13  14
ATOM     14  O   UNL     1      33.003 -17.169 -25.351  0.00  0.00    -0.477 OA
ATOM     15  H   UNL     1      32.101 -17.144 -25.101  0.00  0.00    +0.295 HD
ENDBRANCH  13  14
ENDBRANCH  11  13
ENDBRANCH   3   6
ENDBRANCH   1   4
BRANCH   1  17
ATOM     16  O   UNL     1      35.494  -6.353 -23.948  0.00  0.00    -0.270 OA
ATOM     17  N   UNL     1      34.045  -8.083 -24.481  0.00  0.00    -0.295 N 
ATOM     18  C   UNL     1      34.673  -6.867 -24.704  0.00  0.00    +0.246 C 
ATOM     19  H   UNL     1      33.401  -8.413 -25.149  0.00  0.00    +0.150 HD
BRANCH  18  20
ATOM     20  C   UNL     1      34.283  -6.151 -25.945  0.00  0.00    +0.053 C 
ATOM     21  C   UNL     1      34.652  -6.681 -27.165  0.00  0.00    +0.005 C 
ATOM     22  C   UNL     1      33.563  -4.979 -25.840  0.00  0.00    +0.005 C 
ATOM     23  C   UNL     1      34.285  -6.009 -28.330  0.00  0.00    +0.000 C 
ATOM     24  C   UNL     1      33.196  -4.306 -27.005  0.00  0.00    +0.000 C 
ATOM     25  C   UNL     1      33.556  -4.821 -28.251  0.00  0.00    +0.000 C 
ENDBRANCH  18  20
ENDBRANCH   1  17
BRANCH   1  26
ATOM     26  C   UNL     1      33.053  -8.950 -22.421  0.00  0.00    +0.055 C 
BRANCH  26  27
ATOM     27  C   UNL     1      32.418  -7.603 -22.176  0.00  0.00    -0.020 C 
ATOM     28  C   UNL     1      31.243  -7.276 -22.835  0.00  0.00    -0.001 C 
ATOM     29  C   UNL     1      33.020  -6.718 -21.296  0.00  0.00    -0.001 C 
ATOM     30  C   UNL     1      30.656  -6.031 -22.608  0.00  0.00    +0.036 C 
ATOM     31  C   UNL     1      32.433  -5.473 -21.070  0.00  0.00    +0.036 C 
ATOM     32  C   UNL     1      31.252  -5.130 -21.726  0.00  0.00    +0.134 C 
BRANCH  32  33
ATOM     33  O   UNL     1      30.679  -3.915 -21.504  0.00  0.00    -0.506 OA
ATOM     34  H   UNL     1      31.215  -3.178 -21.284  0.00  0.00    +0.292 HD
ENDBRANCH  32  33
ENDBRANCH  26  27
ENDBRANCH   1  26
TORSDOF 9
ENDMDL
MODEL 9
REMARK VINA RESULT:      -8.6      5.571      9.544
REMARK  Name = 6957673
REMARK  9 active torsions:
REMARK  status: ('A' for Active; 'I' for Inactive)
REMARK    1  A    between atoms: C_1  and  C_4
REMARK    2  A    between atoms: C_1  and  N_17
REMARK    3  A    between atoms: C_1  and  C_26
REMARK    4  A    between atoms: N_3  and  C_6
REMARK    5  A    between atoms: C_11  and  C_13
REMARK    6  A    between atoms: C_13  and  O_14
REMARK    7  A    between atoms: C_18  and  C_20
REMARK    8  A    between atoms: C_26  and  C_27
REMARK    9  A    between atoms: C_32  and  O_33
REMARK                            x       y       z     vdW  Elec       q    Type
REMARK                         _______ _______ _______ _____ _____    ______ ____
ROOT
ATOM      1  C   UNL     1      35.824 -17.188 -21.349  0.00  0.00    +0.153 C 
ENDROOT
BRANCH   1   4
ATOM      2  O   UNL     1      34.490 -15.830 -19.867  0.00  0.00    -0.273 OA
ATOM      3  N   UNL     1      34.677 -15.210 -22.123  0.00  0.00    -0.283 N 
ATOM      4  C   UNL     1      34.904 -16.014 -21.009  0.00  0.00    +0.244 C 
ATOM      5  H   UNL     1      35.121 -15.488 -22.956  0.00  0.00    +0.155 HD
BRANCH   3   6
ATOM      6  C   UNL     1      33.884 -14.041 -22.197  0.00  0.00    +0.050 C 
ATOM      7  C   UNL     1      34.132 -13.118 -23.200  0.00  0.00    +0.015 C 
ATOM      8  C   UNL     1      32.876 -13.844 -21.269  0.00  0.00    +0.015 C 
ATOM      9  C   UNL     1      33.350 -11.964 -23.275  0.00  0.00    +0.008 C 
ATOM     10  C   UNL     1      32.093 -12.692 -21.344  0.00  0.00    +0.008 C 
ATOM     11  C   UNL     1      32.331 -11.752 -22.347  0.00  0.00    +0.076 C 
BRANCH  11  13
ATOM     12  O   UNL     1      31.770  -9.557 -23.113  0.00  0.00    -0.245 OA
ATOM     13  C   UNL     1      31.515 -10.551 -22.426  0.00  0.00    +0.338 C 
BRANCH  13  14
ATOM     14  O   UNL     1      30.402 -10.626 -21.646  0.00  0.00    -0.477 OA
ATOM     15  H   UNL     1      29.937 -11.436 -21.569  0.00  0.00    +0.295 HD
ENDBRANCH  13  14
ENDBRANCH  11  13
ENDBRANCH   3   6
ENDBRANCH   1   4
BRANCH   1  17
ATOM     16  O   UNL     1      37.126 -19.486 -20.221  0.00  0.00    -0.270 OA
ATOM     17  N   UNL     1      35.185 -18.378 -20.841  0.00  0.00    -0.295 N 
ATOM     18  C   UNL     1      35.901 -19.442 -20.312  0.00  0.00    +0.246 C 
ATOM     19  H   UNL     1      34.202 -18.436 -20.870  0.00  0.00    +0.150 HD
BRANCH  18  20
ATOM     20  C   UNL     1      35.097 -20.604 -19.855  0.00  0.00    +0.053 C 
ATOM     21  C   UNL     1      35.736 -21.648 -19.220  0.00  0.00    +0.005 C 
ATOM     22  C   UNL     1      33.736 -20.602 -20.081  0.00  0.00    +0.005 C 
ATOM     23  C   UNL     1      34.982 -22.739 -18.791  0.00  0.00    +0.000 C 
ATOM     24  C   UNL     1      32.980 -21.693 -19.652  0.00  0.00    +0.000 C 
ATOM     25  C   UNL     1      33.603 -22.762 -19.007  0.00  0.00    +0.000 C 
ENDBRANCH  18  20
ENDBRANCH   1  17
BRANCH   1  26
ATOM     26  C   UNL     1      36.054 -17.306 -22.859  0.00  0.00    +0.055 C 
BRANCH  26  27
ATOM     27  C   UNL     1      34.856 -17.834 -23.610  0.00  0.00    -0.020 C 
ATOM     28  C   UNL     1      34.122 -16.973 -24.412  0.00  0.00    -0.001 C 
ATOM     29  C   UNL     1      34.511 -19.171 -23.486  0.00  0.00    -0.001 C 
ATOM     30  C   UNL     1      33.015 -17.461 -25.105  0.00  0.00    +0.036 C 
ATOM     31  C   UNL     1      33.403 -19.658 -24.179  0.00  0.00    +0.036 C 
ATOM     32  C   UNL     1      32.656 -18.803 -24.989  0.00  0.00    +0.134 C 
BRANCH  32  33
ATOM     33  O   UNL     1      31.576 -19.280 -25.666  0.00  0.00    -0.506 OA
ATOM     34  H   UNL     1      30.720 -19.213 -25.290  0.00  0.00    +0.292 HD
ENDBRANCH  32  33
ENDBRANCH  26  27
ENDBRANCH   1  26
TORSDOF 9
ENDMDL
