MODEL 1
REMARK VINA RESULT:     -12.1      0.000      0.000
REMARK  Name = 118598754
REMARK  1 active torsions:
REMARK  status: ('A' for Active; 'I' for Inactive)
REMARK    1  A    between atoms: C_15  and  N_19
REMARK                            x       y       z     vdW  Elec       q    Type
REMARK                         _______ _______ _______ _____ _____    ______ ____
ROOT
ATOM      1  O   UNL     1      31.996 -24.877 -12.722  0.00  0.00    -0.269 OA
ATOM      2  O   UNL     1      36.591 -23.470 -16.035  0.00  0.00    -0.268 OA
ATOM      3  N   UNL     1      34.761 -24.031 -14.718  0.00  0.00    -0.238 N 
ATOM      4  N   UNL     1      34.333 -24.863 -12.620  0.00  0.00    -0.288 N 
ATOM      5  C   UNL     1      35.447 -24.498 -13.487  0.00  0.00    +0.124 C 
ATOM      6  C   UNL     1      36.320 -25.737 -13.766  0.00  0.00    +0.038 C 
ATOM      7  C   UNL     1      36.266 -23.365 -12.836  0.00  0.00    +0.038 C 
ATOM      8  C   UNL     1      37.053 -23.839 -11.613  0.00  0.00    +0.003 C 
ATOM      9  C   UNL     1      37.108 -26.190 -12.536  0.00  0.00    +0.003 C 
ATOM     10  C   UNL     1      37.924 -25.049 -11.937  0.00  0.00    +0.000 C 
ATOM     11  C   UNL     1      33.388 -24.124 -14.561  0.00  0.00    +0.105 C 
ATOM     12  C   UNL     1      33.091 -24.661 -13.208  0.00  0.00    +0.260 C 
ATOM     13  C   UNL     1      35.375 -23.563 -15.873  0.00  0.00    +0.267 C 
ATOM     14  C   UNL     1      32.539 -23.763 -15.534  0.00  0.00    -0.002 C 
ATOM     15  C   UNL     1      34.437 -23.153 -16.978  0.00  0.00    +0.104 C 
ATOM     16  C   UNL     1      33.113 -23.264 -16.772  0.00  0.00    +0.016 C 
ATOM     17  C   UNL     1      31.041 -23.813 -15.493  0.00  0.00    +0.033 C 
ATOM     18  H   UNL     1      34.449 -25.218 -11.709  0.00  0.00    +0.151 HD
ENDROOT
BRANCH  15  19
ATOM     19  N   UNL     1      35.014 -22.690 -18.125  0.00  0.00    -0.298 N 
ATOM     20  N   UNL     1      33.159 -21.720 -19.228  0.00  0.00    -0.233 NA
ATOM     21  N   UNL     1      33.519 -19.995 -20.872  0.00  0.00    -0.234 NA
ATOM     22  C   UNL     1      34.496 -21.781 -19.053  0.00  0.00    +0.113 C 
ATOM     23  C   UNL     1      35.395 -20.993 -19.742  0.00  0.00    +0.121 C 
ATOM     24  C   UNL     1      34.844 -20.109 -20.648  0.00  0.00    +0.107 C 
ATOM     25  C   UNL     1      32.745 -20.818 -20.139  0.00  0.00    +0.252 C 
ATOM     26  H   UNL     1      35.912 -23.042 -18.324  0.00  0.00    +0.153 HD
ATOM     27  N   UNL     1      35.735 -19.284 -21.377  0.00  0.00    -0.346 N 
ATOM     28  H   UNL     1      35.384 -18.639 -22.034  0.00  0.00    +0.143 HD
ATOM     29  H   UNL     1      36.706 -19.354 -21.227  0.00  0.00    +0.143 HD
ENDBRANCH  15  19
TORSDOF 1
ENDMDL
MODEL 2
REMARK VINA RESULT:     -10.4      2.734      6.588
REMARK  Name = 118598754
REMARK  1 active torsions:
REMARK  status: ('A' for Active; 'I' for Inactive)
REMARK    1  A    between atoms: C_15  and  N_19
REMARK                            x       y       z     vdW  Elec       q    Type
REMARK                         _______ _______ _______ _____ _____    ______ ____
ROOT
ATOM      1  O   UNL     1      32.322 -21.851 -19.090  0.00  0.00    -0.269 OA
ATOM      2  O   UNL     1      34.213 -24.212 -14.098  0.00  0.00    -0.268 OA
ATOM      3  N   UNL     1      33.462 -23.273 -16.086  0.00  0.00    -0.238 N 
ATOM      4  N   UNL     1      31.471 -22.845 -17.150  0.00  0.00    -0.288 N 
ATOM      5  C   UNL     1      31.994 -23.425 -15.919  0.00  0.00    +0.124 C 
ATOM      6  C   UNL     1      31.589 -24.909 -15.827  0.00  0.00    +0.038 C 
ATOM      7  C   UNL     1      31.482 -22.624 -14.705  0.00  0.00    +0.038 C 
ATOM      8  C   UNL     1      29.986 -22.830 -14.456  0.00  0.00    +0.003 C 
ATOM      9  C   UNL     1      30.094 -25.095 -15.568  0.00  0.00    +0.003 C 
ATOM     10  C   UNL     1      29.631 -24.308 -14.346  0.00  0.00    +0.000 C 
ATOM     11  C   UNL     1      33.742 -22.665 -17.298  0.00  0.00    +0.105 C 
ATOM     12  C   UNL     1      32.464 -22.379 -18.002  0.00  0.00    +0.260 C 
ATOM     13  C   UNL     1      34.437 -23.672 -15.180  0.00  0.00    +0.267 C 
ATOM     14  C   UNL     1      34.999 -22.414 -17.691  0.00  0.00    -0.002 C 
ATOM     15  C   UNL     1      35.857 -23.399 -15.603  0.00  0.00    +0.104 C 
ATOM     16  C   UNL     1      36.071 -22.806 -16.791  0.00  0.00    +0.016 C 
ATOM     17  C   UNL     1      35.437 -21.765 -18.969  0.00  0.00    +0.033 C 
ATOM     18  H   UNL     1      30.510 -22.788 -17.357  0.00  0.00    +0.151 HD
ENDROOT
BRANCH  15  19
ATOM     19  N   UNL     1      36.835 -23.781 -14.732  0.00  0.00    -0.298 N 
ATOM     20  N   UNL     1      36.707 -26.139 -14.887  0.00  0.00    -0.233 NA
ATOM     21  N   UNL     1      38.628 -27.477 -14.312  0.00  0.00    -0.234 NA
ATOM     22  C   UNL     1      37.432 -25.039 -14.594  0.00  0.00    +0.113 C 
ATOM     23  C   UNL     1      38.741 -25.077 -14.160  0.00  0.00    +0.121 C 
ATOM     24  C   UNL     1      39.293 -26.337 -14.036  0.00  0.00    +0.107 C 
ATOM     25  C   UNL     1      37.357 -27.308 -14.727  0.00  0.00    +0.252 C 
ATOM     26  H   UNL     1      37.163 -23.081 -14.123  0.00  0.00    +0.153 HD
ATOM     27  N   UNL     1      40.635 -26.418 -13.590  0.00  0.00    -0.346 N 
ATOM     28  H   UNL     1      41.068 -27.297 -13.489  0.00  0.00    +0.143 HD
ATOM     29  H   UNL     1      41.137 -25.596 -13.383  0.00  0.00    +0.143 HD
ENDBRANCH  15  19
TORSDOF 1
ENDMDL
MODEL 3
REMARK VINA RESULT:      -9.2      7.270     10.755
REMARK  Name = 118598754
REMARK  1 active torsions:
REMARK  status: ('A' for Active; 'I' for Inactive)
REMARK    1  A    between atoms: C_15  and  N_19
REMARK                            x       y       z     vdW  Elec       q    Type
REMARK                         _______ _______ _______ _____ _____    ______ ____
ROOT
ATOM      1  O   UNL     1      34.641 -18.067 -25.340  0.00  0.00    -0.269 OA
ATOM      2  O   UNL     1      34.679 -15.918 -19.914  0.00  0.00    -0.268 OA
ATOM      3  N   UNL     1      34.665 -16.772 -22.074  0.00  0.00    -0.238 N 
ATOM      4  N   UNL     1      35.232 -18.710 -23.170  0.00  0.00    -0.288 N 
ATOM      5  C   UNL     1      35.221 -18.127 -21.833  0.00  0.00    +0.124 C 
ATOM      6  C   UNL     1      36.659 -18.055 -21.284  0.00  0.00    +0.038 C 
ATOM      7  C   UNL     1      34.305 -18.954 -20.910  0.00  0.00    +0.038 C 
ATOM      8  C   UNL     1      34.894 -20.326 -20.574  0.00  0.00    +0.003 C 
ATOM      9  C   UNL     1      37.228 -19.433 -20.944  0.00  0.00    +0.003 C 
ATOM     10  C   UNL     1      36.306 -20.209 -20.009  0.00  0.00    +0.000 C 
ATOM     11  C   UNL     1      34.387 -16.604 -23.420  0.00  0.00    +0.105 C 
ATOM     12  C   UNL     1      34.748 -17.850 -24.147  0.00  0.00    +0.260 C 
ATOM     13  C   UNL     1      34.443 -15.793 -21.114  0.00  0.00    +0.267 C 
ATOM     14  C   UNL     1      33.876 -15.462 -23.901  0.00  0.00    -0.002 C 
ATOM     15  C   UNL     1      33.868 -14.501 -21.634  0.00  0.00    +0.104 C 
ATOM     16  C   UNL     1      33.619 -14.393 -22.951  0.00  0.00    +0.016 C 
ATOM     17  C   UNL     1      33.531 -15.153 -25.327  0.00  0.00    +0.033 C 
ATOM     18  H   UNL     1      35.549 -19.622 -23.361  0.00  0.00    +0.151 HD
ENDROOT
BRANCH  15  19
ATOM     19  N   UNL     1      33.641 -13.521 -20.712  0.00  0.00    -0.298 N 
ATOM     20  N   UNL     1      32.594 -11.862 -22.035  0.00  0.00    -0.233 NA
ATOM     21  N   UNL     1      31.165 -10.229 -20.987  0.00  0.00    -0.234 NA
ATOM     22  C   UNL     1      32.803 -12.405 -20.817  0.00  0.00    +0.113 C 
ATOM     23  C   UNL     1      32.237 -11.923 -19.655  0.00  0.00    +0.121 C 
ATOM     24  C   UNL     1      31.418 -10.822 -19.802  0.00  0.00    +0.107 C 
ATOM     25  C   UNL     1      31.776 -10.792 -22.047  0.00  0.00    +0.252 C 
ATOM     26  H   UNL     1      34.129 -13.613 -19.862  0.00  0.00    +0.153 HD
ATOM     27  N   UNL     1      30.820 -10.295 -18.631  0.00  0.00    -0.346 N 
ATOM     28  H   UNL     1      30.228  -9.510 -18.691  0.00  0.00    +0.143 HD
ATOM     29  H   UNL     1      30.994 -10.714 -17.757  0.00  0.00    +0.143 HD
ENDBRANCH  15  19
TORSDOF 1
ENDMDL
MODEL 4
REMARK VINA RESULT:      -9.1      1.720      4.248
REMARK  Name = 118598754
REMARK  1 active torsions:
REMARK  status: ('A' for Active; 'I' for Inactive)
REMARK    1  A    between atoms: C_15  and  N_19
REMARK                            x       y       z     vdW  Elec       q    Type
REMARK                         _______ _______ _______ _____ _____    ______ ____
ROOT
ATOM      1  O   UNL     1      33.486 -24.164 -12.215  0.00  0.00    -0.269 OA
ATOM      2  O   UNL     1      32.359 -23.178 -17.857  0.00  0.00    -0.268 OA
ATOM      3  N   UNL     1      32.809 -23.569 -15.611  0.00  0.00    -0.238 N 
ATOM      4  N   UNL     1      31.672 -24.121 -13.693  0.00  0.00    -0.288 N 
ATOM      5  C   UNL     1      31.443 -23.865 -15.110  0.00  0.00    +0.124 C 
ATOM      6  C   UNL     1      30.508 -22.652 -15.277  0.00  0.00    +0.038 C 
ATOM      7  C   UNL     1      30.859 -25.124 -15.780  0.00  0.00    +0.038 C 
ATOM      8  C   UNL     1      29.419 -25.405 -15.347  0.00  0.00    +0.003 C 
ATOM      9  C   UNL     1      29.071 -22.954 -14.848  0.00  0.00    +0.003 C 
ATOM     10  C   UNL     1      28.521 -24.190 -15.552  0.00  0.00    +0.000 C 
ATOM     11  C   UNL     1      33.724 -23.650 -14.575  0.00  0.00    +0.105 C 
ATOM     12  C   UNL     1      33.006 -24.007 -13.323  0.00  0.00    +0.260 C 
ATOM     13  C   UNL     1      33.152 -23.254 -16.920  0.00  0.00    +0.267 C 
ATOM     14  C   UNL     1      35.031 -23.424 -14.766  0.00  0.00    -0.002 C 
ATOM     15  C   UNL     1      34.618 -22.996 -17.155  0.00  0.00    +0.104 C 
ATOM     16  C   UNL     1      35.462 -23.088 -16.112  0.00  0.00    +0.016 C 
ATOM     17  C   UNL     1      36.120 -23.479 -13.737  0.00  0.00    +0.033 C 
ATOM     18  H   UNL     1      30.954 -24.352 -13.060  0.00  0.00    +0.151 HD
ENDROOT
BRANCH  15  19
ATOM     19  N   UNL     1      34.983 -22.684 -18.432  0.00  0.00    -0.298 N 
ATOM     20  N   UNL     1      33.129 -21.402 -19.151  0.00  0.00    -0.233 NA
ATOM     21  N   UNL     1      33.398 -19.822 -20.951  0.00  0.00    -0.234 NA
ATOM     22  C   UNL     1      34.435 -21.715 -19.280  0.00  0.00    +0.113 C 
ATOM     23  C   UNL     1      35.275 -21.134 -20.208  0.00  0.00    +0.121 C 
ATOM     24  C   UNL     1      34.696 -20.184 -21.025  0.00  0.00    +0.107 C 
ATOM     25  C   UNL     1      32.683 -20.461 -20.006  0.00  0.00    +0.252 C 
ATOM     26  H   UNL     1      35.729 -23.207 -18.804  0.00  0.00    +0.153 HD
ATOM     27  N   UNL     1      35.524 -19.565 -21.993  0.00  0.00    -0.346 N 
ATOM     28  H   UNL     1      35.152 -18.882 -22.597  0.00  0.00    +0.143 HD
ATOM     29  H   UNL     1      36.474 -19.817 -22.063  0.00  0.00    +0.143 HD
ENDBRANCH  15  19
TORSDOF 1
ENDMDL
