MODEL 1
REMARK VINA RESULT:     -11.0      0.000      0.000
REMARK  Name = 5362507
REMARK  4 active torsions:
REMARK  status: ('A' for Active; 'I' for Inactive)
REMARK    1  A    between atoms: C_12  and  O_21
REMARK    2  A    between atoms: C_18  and  O_23
REMARK    3  A    between atoms: O_23  and  C_24
REMARK    4  A    between atoms: C_24  and  C_25
REMARK                            x       y       z     vdW  Elec       q    Type
REMARK                         _______ _______ _______ _____ _____    ______ ____
ROOT
ATOM      1  O   UNL     1      31.667 -10.941 -22.484  0.00  0.00    -0.473 OA
ATOM      2  N   UNL     1      32.134  -5.774 -23.262  0.00  0.00    +0.387 N 
ATOM      3  C   UNL     1      31.760  -8.510 -22.366  0.00  0.00    +0.061 C 
ATOM      4  C   UNL     1      32.183  -7.379 -21.417  0.00  0.00    +0.010 C 
ATOM      5  C   UNL     1      33.042  -6.380 -22.259  0.00  0.00    -0.049 C 
ATOM      6  C   UNL     1      31.148  -9.784 -21.739  0.00  0.00    +0.200 C 
ATOM      7  C   UNL     1      30.894  -7.927 -23.501  0.00  0.00    -0.015 C 
ATOM      8  C   UNL     1      32.992  -9.137 -22.930  0.00  0.00    +0.014 C 
ATOM      9  C   UNL     1      34.334  -7.043 -22.852  0.00  0.00    +0.006 C 
ATOM     10  C   UNL     1      31.565  -6.738 -24.209  0.00  0.00    -0.077 C 
ATOM     11  C   UNL     1      34.179  -8.492 -23.228  0.00  0.00    -0.025 C 
ATOM     12  C   UNL     1      31.409  -9.940 -20.218  0.00  0.00    +0.172 C 
ATOM     13  C   UNL     1      32.869  -7.916 -20.186  0.00  0.00    -0.030 C 
ATOM     14  C   UNL     1      32.847 -10.504 -23.023  0.00  0.00    +0.168 C 
ATOM     15  C   UNL     1      32.522  -9.097 -19.655  0.00  0.00    +0.002 C 
ATOM     16  C   UNL     1      35.210  -9.268 -23.761  0.00  0.00    -0.001 C 
ATOM     17  C   UNL     1      32.714  -4.627 -23.953  0.00  0.00    -0.101 C 
ATOM     18  C   UNL     1      33.846 -11.288 -23.553  0.00  0.00    +0.172 C 
ATOM     19  C   UNL     1      35.034 -10.655 -23.940  0.00  0.00    +0.040 C 
ATOM     20  H   UNL     1      31.354  -5.423 -22.706  0.00  0.00    -0.080 HD
ENDROOT
BRANCH  12  21
ATOM     21  O   UNL     1      31.618 -11.314 -19.899  0.00  0.00    -0.377 OA
ATOM     22  H   UNL     1      32.560 -11.464 -19.719  0.00  0.00    +0.211 HD
ENDBRANCH  12  21
BRANCH  18  23
ATOM     23  O   UNL     1      33.709 -12.632 -23.668  0.00  0.00    -0.468 OA
BRANCH  23  24
ATOM     24  C   UNL     1      34.181 -13.435 -22.584  0.00  0.00    +0.232 C 
BRANCH  24  25
ATOM     25  C   UNL     1      34.380 -14.856 -22.990  0.00  0.00    +0.021 C 
ATOM     26  C   UNL     1      34.939 -15.766 -22.093  0.00  0.00    -0.001 C 
ATOM     27  C   UNL     1      34.007 -15.276 -24.267  0.00  0.00    -0.001 C 
ATOM     28  C   UNL     1      35.126 -17.095 -22.472  0.00  0.00    -0.000 C 
ATOM     29  C   UNL     1      34.194 -16.604 -24.647  0.00  0.00    -0.000 C 
ATOM     30  C   UNL     1      34.752 -17.514 -23.750  0.00  0.00    -0.000 C 
ENDBRANCH  24  25
ENDBRANCH  23  24
ENDBRANCH  18  23
TORSDOF 4
ENDMDL
MODEL 2
REMARK VINA RESULT:      -8.9     11.685     16.645
REMARK  Name = 5362507
REMARK  4 active torsions:
REMARK  status: ('A' for Active; 'I' for Inactive)
REMARK    1  A    between atoms: C_12  and  O_21
REMARK    2  A    between atoms: C_18  and  O_23
REMARK    3  A    between atoms: O_23  and  C_24
REMARK    4  A    between atoms: C_24  and  C_25
REMARK                            x       y       z     vdW  Elec       q    Type
REMARK                         _______ _______ _______ _____ _____    ______ ____
ROOT
ATOM      1  O   UNL     1      35.091 -25.594 -15.525  0.00  0.00    -0.473 OA
ATOM      2  N   UNL     1      36.484 -24.188 -10.667  0.00  0.00    +0.387 N 
ATOM      3  C   UNL     1      35.989 -25.369 -13.273  0.00  0.00    +0.061 C 
ATOM      4  C   UNL     1      37.266 -25.649 -12.466  0.00  0.00    +0.010 C 
ATOM      5  C   UNL     1      37.580 -24.352 -11.652  0.00  0.00    -0.049 C 
ATOM      6  C   UNL     1      35.608 -26.370 -14.387  0.00  0.00    +0.200 C 
ATOM      7  C   UNL     1      34.825 -25.082 -12.303  0.00  0.00    -0.015 C 
ATOM      8  C   UNL     1      36.235 -24.182 -14.145  0.00  0.00    +0.014 C 
ATOM      9  C   UNL     1      37.834 -23.107 -12.571  0.00  0.00    +0.006 C 
ATOM     10  C   UNL     1      35.163 -23.992 -11.274  0.00  0.00    -0.077 C 
ATOM     11  C   UNL     1      37.026 -23.089 -13.839  0.00  0.00    -0.025 C 
ATOM     12  C   UNL     1      36.763 -27.305 -14.832  0.00  0.00    +0.172 C 
ATOM     13  C   UNL     1      38.389 -26.123 -13.352  0.00  0.00    -0.030 C 
ATOM     14  C   UNL     1      35.649 -24.353 -15.380  0.00  0.00    +0.168 C 
ATOM     15  C   UNL     1      38.149 -26.864 -14.444  0.00  0.00    +0.002 C 
ATOM     16  C   UNL     1      37.112 -22.078 -14.798  0.00  0.00    -0.001 C 
ATOM     17  C   UNL     1      36.760 -23.176  -9.653  0.00  0.00    -0.101 C 
ATOM     18  C   UNL     1      35.714 -23.366 -16.338  0.00  0.00    +0.172 C 
ATOM     19  C   UNL     1      36.442 -22.209 -16.031  0.00  0.00    +0.040 C 
ATOM     20  H   UNL     1      36.449 -25.087 -10.187  0.00  0.00    -0.080 HD
ENDROOT
BRANCH  12  21
ATOM     21  O   UNL     1      36.691 -27.532 -16.238  0.00  0.00    -0.377 OA
ATOM     22  H   UNL     1      37.104 -26.790 -16.706  0.00  0.00    +0.211 HD
ENDBRANCH  12  21
BRANCH  18  23
ATOM     23  O   UNL     1      35.126 -23.514 -17.550  0.00  0.00    -0.468 OA
BRANCH  23  24
ATOM     24  C   UNL     1      33.896 -22.821 -17.771  0.00  0.00    +0.232 C 
BRANCH  24  25
ATOM     25  C   UNL     1      34.003 -21.838 -18.888  0.00  0.00    +0.021 C 
ATOM     26  C   UNL     1      32.853 -21.258 -19.420  0.00  0.00    -0.001 C 
ATOM     27  C   UNL     1      35.256 -21.500 -19.401  0.00  0.00    -0.001 C 
ATOM     28  C   UNL     1      32.953 -20.339 -20.465  0.00  0.00    -0.000 C 
ATOM     29  C   UNL     1      35.357 -20.582 -20.446  0.00  0.00    -0.000 C 
ATOM     30  C   UNL     1      34.206 -20.002 -20.978  0.00  0.00    -0.000 C 
ENDBRANCH  24  25
ENDBRANCH  23  24
ENDBRANCH  18  23
TORSDOF 4
ENDMDL
MODEL 3
REMARK VINA RESULT:      -8.9      0.870      1.304
REMARK  Name = 5362507
REMARK  4 active torsions:
REMARK  status: ('A' for Active; 'I' for Inactive)
REMARK    1  A    between atoms: C_12  and  O_21
REMARK    2  A    between atoms: C_18  and  O_23
REMARK    3  A    between atoms: O_23  and  C_24
REMARK    4  A    between atoms: C_24  and  C_25
REMARK                            x       y       z     vdW  Elec       q    Type
REMARK                         _______ _______ _______ _____ _____    ______ ____
ROOT
ATOM      1  O   UNL     1      31.508 -11.764 -21.966  0.00  0.00    -0.473 OA
ATOM      2  N   UNL     1      31.457  -6.627 -23.026  0.00  0.00    +0.387 N 
ATOM      3  C   UNL     1      31.412  -9.331 -21.970  0.00  0.00    +0.061 C 
ATOM      4  C   UNL     1      31.841  -8.120 -21.127  0.00  0.00    +0.010 C 
ATOM      5  C   UNL     1      32.517  -7.106 -22.106  0.00  0.00    -0.049 C 
ATOM      6  C   UNL     1      30.979 -10.612 -21.220  0.00  0.00    +0.200 C 
ATOM      7  C   UNL     1      30.382  -8.879 -23.025  0.00  0.00    -0.015 C 
ATOM      8  C   UNL     1      32.622  -9.891 -22.641  0.00  0.00    +0.014 C 
ATOM      9  C   UNL     1      33.786  -7.698 -22.811  0.00  0.00    +0.006 C 
ATOM     10  C   UNL     1      30.870  -7.682 -23.857  0.00  0.00    -0.077 C 
ATOM     11  C   UNL     1      33.712  -9.173 -23.100  0.00  0.00    -0.025 C 
ATOM     12  C   UNL     1      31.417 -10.665 -19.733  0.00  0.00    +0.172 C 
ATOM     13  C   UNL     1      32.699  -8.534 -19.959  0.00  0.00    -0.030 C 
ATOM     14  C   UNL     1      32.582 -11.267 -22.654  0.00  0.00    +0.168 C 
ATOM     15  C   UNL     1      32.511  -9.708 -19.339  0.00  0.00    +0.002 C 
ATOM     16  C   UNL     1      34.739  -9.895 -23.710  0.00  0.00    -0.001 C 
ATOM     17  C   UNL     1      31.861  -5.478 -23.830  0.00  0.00    -0.101 C 
ATOM     18  C   UNL     1      33.579 -12.000 -23.258  0.00  0.00    +0.172 C 
ATOM     19  C   UNL     1      34.660 -11.299 -23.805  0.00  0.00    +0.040 C 
ATOM     20  H   UNL     1      30.717  -6.307 -22.402  0.00  0.00    -0.080 HD
ENDROOT
BRANCH  12  21
ATOM     21  O   UNL     1      31.773 -11.998 -19.378  0.00  0.00    -0.377 OA
ATOM     22  H   UNL     1      32.117 -12.460 -20.159  0.00  0.00    +0.211 HD
ENDBRANCH  12  21
BRANCH  18  23
ATOM     23  O   UNL     1      33.541 -13.355 -23.295  0.00  0.00    -0.468 OA
BRANCH  23  24
ATOM     24  C   UNL     1      34.620 -14.023 -23.953  0.00  0.00    +0.232 C 
BRANCH  24  25
ATOM     25  C   UNL     1      34.557 -15.501 -23.764  0.00  0.00    +0.021 C 
ATOM     26  C   UNL     1      33.943 -16.302 -24.726  0.00  0.00    -0.001 C 
ATOM     27  C   UNL     1      35.113 -16.082 -22.624  0.00  0.00    -0.001 C 
ATOM     28  C   UNL     1      33.884 -17.685 -24.549  0.00  0.00    -0.000 C 
ATOM     29  C   UNL     1      35.053 -17.464 -22.446  0.00  0.00    -0.000 C 
ATOM     30  C   UNL     1      34.440 -18.265 -23.409  0.00  0.00    -0.000 C 
ENDBRANCH  24  25
ENDBRANCH  23  24
ENDBRANCH  18  23
TORSDOF 4
ENDMDL
MODEL 4
REMARK VINA RESULT:      -8.8     14.764     17.577
REMARK  Name = 5362507
REMARK  4 active torsions:
REMARK  status: ('A' for Active; 'I' for Inactive)
REMARK    1  A    between atoms: C_12  and  O_21
REMARK    2  A    between atoms: C_18  and  O_23
REMARK    3  A    between atoms: O_23  and  C_24
REMARK    4  A    between atoms: C_24  and  C_25
REMARK                            x       y       z     vdW  Elec       q    Type
REMARK                         _______ _______ _______ _____ _____    ______ ____
ROOT
ATOM      1  O   UNL     1      34.087 -24.893 -14.756  0.00  0.00    -0.473 OA
ATOM      2  N   UNL     1      39.182 -26.064 -14.333  0.00  0.00    +0.387 N 
ATOM      3  C   UNL     1      36.503 -25.127 -14.944  0.00  0.00    +0.061 C 
ATOM      4  C   UNL     1      37.760 -24.300 -15.252  0.00  0.00    +0.010 C 
ATOM      5  C   UNL     1      38.809 -24.642 -14.144  0.00  0.00    -0.049 C 
ATOM      6  C   UNL     1      35.205 -24.774 -15.704  0.00  0.00    +0.200 C 
ATOM      7  C   UNL     1      36.850 -26.628 -15.018  0.00  0.00    -0.015 C 
ATOM      8  C   UNL     1      36.033 -24.777 -13.571  0.00  0.00    +0.014 C 
ATOM      9  C   UNL     1      38.311 -24.275 -12.704  0.00  0.00    +0.006 C 
ATOM     10  C   UNL     1      38.067 -27.000 -14.156  0.00  0.00    -0.077 C 
ATOM     11  C   UNL     1      36.830 -24.437 -12.492  0.00  0.00    -0.025 C 
ATOM     12  C   UNL     1      35.215 -23.376 -16.378  0.00  0.00    +0.172 C 
ATOM     13  C   UNL     1      37.439 -22.832 -15.383  0.00  0.00    -0.030 C 
ATOM     14  C   UNL     1      34.658 -24.720 -13.524  0.00  0.00    +0.168 C 
ATOM     15  C   UNL     1      36.265 -22.419 -15.880  0.00  0.00    +0.002 C 
ATOM     16  C   UNL     1      36.184 -24.153 -11.288  0.00  0.00    -0.001 C 
ATOM     17  C   UNL     1      40.346 -26.468 -13.550  0.00  0.00    -0.101 C 
ATOM     18  C   UNL     1      33.999 -24.449 -12.346  0.00  0.00    +0.172 C 
ATOM     19  C   UNL     1      34.777 -24.180 -11.213  0.00  0.00    +0.040 C 
ATOM     20  H   UNL     1      39.451 -26.120 -15.314  0.00  0.00    -0.080 HD
ENDROOT
BRANCH  12  21
ATOM     21  O   UNL     1      33.922 -22.784 -16.288  0.00  0.00    -0.377 OA
ATOM     22  H   UNL     1      33.857 -22.272 -15.466  0.00  0.00    +0.211 HD
ENDBRANCH  12  21
BRANCH  18  23
ATOM     23  O   UNL     1      32.645 -24.409 -12.283  0.00  0.00    -0.468 OA
BRANCH  23  24
ATOM     24  C   UNL     1      31.987 -23.349 -12.980  0.00  0.00    +0.232 C 
BRANCH  24  25
ATOM     25  C   UNL     1      30.839 -23.846 -13.791  0.00  0.00    +0.021 C 
ATOM     26  C   UNL     1      30.161 -22.978 -14.647  0.00  0.00    -0.001 C 
ATOM     27  C   UNL     1      30.441 -25.180 -13.694  0.00  0.00    -0.001 C 
ATOM     28  C   UNL     1      29.087 -23.442 -15.406  0.00  0.00    -0.000 C 
ATOM     29  C   UNL     1      29.366 -25.645 -14.452  0.00  0.00    -0.000 C 
ATOM     30  C   UNL     1      28.690 -24.776 -15.308  0.00  0.00    -0.000 C 
ENDBRANCH  24  25
ENDBRANCH  23  24
ENDBRANCH  18  23
TORSDOF 4
ENDMDL
MODEL 5
REMARK VINA RESULT:      -8.7      4.739      8.722
REMARK  Name = 5362507
REMARK  4 active torsions:
REMARK  status: ('A' for Active; 'I' for Inactive)
REMARK    1  A    between atoms: C_12  and  O_21
REMARK    2  A    between atoms: C_18  and  O_23
REMARK    3  A    between atoms: O_23  and  C_24
REMARK    4  A    between atoms: C_24  and  C_25
REMARK                            x       y       z     vdW  Elec       q    Type
REMARK                         _______ _______ _______ _____ _____    ______ ____
ROOT
ATOM      1  O   UNL     1      32.148  -5.553 -25.446  0.00  0.00    -0.473 OA
ATOM      2  N   UNL     1      32.264  -9.055 -21.542  0.00  0.00    +0.387 N 
ATOM      3  C   UNL     1      32.648  -7.294 -23.818  0.00  0.00    +0.061 C 
ATOM      4  C   UNL     1      33.821  -7.865 -23.007  0.00  0.00    +0.010 C 
ATOM      5  C   UNL     1      33.321  -8.014 -21.533  0.00  0.00    -0.049 C 
ATOM      6  C   UNL     1      32.945  -6.773 -25.243  0.00  0.00    +0.200 C 
ATOM      7  C   UNL     1      31.469  -8.287 -23.779  0.00  0.00    -0.015 C 
ATOM      8  C   UNL     1      32.243  -5.993 -23.209  0.00  0.00    +0.014 C 
ATOM      9  C   UNL     1      32.894  -6.645 -20.898  0.00  0.00    +0.006 C 
ATOM     10  C   UNL     1      31.091  -8.705 -22.349  0.00  0.00    -0.077 C 
ATOM     11  C   UNL     1      32.281  -5.669 -21.865  0.00  0.00    -0.025 C 
ATOM     12  C   UNL     1      34.447  -6.509 -25.530  0.00  0.00    +0.172 C 
ATOM     13  C   UNL     1      35.065  -7.030 -23.168  0.00  0.00    -0.030 C 
ATOM     14  C   UNL     1      31.919  -5.076 -24.184  0.00  0.00    +0.168 C 
ATOM     15  C   UNL     1      35.334  -6.397 -24.318  0.00  0.00    +0.002 C 
ATOM     16  C   UNL     1      31.846  -4.392 -21.505  0.00  0.00    -0.001 C 
ATOM     17  C   UNL     1      31.880  -9.503 -20.208  0.00  0.00    -0.101 C 
ATOM     18  C   UNL     1      31.479  -3.814 -23.853  0.00  0.00    +0.172 C 
ATOM     19  C   UNL     1      31.428  -3.480 -22.494  0.00  0.00    +0.040 C 
ATOM     20  H   UNL     1      32.706  -9.848 -22.006  0.00  0.00    -0.080 HD
ENDROOT
BRANCH  12  21
ATOM     21  O   UNL     1      34.589  -5.356 -26.356  0.00  0.00    -0.377 OA
ATOM     22  H   UNL     1      34.556  -4.558 -25.806  0.00  0.00    +0.211 HD
ENDBRANCH  12  21
BRANCH  18  23
ATOM     23  O   UNL     1      31.138  -2.909 -24.802  0.00  0.00    -0.468 OA
BRANCH  23  24
ATOM     24  C   UNL     1      32.149  -2.529 -25.739  0.00  0.00    +0.232 C 
BRANCH  24  25
ATOM     25  C   UNL     1      31.659  -2.602 -27.146  0.00  0.00    +0.021 C 
ATOM     26  C   UNL     1      30.472  -1.966 -27.506  0.00  0.00    -0.001 C 
ATOM     27  C   UNL     1      32.390  -3.307 -28.103  0.00  0.00    -0.001 C 
ATOM     28  C   UNL     1      30.014  -2.034 -28.822  0.00  0.00    -0.000 C 
ATOM     29  C   UNL     1      31.933  -3.377 -29.418  0.00  0.00    -0.000 C 
ATOM     30  C   UNL     1      30.745  -2.740 -29.778  0.00  0.00    -0.000 C 
ENDBRANCH  24  25
ENDBRANCH  23  24
ENDBRANCH  18  23
TORSDOF 4
ENDMDL
MODEL 6
REMARK VINA RESULT:      -8.7      4.530      9.093
REMARK  Name = 5362507
REMARK  4 active torsions:
REMARK  status: ('A' for Active; 'I' for Inactive)
REMARK    1  A    between atoms: C_12  and  O_21
REMARK    2  A    between atoms: C_18  and  O_23
REMARK    3  A    between atoms: O_23  and  C_24
REMARK    4  A    between atoms: C_24  and  C_25
REMARK                            x       y       z     vdW  Elec       q    Type
REMARK                         _______ _______ _______ _____ _____    ______ ____
ROOT
ATOM      1  O   UNL     1      32.422  -4.810 -25.206  0.00  0.00    -0.473 OA
ATOM      2  N   UNL     1      32.055  -9.274 -22.476  0.00  0.00    +0.387 N 
ATOM      3  C   UNL     1      32.685  -6.991 -24.155  0.00  0.00    +0.061 C 
ATOM      4  C   UNL     1      33.767  -7.904 -23.559  0.00  0.00    +0.010 C 
ATOM      5  C   UNL     1      33.224  -8.410 -22.183  0.00  0.00    -0.049 C 
ATOM      6  C   UNL     1      33.068  -6.120 -25.373  0.00  0.00    +0.200 C 
ATOM      7  C   UNL     1      31.397  -7.808 -24.386  0.00  0.00    -0.015 C 
ATOM      8  C   UNL     1      32.422  -5.881 -23.191  0.00  0.00    +0.014 C 
ATOM      9  C   UNL     1      32.947  -7.242 -21.175  0.00  0.00    +0.006 C 
ATOM     10  C   UNL     1      30.946  -8.573 -23.131  0.00  0.00    -0.077 C 
ATOM     11  C   UNL     1      32.470  -5.965 -21.811  0.00  0.00    -0.025 C 
ATOM     12  C   UNL     1      34.595  -5.962 -25.594  0.00  0.00    +0.172 C 
ATOM     13  C   UNL     1      35.103  -7.208 -23.491  0.00  0.00    -0.030 C 
ATOM     14  C   UNL     1      32.225  -4.692 -23.856  0.00  0.00    +0.168 C 
ATOM     15  C   UNL     1      35.466  -6.307 -24.415  0.00  0.00    +0.002 C 
ATOM     16  C   UNL     1      32.179  -4.803 -21.092  0.00  0.00    -0.001 C 
ATOM     17  C   UNL     1      31.595 -10.039 -21.321  0.00  0.00    -0.101 C 
ATOM     18  C   UNL     1      31.928  -3.536 -23.169  0.00  0.00    +0.172 C 
ATOM     19  C   UNL     1      31.890  -3.603 -21.771  0.00  0.00    +0.040 C 
ATOM     20  H   UNL     1      32.411  -9.946 -23.155  0.00  0.00    -0.080 HD
ENDROOT
BRANCH  12  21
ATOM     21  O   UNL     1      34.886  -4.645 -26.056  0.00  0.00    -0.377 OA
ATOM     22  H   UNL     1      34.263  -4.018 -25.657  0.00  0.00    +0.211 HD
ENDBRANCH  12  21
BRANCH  18  23
ATOM     23  O   UNL     1      31.713  -2.363 -23.813  0.00  0.00    -0.468 OA
BRANCH  23  24
ATOM     24  C   UNL     1      30.359  -1.921 -23.937  0.00  0.00    +0.232 C 
BRANCH  24  25
ATOM     25  C   UNL     1      29.916  -1.874 -25.360  0.00  0.00    +0.021 C 
ATOM     26  C   UNL     1      30.862  -1.836 -26.384  0.00  0.00    -0.001 C 
ATOM     27  C   UNL     1      28.555  -1.868 -25.668  0.00  0.00    -0.001 C 
ATOM     28  C   UNL     1      30.448  -1.792 -27.716  0.00  0.00    -0.000 C 
ATOM     29  C   UNL     1      28.141  -1.823 -26.999  0.00  0.00    -0.000 C 
ATOM     30  C   UNL     1      29.087  -1.786 -28.022  0.00  0.00    -0.000 C 
ENDBRANCH  24  25
ENDBRANCH  23  24
ENDBRANCH  18  23
TORSDOF 4
ENDMDL
