MODEL 1
REMARK VINA RESULT:     -11.6      0.000      0.000
REMARK  Name = 42627755
REMARK  2 active torsions:
REMARK  status: ('A' for Active; 'I' for Inactive)
REMARK    1  A    between atoms: N_5  and  C_20
REMARK    2  A    between atoms: C_7  and  C_28
REMARK                            x       y       z     vdW  Elec       q    Type
REMARK                         _______ _______ _______ _____ _____    ______ ____
ROOT
ATOM      1  N   UNL     1      35.432 -22.360 -18.183  0.00  0.00    -0.239 N 
ATOM      2  N   UNL     1      34.551 -22.833 -17.286  0.00  0.00    -0.166 NA
ATOM      3  N   UNL     1      32.110 -22.882 -17.316  0.00  0.00    -0.271 N 
ATOM      4  N   UNL     1      32.666 -23.911 -15.242  0.00  0.00    -0.322 NA
ATOM      5  N   UNL     1      33.167 -24.929 -13.193  0.00  0.00    -0.247 N 
ATOM      6  N   UNL     1      30.914 -24.691 -13.783  0.00  0.00    -0.170 NA
ATOM      7  C   UNL     1      34.852 -21.816 -19.292  0.00  0.00    +0.045 C 
ATOM      8  C   UNL     1      33.497 -21.944 -19.107  0.00  0.00    +0.048 C 
ATOM      9  C   UNL     1      33.370 -22.576 -17.856  0.00  0.00    +0.152 C 
ATOM     10  C   UNL     1      31.714 -23.501 -16.105  0.00  0.00    +0.199 C 
ATOM     11  C   UNL     1      30.361 -23.650 -15.881  0.00  0.00    +0.070 C 
ATOM     12  C   UNL     1      32.202 -24.489 -14.117  0.00  0.00    +0.150 C 
ATOM     13  C   UNL     1      30.015 -24.256 -14.691  0.00  0.00    +0.116 C 
ATOM     14  H   UNL     1      36.408 -22.401 -18.053  0.00  0.00    +0.174 HD
ATOM     15  H   UNL     1      31.358 -22.614 -17.889  0.00  0.00    +0.156 HD
ATOM     16  H   UNL     1      32.783 -25.345 -12.387  0.00  0.00    +0.165 HD
ENDROOT
BRANCH   5  20
ATOM     17  N   UNL     1      37.653 -26.003 -14.966  0.00  0.00    -0.315 N 
ATOM     18  N   UNL     1      38.728 -24.892 -13.369  0.00  0.00    -0.315 N 
ATOM     19  C   UNL     1      36.674 -25.485 -14.159  0.00  0.00    +0.060 C 
ATOM     20  C   UNL     1      34.581 -24.891 -13.196  0.00  0.00    +0.059 C 
ATOM     21  C   UNL     1      37.370 -24.796 -13.170  0.00  0.00    +0.059 C 
ATOM     22  C   UNL     1      35.281 -25.556 -14.207  0.00  0.00    +0.031 C 
ATOM     23  C   UNL     1      35.250 -24.191 -12.190  0.00  0.00    +0.017 C 
ATOM     24  C   UNL     1      36.649 -24.133 -12.161  0.00  0.00    +0.017 C 
ATOM     25  C   UNL     1      38.862 -25.623 -14.452  0.00  0.00    +0.182 C 
ATOM     26  H   UNL     1      37.512 -26.552 -15.771  0.00  0.00    +0.148 HD
ATOM     27  H   UNL     1      39.443 -24.499 -12.818  0.00  0.00    +0.148 HD
ENDBRANCH   5  20
BRANCH   7  28
ATOM     28  C   UNL     1      35.569 -21.197 -20.484  0.00  0.00    +0.037 C 
ATOM     29  C   UNL     1      36.583 -20.119 -20.236  0.00  0.00    +0.006 C 
ATOM     30  C   UNL     1      35.258 -19.775 -20.852  0.00  0.00    +0.006 C 
ENDBRANCH   7  28
TORSDOF 2
ENDMDL
MODEL 2
REMARK VINA RESULT:     -11.3      1.972      7.010
REMARK  Name = 42627755
REMARK  2 active torsions:
REMARK  status: ('A' for Active; 'I' for Inactive)
REMARK    1  A    between atoms: N_5  and  C_20
REMARK    2  A    between atoms: C_7  and  C_28
REMARK                            x       y       z     vdW  Elec       q    Type
REMARK                         _______ _______ _______ _____ _____    ______ ____
ROOT
ATOM      1  N   UNL     1      30.940 -23.136 -16.519  0.00  0.00    -0.239 N 
ATOM      2  N   UNL     1      32.255 -23.167 -16.247  0.00  0.00    -0.166 NA
ATOM      3  N   UNL     1      33.474 -24.105 -14.352  0.00  0.00    -0.271 N 
ATOM      4  N   UNL     1      35.191 -23.191 -15.725  0.00  0.00    -0.322 NA
ATOM      5  N   UNL     1      36.913 -22.307 -17.044  0.00  0.00    -0.247 N 
ATOM      6  N   UNL     1      37.494 -23.364 -15.037  0.00  0.00    -0.170 NA
ATOM      7  C   UNL     1      30.166 -23.731 -15.567  0.00  0.00    +0.045 C 
ATOM      8  C   UNL     1      31.037 -24.184 -14.605  0.00  0.00    +0.048 C 
ATOM      9  C   UNL     1      32.308 -23.808 -15.076  0.00  0.00    +0.152 C 
ATOM     10  C   UNL     1      34.844 -23.845 -14.597  0.00  0.00    +0.199 C 
ATOM     11  C   UNL     1      35.752 -24.284 -13.656  0.00  0.00    +0.070 C 
ATOM     12  C   UNL     1      36.514 -22.987 -15.879  0.00  0.00    +0.150 C 
ATOM     13  C   UNL     1      37.077 -24.013 -13.930  0.00  0.00    +0.116 C 
ATOM     14  H   UNL     1      30.568 -22.722 -17.332  0.00  0.00    +0.174 HD
ATOM     15  H   UNL     1      33.305 -24.586 -13.510  0.00  0.00    +0.156 HD
ATOM     16  H   UNL     1      37.886 -22.181 -17.115  0.00  0.00    +0.165 HD
ENDROOT
BRANCH   5  20
ATOM     17  N   UNL     1      36.274 -19.353 -20.953  0.00  0.00    -0.315 N 
ATOM     18  N   UNL     1      34.215 -20.079 -21.369  0.00  0.00    -0.315 N 
ATOM     19  C   UNL     1      36.018 -20.295 -19.992  0.00  0.00    +0.060 C 
ATOM     20  C   UNL     1      36.188 -21.771 -18.133  0.00  0.00    +0.059 C 
ATOM     21  C   UNL     1      34.727 -20.734 -20.273  0.00  0.00    +0.059 C 
ATOM     22  C   UNL     1      36.780 -20.787 -18.932  0.00  0.00    +0.031 C 
ATOM     23  C   UNL     1      34.895 -22.231 -18.389  0.00  0.00    +0.017 C 
ATOM     24  C   UNL     1      34.147 -21.723 -19.459  0.00  0.00    +0.017 C 
ATOM     25  C   UNL     1      35.167 -19.259 -21.752  0.00  0.00    +0.182 C 
ATOM     26  H   UNL     1      37.105 -18.835 -21.052  0.00  0.00    +0.148 HD
ATOM     27  H   UNL     1      33.328 -20.200 -21.779  0.00  0.00    +0.148 HD
ENDBRANCH   5  20
BRANCH   7  28
ATOM     28  C   UNL     1      28.649 -23.862 -15.576  0.00  0.00    +0.037 C 
ATOM     29  C   UNL     1      27.881 -23.270 -16.721  0.00  0.00    +0.006 C 
ATOM     30  C   UNL     1      27.818 -22.629 -15.365  0.00  0.00    +0.006 C 
ENDBRANCH   7  28
TORSDOF 2
ENDMDL
MODEL 3
REMARK VINA RESULT:     -11.2      1.766      5.364
REMARK  Name = 42627755
REMARK  2 active torsions:
REMARK  status: ('A' for Active; 'I' for Inactive)
REMARK    1  A    between atoms: N_5  and  C_20
REMARK    2  A    between atoms: C_7  and  C_28
REMARK                            x       y       z     vdW  Elec       q    Type
REMARK                         _______ _______ _______ _____ _____    ______ ____
ROOT
ATOM      1  N   UNL     1      33.746 -22.453 -18.384  0.00  0.00    -0.239 N 
ATOM      2  N   UNL     1      33.913 -22.892 -17.125  0.00  0.00    -0.166 NA
ATOM      3  N   UNL     1      35.902 -22.976 -15.712  0.00  0.00    -0.271 N 
ATOM      4  N   UNL     1      34.192 -23.885 -14.327  0.00  0.00    -0.322 NA
ATOM      5  N   UNL     1      32.542 -24.786 -12.930  0.00  0.00    -0.247 N 
ATOM      6  N   UNL     1      34.721 -24.610 -12.091  0.00  0.00    -0.170 NA
ATOM      7  C   UNL     1      34.889 -21.979 -18.959  0.00  0.00    +0.045 C 
ATOM      8  C   UNL     1      35.871 -22.116 -18.008  0.00  0.00    +0.048 C 
ATOM      9  C   UNL     1      35.214 -22.684 -16.901  0.00  0.00    +0.152 C 
ATOM     10  C   UNL     1      35.487 -23.536 -14.480  0.00  0.00    +0.199 C 
ATOM     11  C   UNL     1      36.443 -23.691 -13.498  0.00  0.00    +0.070 C 
ATOM     12  C   UNL     1      33.883 -24.409 -13.125  0.00  0.00    +0.150 C 
ATOM     13  C   UNL     1      36.000 -24.239 -12.312  0.00  0.00    +0.116 C 
ATOM     14  H   UNL     1      32.878 -22.472 -18.850  0.00  0.00    +0.174 HD
ATOM     15  H   UNL     1      36.859 -22.748 -15.742  0.00  0.00    +0.156 HD
ATOM     16  H   UNL     1      32.363 -25.162 -12.038  0.00  0.00    +0.165 HD
ENDROOT
BRANCH   5  20
ATOM     17  N   UNL     1      29.619 -22.741 -16.350  0.00  0.00    -0.315 N 
ATOM     18  N   UNL     1      28.122 -24.382 -16.283  0.00  0.00    -0.315 N 
ATOM     19  C   UNL     1      30.092 -23.630 -15.420  0.00  0.00    +0.060 C 
ATOM     20  C   UNL     1      31.402 -24.727 -13.764  0.00  0.00    +0.059 C 
ATOM     21  C   UNL     1      29.140 -24.645 -15.396  0.00  0.00    +0.059 C 
ATOM     22  C   UNL     1      31.235 -23.633 -14.620  0.00  0.00    +0.031 C 
ATOM     23  C   UNL     1      30.465 -25.761 -13.718  0.00  0.00    +0.017 C 
ATOM     24  C   UNL     1      29.324 -25.737 -14.530  0.00  0.00    +0.017 C 
ATOM     25  C   UNL     1      28.440 -23.234 -16.837  0.00  0.00    +0.182 C 
ATOM     26  H   UNL     1      30.050 -21.898 -16.619  0.00  0.00    +0.148 HD
ATOM     27  H   UNL     1      27.327 -24.934 -16.464  0.00  0.00    +0.148 HD
ENDBRANCH   5  20
BRANCH   7  28
ATOM     28  C   UNL     1      35.035 -21.415 -20.366  0.00  0.00    +0.037 C 
ATOM     29  C   UNL     1      35.753 -20.111 -20.549  0.00  0.00    +0.006 C 
ATOM     30  C   UNL     1      34.265 -20.179 -20.730  0.00  0.00    +0.006 C 
ENDBRANCH   7  28
TORSDOF 2
ENDMDL
MODEL 4
REMARK VINA RESULT:     -11.1      1.457      6.383
REMARK  Name = 42627755
REMARK  2 active torsions:
REMARK  status: ('A' for Active; 'I' for Inactive)
REMARK    1  A    between atoms: N_5  and  C_20
REMARK    2  A    between atoms: C_7  and  C_28
REMARK                            x       y       z     vdW  Elec       q    Type
REMARK                         _______ _______ _______ _____ _____    ______ ____
ROOT
ATOM      1  N   UNL     1      37.317 -24.254 -15.113  0.00  0.00    -0.239 N 
ATOM      2  N   UNL     1      35.983 -24.162 -15.241  0.00  0.00    -0.166 NA
ATOM      3  N   UNL     1      34.179 -25.030 -13.843  0.00  0.00    -0.271 N 
ATOM      4  N   UNL     1      33.033 -23.906 -15.602  0.00  0.00    -0.322 NA
ATOM      5  N   UNL     1      31.865 -22.813 -17.312  0.00  0.00    -0.247 N 
ATOM      6  N   UNL     1      30.624 -23.866 -15.629  0.00  0.00    -0.170 NA
ATOM      7  C   UNL     1      37.718 -24.955 -14.013  0.00  0.00    +0.045 C 
ATOM      8  C   UNL     1      36.565 -25.347 -13.378  0.00  0.00    +0.048 C 
ATOM      9  C   UNL     1      35.528 -24.832 -14.178  0.00  0.00    +0.152 C 
ATOM     10  C   UNL     1      32.971 -24.627 -14.463  0.00  0.00    +0.199 C 
ATOM     11  C   UNL     1      31.790 -25.000 -13.856  0.00  0.00    +0.070 C 
ATOM     12  C   UNL     1      31.839 -23.564 -16.124  0.00  0.00    +0.150 C 
ATOM     13  C   UNL     1      30.636 -24.589 -14.490  0.00  0.00    +0.116 C 
ATOM     14  H   UNL     1      37.948 -23.853 -15.754  0.00  0.00    +0.174 HD
ATOM     15  H   UNL     1      34.047 -25.550 -13.018  0.00  0.00    +0.156 HD
ATOM     16  H   UNL     1      30.971 -22.585 -17.657  0.00  0.00    +0.165 HD
ENDROOT
BRANCH   5  20
ATOM     17  N   UNL     1      33.833 -20.024 -20.886  0.00  0.00    -0.315 N 
ATOM     18  N   UNL     1      35.903 -20.756 -20.540  0.00  0.00    -0.315 N 
ATOM     19  C   UNL     1      33.735 -20.923 -19.857  0.00  0.00    +0.060 C 
ATOM     20  C   UNL     1      32.925 -22.318 -18.108  0.00  0.00    +0.059 C 
ATOM     21  C   UNL     1      35.040 -21.367 -19.659  0.00  0.00    +0.059 C 
ATOM     22  C   UNL     1      32.651 -21.374 -19.103  0.00  0.00    +0.031 C 
ATOM     23  C   UNL     1      34.222 -22.782 -17.886  0.00  0.00    +0.017 C 
ATOM     24  C   UNL     1      35.297 -22.315 -18.654  0.00  0.00    +0.017 C 
ATOM     25  C   UNL     1      35.147 -19.959 -21.261  0.00  0.00    +0.182 C 
ATOM     26  H   UNL     1      33.091 -19.516 -21.285  0.00  0.00    +0.148 HD
ATOM     27  H   UNL     1      36.876 -20.888 -20.615  0.00  0.00    +0.148 HD
ENDBRANCH   5  20
BRANCH   7  28
ATOM     28  C   UNL     1      39.152 -25.239 -13.587  0.00  0.00    +0.037 C 
ATOM     29  C   UNL     1      40.208 -25.361 -14.645  0.00  0.00    +0.006 C 
ATOM     30  C   UNL     1      39.745 -26.581 -13.903  0.00  0.00    +0.006 C 
ENDBRANCH   7  28
TORSDOF 2
ENDMDL
MODEL 5
REMARK VINA RESULT:     -11.0      1.609      5.193
REMARK  Name = 42627755
REMARK  2 active torsions:
REMARK  status: ('A' for Active; 'I' for Inactive)
REMARK    1  A    between atoms: N_5  and  C_20
REMARK    2  A    between atoms: C_7  and  C_28
REMARK                            x       y       z     vdW  Elec       q    Type
REMARK                         _______ _______ _______ _____ _____    ______ ____
ROOT
ATOM      1  N   UNL     1      34.426 -21.964 -18.643  0.00  0.00    -0.239 N 
ATOM      2  N   UNL     1      34.822 -22.529 -17.491  0.00  0.00    -0.166 NA
ATOM      3  N   UNL     1      37.049 -22.813 -16.533  0.00  0.00    -0.271 N 
ATOM      4  N   UNL     1      35.612 -23.802 -14.912  0.00  0.00    -0.322 NA
ATOM      5  N   UNL     1      34.236 -24.785 -13.292  0.00  0.00    -0.247 N 
ATOM      6  N   UNL     1      36.546 -24.760 -12.908  0.00  0.00    -0.170 NA
ATOM      7  C   UNL     1      35.450 -21.471 -19.397  0.00  0.00    +0.045 C 
ATOM      8  C   UNL     1      36.597 -21.731 -18.685  0.00  0.00    +0.048 C 
ATOM      9  C   UNL     1      36.150 -22.385 -17.522  0.00  0.00    +0.152 C 
ATOM     10  C   UNL     1      36.864 -23.479 -15.297  0.00  0.00    +0.199 C 
ATOM     11  C   UNL     1      37.990 -23.759 -14.551  0.00  0.00    +0.070 C 
ATOM     12  C   UNL     1      35.527 -24.432 -13.724  0.00  0.00    +0.150 C 
ATOM     13  C   UNL     1      37.770 -24.408 -13.354  0.00  0.00    +0.116 C 
ATOM     14  H   UNL     1      33.482 -21.910 -18.920  0.00  0.00    +0.174 HD
ATOM     15  H   UNL     1      37.990 -22.613 -16.739  0.00  0.00    +0.156 HD
ATOM     16  H   UNL     1      34.222 -25.242 -12.420  0.00  0.00    +0.165 HD
ENDROOT
BRANCH   5  20
ATOM     17  N   UNL     1      29.466 -25.885 -13.969  0.00  0.00    -0.315 N 
ATOM     18  N   UNL     1      29.131 -24.252 -15.439  0.00  0.00    -0.315 N 
ATOM     19  C   UNL     1      30.675 -25.252 -14.093  0.00  0.00    +0.060 C 
ATOM     20  C   UNL     1      32.955 -24.610 -13.864  0.00  0.00    +0.059 C 
ATOM     21  C   UNL     1      30.440 -24.236 -15.015  0.00  0.00    +0.059 C 
ATOM     22  C   UNL     1      31.916 -25.472 -13.495  0.00  0.00    +0.031 C 
ATOM     23  C   UNL     1      32.751 -23.583 -14.787  0.00  0.00    +0.017 C 
ATOM     24  C   UNL     1      31.495 -23.380 -15.374  0.00  0.00    +0.017 C 
ATOM     25  C   UNL     1      28.576 -25.253 -14.793  0.00  0.00    +0.182 C 
ATOM     26  H   UNL     1      29.272 -26.658 -13.391  0.00  0.00    +0.148 HD
ATOM     27  H   UNL     1      28.703 -23.646 -16.085  0.00  0.00    +0.148 HD
ENDBRANCH   5  20
BRANCH   7  28
ATOM     28  C   UNL     1      35.337 -20.776 -20.746  0.00  0.00    +0.037 C 
ATOM     29  C   UNL     1      35.971 -19.427 -20.919  0.00  0.00    +0.006 C 
ATOM     30  C   UNL     1      34.477 -19.550 -20.856  0.00  0.00    +0.006 C 
ENDBRANCH   7  28
TORSDOF 2
ENDMDL
MODEL 6
REMARK VINA RESULT:     -10.1      1.890      6.362
REMARK  Name = 42627755
REMARK  2 active torsions:
REMARK  status: ('A' for Active; 'I' for Inactive)
REMARK    1  A    between atoms: N_5  and  C_20
REMARK    2  A    between atoms: C_7  and  C_28
REMARK                            x       y       z     vdW  Elec       q    Type
REMARK                         _______ _______ _______ _____ _____    ______ ____
ROOT
ATOM      1  N   UNL     1      30.742 -23.575 -15.842  0.00  0.00    -0.239 N 
ATOM      2  N   UNL     1      31.969 -23.679 -15.305  0.00  0.00    -0.166 NA
ATOM      3  N   UNL     1      32.706 -24.587 -13.162  0.00  0.00    -0.271 N 
ATOM      4  N   UNL     1      34.730 -23.871 -14.192  0.00  0.00    -0.322 NA
ATOM      5  N   UNL     1      36.744 -23.181 -15.166  0.00  0.00    -0.247 N 
ATOM      6  N   UNL     1      36.827 -24.159 -13.040  0.00  0.00    -0.170 NA
ATOM      7  C   UNL     1      29.749 -24.062 -15.044  0.00  0.00    +0.045 C 
ATOM      8  C   UNL     1      30.371 -24.516 -13.906  0.00  0.00    +0.048 C 
ATOM      9  C   UNL     1      31.736 -24.254 -14.122  0.00  0.00    +0.152 C 
ATOM     10  C   UNL     1      34.113 -24.435 -13.132  0.00  0.00    +0.199 C 
ATOM     11  C   UNL     1      34.776 -24.880 -12.007  0.00  0.00    +0.070 C 
ATOM     12  C   UNL     1      36.068 -23.766 -14.080  0.00  0.00    +0.150 C 
ATOM     13  C   UNL     1      36.146 -24.714 -12.015  0.00  0.00    +0.116 C 
ATOM     14  H   UNL     1      30.575 -23.184 -16.730  0.00  0.00    +0.174 HD
ATOM     15  H   UNL     1      32.334 -25.007 -12.354  0.00  0.00    +0.156 HD
ATOM     16  H   UNL     1      37.719 -23.125 -15.041  0.00  0.00    +0.165 HD
ENDROOT
BRANCH   5  20
ATOM     17  N   UNL     1      33.422 -22.421 -18.744  0.00  0.00    -0.315 N 
ATOM     18  N   UNL     1      34.808 -21.217 -19.998  0.00  0.00    -0.315 N 
ATOM     19  C   UNL     1      34.600 -22.375 -18.046  0.00  0.00    +0.060 C 
ATOM     20  C   UNL     1      36.297 -22.660 -16.402  0.00  0.00    +0.059 C 
ATOM     21  C   UNL     1      35.449 -21.618 -18.848  0.00  0.00    +0.059 C 
ATOM     22  C   UNL     1      34.985 -22.914 -16.818  0.00  0.00    +0.031 C 
ATOM     23  C   UNL     1      37.172 -21.905 -17.185  0.00  0.00    +0.017 C 
ATOM     24  C   UNL     1      36.764 -21.373 -18.415  0.00  0.00    +0.017 C 
ATOM     25  C   UNL     1      33.596 -21.716 -19.903  0.00  0.00    +0.182 C 
ATOM     26  H   UNL     1      32.598 -22.881 -18.463  0.00  0.00    +0.148 HD
ATOM     27  H   UNL     1      35.177 -20.674 -20.731  0.00  0.00    +0.148 HD
ENDBRANCH   5  20
BRANCH   7  28
ATOM     28  C   UNL     1      28.259 -24.090 -15.358  0.00  0.00    +0.037 C 
ATOM     29  C   UNL     1      27.795 -23.595 -16.696  0.00  0.00    +0.006 C 
ATOM     30  C   UNL     1      27.519 -22.788 -15.460  0.00  0.00    +0.006 C 
ENDBRANCH   7  28
TORSDOF 2
ENDMDL
MODEL 7
REMARK VINA RESULT:      -9.9      1.727      6.373
REMARK  Name = 42627755
REMARK  2 active torsions:
REMARK  status: ('A' for Active; 'I' for Inactive)
REMARK    1  A    between atoms: N_5  and  C_20
REMARK    2  A    between atoms: C_7  and  C_28
REMARK                            x       y       z     vdW  Elec       q    Type
REMARK                         _______ _______ _______ _____ _____    ______ ____
ROOT
ATOM      1  N   UNL     1      36.335 -24.275 -14.058  0.00  0.00    -0.239 N 
ATOM      2  N   UNL     1      35.678 -23.741 -15.102  0.00  0.00    -0.166 NA
ATOM      3  N   UNL     1      36.505 -22.617 -17.105  0.00  0.00    -0.271 N 
ATOM      4  N   UNL     1      34.140 -22.582 -17.379  0.00  0.00    -0.322 NA
ATOM      5  N   UNL     1      31.819 -22.524 -17.690  0.00  0.00    -0.247 N 
ATOM      6  N   UNL     1      33.176 -21.567 -19.341  0.00  0.00    -0.170 NA
ATOM      7  C   UNL     1      37.691 -24.162 -14.145  0.00  0.00    +0.045 C 
ATOM      8  C   UNL     1      37.938 -23.510 -15.328  0.00  0.00    +0.048 C 
ATOM      9  C   UNL     1      36.663 -23.274 -15.874  0.00  0.00    +0.152 C 
ATOM     10  C   UNL     1      35.360 -22.263 -17.860  0.00  0.00    +0.199 C 
ATOM     11  C   UNL     1      35.565 -21.607 -19.055  0.00  0.00    +0.070 C 
ATOM     12  C   UNL     1      33.107 -22.209 -18.160  0.00  0.00    +0.150 C 
ATOM     13  C   UNL     1      34.426 -21.279 -19.761  0.00  0.00    +0.116 C 
ATOM     14  H   UNL     1      35.879 -24.708 -13.300  0.00  0.00    +0.174 HD
ATOM     15  H   UNL     1      37.354 -22.351 -17.524  0.00  0.00    +0.156 HD
ATOM     16  H   UNL     1      31.097 -22.234 -18.291  0.00  0.00    +0.165 HD
ENDROOT
BRANCH   5  20
ATOM     17  N   UNL     1      32.361 -25.235 -13.593  0.00  0.00    -0.315 N 
ATOM     18  N   UNL     1      30.204 -25.157 -13.063  0.00  0.00    -0.315 N 
ATOM     19  C   UNL     1      31.768 -24.492 -14.581  0.00  0.00    +0.060 C 
ATOM     20  C   UNL     1      31.361 -23.178 -16.522  0.00  0.00    +0.059 C 
ATOM     21  C   UNL     1      30.422 -24.458 -14.228  0.00  0.00    +0.059 C 
ATOM     22  C   UNL     1      32.277 -23.866 -15.719  0.00  0.00    +0.031 C 
ATOM     23  C   UNL     1      30.006 -23.126 -16.195  0.00  0.00    +0.017 C 
ATOM     24  C   UNL     1      29.516 -23.762 -15.046  0.00  0.00    +0.017 C 
ATOM     25  C   UNL     1      31.386 -25.610 -12.710  0.00  0.00    +0.182 C 
ATOM     26  H   UNL     1      33.317 -25.459 -13.530  0.00  0.00    +0.148 HD
ATOM     27  H   UNL     1      29.348 -25.289 -12.595  0.00  0.00    +0.148 HD
ENDBRANCH   5  20
BRANCH   7  28
ATOM     28  C   UNL     1      38.713 -24.661 -13.132  0.00  0.00    +0.037 C 
ATOM     29  C   UNL     1      39.776 -25.616 -13.590  0.00  0.00    +0.006 C 
ATOM     30  C   UNL     1      38.663 -26.099 -12.706  0.00  0.00    +0.006 C 
ENDBRANCH   7  28
TORSDOF 2
ENDMDL
MODEL 8
REMARK VINA RESULT:      -9.2     12.342     16.362
REMARK  Name = 42627755
REMARK  2 active torsions:
REMARK  status: ('A' for Active; 'I' for Inactive)
REMARK    1  A    between atoms: N_5  and  C_20
REMARK    2  A    between atoms: C_7  and  C_28
REMARK                            x       y       z     vdW  Elec       q    Type
REMARK                         _______ _______ _______ _____ _____    ______ ____
ROOT
ATOM      1  N   UNL     1      33.430 -12.665 -24.319  0.00  0.00    -0.239 N 
ATOM      2  N   UNL     1      33.073 -11.877 -23.292  0.00  0.00    -0.166 NA
ATOM      3  N   UNL     1      32.383 -12.431 -21.017  0.00  0.00    -0.271 N 
ATOM      4  N   UNL     1      32.298 -10.052 -21.064  0.00  0.00    -0.322 NA
ATOM      5  N   UNL     1      32.199  -7.712 -21.066  0.00  0.00    -0.247 N 
ATOM      6  N   UNL     1      31.628  -8.837 -19.093  0.00  0.00    -0.170 NA
ATOM      7  C   UNL     1      33.394 -13.998 -24.030  0.00  0.00    +0.045 C 
ATOM      8  C   UNL     1      32.987 -14.086 -22.721  0.00  0.00    +0.048 C 
ATOM      9  C   UNL     1      32.803 -12.751 -22.318  0.00  0.00    +0.152 C 
ATOM     10  C   UNL     1      32.127 -11.196 -20.371  0.00  0.00    +0.199 C 
ATOM     11  C   UNL     1      31.717 -11.241 -19.055  0.00  0.00    +0.070 C 
ATOM     12  C   UNL     1      32.034  -8.925 -20.374  0.00  0.00    +0.150 C 
ATOM     13  C   UNL     1      31.478 -10.019 -18.460  0.00  0.00    +0.116 C 
ATOM     14  H   UNL     1      33.693 -12.314 -25.201  0.00  0.00    +0.174 HD
ATOM     15  H   UNL     1      32.236 -13.216 -20.443  0.00  0.00    +0.156 HD
ATOM     16  H   UNL     1      31.997  -6.916 -20.523  0.00  0.00    +0.165 HD
ENDROOT
BRANCH   5  20
ATOM     17  N   UNL     1      35.381  -6.163 -24.516  0.00  0.00    -0.315 N 
ATOM     18  N   UNL     1      33.961  -6.477 -26.197  0.00  0.00    -0.315 N 
ATOM     19  C   UNL     1      34.234  -6.643 -23.940  0.00  0.00    +0.060 C 
ATOM     20  C   UNL     1      32.602  -7.413 -22.388  0.00  0.00    +0.059 C 
ATOM     21  C   UNL     1      33.363  -6.832 -25.009  0.00  0.00    +0.059 C 
ATOM     22  C   UNL     1      33.892  -6.921 -22.616  0.00  0.00    +0.031 C 
ATOM     23  C   UNL     1      31.706  -7.612 -23.439  0.00  0.00    +0.017 C 
ATOM     24  C   UNL     1      32.070  -7.326 -24.762  0.00  0.00    +0.017 C 
ATOM     25  C   UNL     1      35.169  -6.081 -25.864  0.00  0.00    +0.182 C 
ATOM     26  H   UNL     1      36.210  -5.920 -24.043  0.00  0.00    +0.148 HD
ATOM     27  H   UNL     1      33.569  -6.513 -27.099  0.00  0.00    +0.148 HD
ENDBRANCH   5  20
BRANCH   7  28
ATOM     28  C   UNL     1      33.737 -15.144 -24.971  0.00  0.00    +0.037 C 
ATOM     29  C   UNL     1      33.430 -16.548 -24.540  0.00  0.00    +0.006 C 
ATOM     30  C   UNL     1      34.853 -16.075 -24.596  0.00  0.00    +0.006 C 
ENDBRANCH   7  28
TORSDOF 2
ENDMDL
MODEL 9
REMARK VINA RESULT:      -9.1     11.226     14.925
REMARK  Name = 42627755
REMARK  2 active torsions:
REMARK  status: ('A' for Active; 'I' for Inactive)
REMARK    1  A    between atoms: N_5  and  C_20
REMARK    2  A    between atoms: C_7  and  C_28
REMARK                            x       y       z     vdW  Elec       q    Type
REMARK                         _______ _______ _______ _____ _____    ______ ____
ROOT
ATOM      1  N   UNL     1      34.642  -8.728 -24.162  0.00  0.00    -0.239 N 
ATOM      2  N   UNL     1      33.960  -9.115 -23.072  0.00  0.00    -0.166 NA
ATOM      3  N   UNL     1      32.944  -7.812 -21.275  0.00  0.00    -0.271 N 
ATOM      4  N   UNL     1      32.455 -10.065 -20.678  0.00  0.00    -0.322 NA
ATOM      5  N   UNL     1      31.952 -12.265 -20.053  0.00  0.00    -0.247 N 
ATOM      6  N   UNL     1      31.210 -10.529 -18.668  0.00  0.00    -0.170 NA
ATOM      7  C   UNL     1      34.786  -7.376 -24.271  0.00  0.00    +0.045 C 
ATOM      8  C   UNL     1      34.152  -6.843 -23.175  0.00  0.00    +0.048 C 
ATOM      9  C   UNL     1      33.663  -7.959 -22.472  0.00  0.00    +0.152 C 
ATOM     10  C   UNL     1      32.356  -8.750 -20.391  0.00  0.00    +0.199 C 
ATOM     11  C   UNL     1      31.709  -8.256 -19.278  0.00  0.00    +0.070 C 
ATOM     12  C   UNL     1      31.868 -10.887 -19.786  0.00  0.00    +0.150 C 
ATOM     13  C   UNL     1      31.150  -9.200 -18.443  0.00  0.00    +0.116 C 
ATOM     14  H   UNL     1      35.006  -9.361 -24.823  0.00  0.00    +0.174 HD
ATOM     15  H   UNL     1      32.827  -6.876 -20.995  0.00  0.00    +0.156 HD
ATOM     16  H   UNL     1      31.509 -12.827 -19.377  0.00  0.00    +0.165 HD
ENDROOT
BRANCH   5  20
ATOM     17  N   UNL     1      34.853 -15.792 -21.941  0.00  0.00    -0.315 N 
ATOM     18  N   UNL     1      34.389 -15.270 -24.051  0.00  0.00    -0.315 N 
ATOM     19  C   UNL     1      33.979 -14.739 -21.873  0.00  0.00    +0.060 C 
ATOM     20  C   UNL     1      32.547 -13.001 -21.104  0.00  0.00    +0.059 C 
ATOM     21  C   UNL     1      33.704 -14.431 -23.202  0.00  0.00    +0.059 C 
ATOM     22  C   UNL     1      33.422 -14.048 -20.796  0.00  0.00    +0.031 C 
ATOM     23  C   UNL     1      32.251 -12.669 -22.427  0.00  0.00    +0.017 C 
ATOM     24  C   UNL     1      32.822 -13.375 -23.493  0.00  0.00    +0.017 C 
ATOM     25  C   UNL     1      35.067 -16.072 -23.263  0.00  0.00    +0.182 C 
ATOM     26  H   UNL     1      35.256 -16.263 -21.176  0.00  0.00    +0.148 HD
ATOM     27  H   UNL     1      34.373 -15.270 -25.036  0.00  0.00    +0.148 HD
ENDBRANCH   5  20
BRANCH   7  28
ATOM     28  C   UNL     1      35.503  -6.622 -25.382  0.00  0.00    +0.037 C 
ATOM     29  C   UNL     1      34.968  -5.288 -25.811  0.00  0.00    +0.006 C 
ATOM     30  C   UNL     1      34.821  -6.479 -26.712  0.00  0.00    +0.006 C 
ENDBRANCH   7  28
TORSDOF 2
ENDMDL
