MODEL 1
REMARK VINA RESULT:     -12.0      0.000      0.000
REMARK  Name = 42642648
REMARK  5 active torsions:
REMARK  status: ('A' for Active; 'I' for Inactive)
REMARK    1  A    between atoms: N_1  and  C_22
REMARK    2  A    between atoms: C_4  and  N_15
REMARK    3  A    between atoms: C_25  and  O_28
REMARK    4  A    between atoms: O_28  and  C_29
REMARK    5  A    between atoms: C_29  and  C_32
REMARK                            x       y       z     vdW  Elec       q    Type
REMARK                         _______ _______ _______ _____ _____    ______ ____
ROOT
ATOM      1  N   UNL     1      33.659 -23.056 -17.821  0.00  0.00    -0.301 N 
ATOM      2  N   UNL     1      30.408 -23.360 -15.277  0.00  0.00    -0.248 NA
ATOM      3  N   UNL     1      31.404 -22.594 -17.333  0.00  0.00    -0.233 NA
ATOM      4  C   UNL     1      34.010 -25.115 -14.129  0.00  0.00    +0.048 C 
ATOM      5  C   UNL     1      32.709 -23.853 -15.736  0.00  0.00    +0.117 C 
ATOM      6  C   UNL     1      33.923 -24.447 -15.345  0.00  0.00    +0.001 C 
ATOM      7  C   UNL     1      31.573 -23.924 -14.913  0.00  0.00    +0.067 C 
ATOM      8  C   UNL     1      32.556 -23.169 -16.938  0.00  0.00    +0.115 C 
ATOM      9  C   UNL     1      32.892 -25.192 -13.306  0.00  0.00    +0.016 C 
ATOM     10  C   UNL     1      31.690 -24.599 -13.701  0.00  0.00    +0.016 C 
ATOM     11  C   UNL     1      30.386 -22.726 -16.466  0.00  0.00    +0.251 C 
ATOM     12  H   UNL     1      34.287 -23.812 -17.770  0.00  0.00    +0.153 HD
ENDROOT
BRANCH   4  15
ATOM     13  O   UNL     1      37.231 -26.033 -12.693  0.00  0.00    -0.448 OA
ATOM     14  N   UNL     1      36.115 -24.101 -12.204  0.00  0.00    -0.222 NA
ATOM     15  N   UNL     1      35.224 -25.712 -13.732  0.00  0.00    -0.269 N 
ATOM     16  C   UNL     1      37.321 -24.150 -11.362  0.00  0.00    +0.151 C 
ATOM     17  C   UNL     1      38.170 -25.241 -11.979  0.00  0.00    +0.233 C 
ATOM     18  C   UNL     1      36.147 -25.221 -12.860  0.00  0.00    +0.284 C 
ATOM     19  C   UNL     1      38.006 -22.797 -11.343  0.00  0.00    +0.030 C 
ATOM     20  H   UNL     1      35.429 -26.588 -14.134  0.00  0.00    +0.157 HD
ENDBRANCH   4  15
BRANCH   1  22
ATOM     21 CL   UNL     1      37.401 -20.309 -19.969  0.00  0.00    -0.079 Cl
ATOM     22  C   UNL     1      34.029 -22.073 -18.753  0.00  0.00    +0.050 C 
ATOM     23  C   UNL     1      35.369 -21.713 -18.891  0.00  0.00    +0.029 C 
ATOM     24  C   UNL     1      33.056 -21.458 -19.539  0.00  0.00    +0.018 C 
ATOM     25  C   UNL     1      34.763 -20.121 -20.605  0.00  0.00    +0.150 C 
ATOM     26  C   UNL     1      35.737 -20.737 -19.818  0.00  0.00    +0.093 C 
ATOM     27  C   UNL     1      33.423 -20.482 -20.465  0.00  0.00    +0.039 C 
BRANCH  25  28
ATOM     28  O   UNL     1      35.093 -19.164 -21.518  0.00  0.00    -0.468 OA
BRANCH  28  29
ATOM     29  C   UNL     1      34.648 -19.368 -22.858  0.00  0.00    +0.257 C 
BRANCH  29  32
ATOM     30  S   UNL     1      35.035 -16.623 -22.725  0.00  0.00    -0.067 S 
ATOM     31  N   UNL     1      33.921 -17.858 -24.704  0.00  0.00    -0.237 NA
ATOM     32  C   UNL     1      34.477 -18.035 -23.526  0.00  0.00    +0.132 C 
ATOM     33  C   UNL     1      34.495 -15.686 -24.055  0.00  0.00    +0.057 C 
ATOM     34  C   UNL     1      33.931 -16.510 -25.006  0.00  0.00    +0.106 C 
ENDBRANCH  29  32
ENDBRANCH  28  29
ENDBRANCH  25  28
ENDBRANCH   1  22
TORSDOF 5
ENDMDL
MODEL 2
REMARK VINA RESULT:     -11.8      1.315      1.461
REMARK  Name = 42642648
REMARK  5 active torsions:
REMARK  status: ('A' for Active; 'I' for Inactive)
REMARK    1  A    between atoms: N_1  and  C_22
REMARK    2  A    between atoms: C_4  and  N_15
REMARK    3  A    between atoms: C_25  and  O_28
REMARK    4  A    between atoms: O_28  and  C_29
REMARK    5  A    between atoms: C_29  and  C_32
REMARK                            x       y       z     vdW  Elec       q    Type
REMARK                         _______ _______ _______ _____ _____    ______ ____
ROOT
ATOM      1  N   UNL     1      33.099 -23.184 -17.332  0.00  0.00    -0.301 N 
ATOM      2  N   UNL     1      29.614 -23.244 -15.099  0.00  0.00    -0.248 NA
ATOM      3  N   UNL     1      30.798 -22.731 -17.134  0.00  0.00    -0.233 NA
ATOM      4  C   UNL     1      33.113 -24.716 -13.377  0.00  0.00    +0.048 C 
ATOM      5  C   UNL     1      31.958 -23.722 -15.260  0.00  0.00    +0.117 C 
ATOM      6  C   UNL     1      33.137 -24.220 -14.676  0.00  0.00    +0.001 C 
ATOM      7  C   UNL     1      30.746 -23.717 -14.550  0.00  0.00    +0.067 C 
ATOM      8  C   UNL     1      31.914 -23.212 -16.554  0.00  0.00    +0.115 C 
ATOM      9  C   UNL     1      31.919 -24.715 -12.664  0.00  0.00    +0.016 C 
ATOM     10  C   UNL     1      30.753 -24.219 -13.251  0.00  0.00    +0.016 C 
ATOM     11  C   UNL     1      29.701 -22.777 -16.361  0.00  0.00    +0.251 C 
ATOM     12  H   UNL     1      33.731 -23.907 -17.117  0.00  0.00    +0.153 HD
ENDROOT
BRANCH   4  15
ATOM     13  O   UNL     1      36.504 -25.532 -12.319  0.00  0.00    -0.448 OA
ATOM     14  N   UNL     1      35.999 -23.968 -13.905  0.00  0.00    -0.222 NA
ATOM     15  N   UNL     1      34.291 -25.215 -12.786  0.00  0.00    -0.269 N 
ATOM     16  C   UNL     1      37.455 -23.941 -13.693  0.00  0.00    +0.151 C 
ATOM     17  C   UNL     1      37.749 -25.210 -12.921  0.00  0.00    +0.233 C 
ATOM     18  C   UNL     1      35.576 -24.851 -13.052  0.00  0.00    +0.284 C 
ATOM     19  C   UNL     1      38.180 -23.868 -15.023  0.00  0.00    +0.030 C 
ATOM     20  H   UNL     1      34.170 -25.910 -12.099  0.00  0.00    +0.157 HD
ENDBRANCH   4  15
BRANCH   1  22
ATOM     21 CL   UNL     1      37.043 -21.192 -19.908  0.00  0.00    -0.079 Cl
ATOM     22  C   UNL     1      33.543 -22.324 -18.350  0.00  0.00    +0.050 C 
ATOM     23  C   UNL     1      34.908 -22.192 -18.604  0.00  0.00    +0.029 C 
ATOM     24  C   UNL     1      32.619 -21.604 -19.106  0.00  0.00    +0.018 C 
ATOM     25  C   UNL     1      34.424 -20.617 -20.372  0.00  0.00    +0.150 C 
ATOM     26  C   UNL     1      35.349 -21.339 -19.615  0.00  0.00    +0.093 C 
ATOM     27  C   UNL     1      33.060 -20.750 -20.117  0.00  0.00    +0.039 C 
BRANCH  25  28
ATOM     28  O   UNL     1      34.827 -19.776 -21.366  0.00  0.00    -0.468 OA
BRANCH  28  29
ATOM     29  C   UNL     1      35.192 -18.451 -20.983  0.00  0.00    +0.257 C 
BRANCH  29  32
ATOM     30  S   UNL     1      34.664 -18.209 -23.697  0.00  0.00    -0.067 S 
ATOM     31  N   UNL     1      35.095 -16.224 -22.099  0.00  0.00    -0.237 NA
ATOM     32  C   UNL     1      35.009 -17.534 -22.157  0.00  0.00    +0.132 C 
ATOM     33  C   UNL     1      34.622 -16.626 -24.354  0.00  0.00    +0.057 C 
ATOM     34  C   UNL     1      34.873 -15.704 -23.359  0.00  0.00    +0.106 C 
ENDBRANCH  29  32
ENDBRANCH  28  29
ENDBRANCH  25  28
ENDBRANCH   1  22
TORSDOF 5
ENDMDL
MODEL 3
REMARK VINA RESULT:     -11.3      1.391      1.739
REMARK  Name = 42642648
REMARK  5 active torsions:
REMARK  status: ('A' for Active; 'I' for Inactive)
REMARK    1  A    between atoms: N_1  and  C_22
REMARK    2  A    between atoms: C_4  and  N_15
REMARK    3  A    between atoms: C_25  and  O_28
REMARK    4  A    between atoms: O_28  and  C_29
REMARK    5  A    between atoms: C_29  and  C_32
REMARK                            x       y       z     vdW  Elec       q    Type
REMARK                         _______ _______ _______ _____ _____    ______ ____
ROOT
ATOM      1  N   UNL     1      33.816 -23.245 -17.328  0.00  0.00    -0.301 N 
ATOM      2  N   UNL     1      30.231 -23.313 -15.260  0.00  0.00    -0.248 NA
ATOM      3  N   UNL     1      31.509 -22.791 -17.235  0.00  0.00    -0.233 NA
ATOM      4  C   UNL     1      33.645 -24.796 -13.384  0.00  0.00    +0.048 C 
ATOM      5  C   UNL     1      32.580 -23.792 -15.314  0.00  0.00    +0.117 C 
ATOM      6  C   UNL     1      33.730 -24.294 -14.678  0.00  0.00    +0.001 C 
ATOM      7  C   UNL     1      31.337 -23.790 -14.661  0.00  0.00    +0.067 C 
ATOM      8  C   UNL     1      32.597 -23.276 -16.606  0.00  0.00    +0.115 C 
ATOM      9  C   UNL     1      32.420 -24.798 -12.727  0.00  0.00    +0.016 C 
ATOM     10  C   UNL     1      31.282 -24.298 -13.366  0.00  0.00    +0.016 C 
ATOM     11  C   UNL     1      30.377 -22.840 -16.514  0.00  0.00    +0.251 C 
ATOM     12  H   UNL     1      34.438 -23.969 -17.088  0.00  0.00    +0.153 HD
ENDROOT
BRANCH   4  15
ATOM     13  O   UNL     1      36.986 -25.700 -12.242  0.00  0.00    -0.448 OA
ATOM     14  N   UNL     1      36.568 -24.292 -13.991  0.00  0.00    -0.222 NA
ATOM     15  N   UNL     1      34.794 -25.300 -12.741  0.00  0.00    -0.269 N 
ATOM     16  C   UNL     1      38.024 -24.333 -13.784  0.00  0.00    +0.151 C 
ATOM     17  C   UNL     1      38.245 -25.524 -12.876  0.00  0.00    +0.233 C 
ATOM     18  C   UNL     1      36.097 -25.048 -13.046  0.00  0.00    +0.284 C 
ATOM     19  C   UNL     1      38.744 -24.452 -15.113  0.00  0.00    +0.030 C 
ATOM     20  H   UNL     1      34.635 -25.906 -11.981  0.00  0.00    +0.157 HD
ENDBRANCH   4  15
BRANCH   1  22
ATOM     21 CL   UNL     1      32.802 -20.141 -21.265  0.00  0.00    -0.079 Cl
ATOM     22  C   UNL     1      34.308 -22.381 -18.319  0.00  0.00    +0.050 C 
ATOM     23  C   UNL     1      33.426 -21.758 -19.201  0.00  0.00    +0.029 C 
ATOM     24  C   UNL     1      35.679 -22.146 -18.422  0.00  0.00    +0.018 C 
ATOM     25  C   UNL     1      35.287 -20.664 -20.288  0.00  0.00    +0.150 C 
ATOM     26  C   UNL     1      33.915 -20.898 -20.186  0.00  0.00    +0.093 C 
ATOM     27  C   UNL     1      36.168 -21.288 -19.406  0.00  0.00    +0.039 C 
BRANCH  25  28
ATOM     28  O   UNL     1      35.793 -19.830 -21.241  0.00  0.00    -0.468 OA
BRANCH  28  29
ATOM     29  C   UNL     1      35.694 -18.429 -20.991  0.00  0.00    +0.257 C 
BRANCH  29  32
ATOM     30  S   UNL     1      34.975 -16.043 -22.214  0.00  0.00    -0.067 S 
ATOM     31  N   UNL     1      34.970 -18.352 -23.375  0.00  0.00    -0.237 NA
ATOM     32  C   UNL     1      35.220 -17.742 -22.239  0.00  0.00    +0.132 C 
ATOM     33  C   UNL     1      34.495 -16.114 -23.858  0.00  0.00    +0.057 C 
ATOM     34  C   UNL     1      34.555 -17.418 -24.303  0.00  0.00    +0.106 C 
ENDBRANCH  29  32
ENDBRANCH  28  29
ENDBRANCH  25  28
ENDBRANCH   1  22
TORSDOF 5
ENDMDL
MODEL 4
REMARK VINA RESULT:     -11.2      5.536      9.721
REMARK  Name = 42642648
REMARK  5 active torsions:
REMARK  status: ('A' for Active; 'I' for Inactive)
REMARK    1  A    between atoms: N_1  and  C_22
REMARK    2  A    between atoms: C_4  and  N_15
REMARK    3  A    between atoms: C_25  and  O_28
REMARK    4  A    between atoms: O_28  and  C_29
REMARK    5  A    between atoms: C_29  and  C_32
REMARK                            x       y       z     vdW  Elec       q    Type
REMARK                         _______ _______ _______ _____ _____    ______ ____
ROOT
ATOM      1  N   UNL     1      34.341 -14.973 -22.039  0.00  0.00    -0.301 N 
ATOM      2  N   UNL     1      33.999 -17.703 -25.132  0.00  0.00    -0.248 NA
ATOM      3  N   UNL     1      33.653 -15.496 -24.228  0.00  0.00    -0.233 NA
ATOM      4  C   UNL     1      35.781 -18.935 -21.570  0.00  0.00    +0.048 C 
ATOM      5  C   UNL     1      34.716 -17.211 -22.897  0.00  0.00    +0.117 C 
ATOM      6  C   UNL     1      35.318 -17.630 -21.697  0.00  0.00    +0.001 C 
ATOM      7  C   UNL     1      34.572 -18.093 -23.980  0.00  0.00    +0.067 C 
ATOM      8  C   UNL     1      34.232 -15.920 -23.088  0.00  0.00    +0.115 C 
ATOM      9  C   UNL     1      35.644 -19.818 -22.635  0.00  0.00    +0.016 C 
ATOM     10  C   UNL     1      35.044 -19.395 -23.824  0.00  0.00    +0.016 C 
ATOM     11  C   UNL     1      33.570 -16.426 -25.193  0.00  0.00    +0.251 C 
ATOM     12  H   UNL     1      35.119 -15.117 -21.455  0.00  0.00    +0.153 HD
ENDROOT
BRANCH   4  15
ATOM     13  O   UNL     1      36.847 -20.601 -18.509  0.00  0.00    -0.448 OA
ATOM     14  N   UNL     1      35.193 -21.377 -19.881  0.00  0.00    -0.222 NA
ATOM     15  N   UNL     1      36.384 -19.361 -20.370  0.00  0.00    -0.269 N 
ATOM     16  C   UNL     1      35.390 -22.366 -18.809  0.00  0.00    +0.151 C 
ATOM     17  C   UNL     1      36.219 -21.640 -17.770  0.00  0.00    +0.233 C 
ATOM     18  C   UNL     1      36.090 -20.471 -19.638  0.00  0.00    +0.284 C 
ATOM     19  C   UNL     1      34.052 -22.845 -18.280  0.00  0.00    +0.030 C 
ATOM     20  H   UNL     1      37.105 -18.788 -20.019  0.00  0.00    +0.157 HD
ENDBRANCH   4  15
BRANCH   1  22
ATOM     21 CL   UNL     1      32.336 -10.454 -23.352  0.00  0.00    -0.079 Cl
ATOM     22  C   UNL     1      33.553 -13.869 -21.674  0.00  0.00    +0.050 C 
ATOM     23  C   UNL     1      33.352 -12.827 -22.578  0.00  0.00    +0.029 C 
ATOM     24  C   UNL     1      32.972 -13.817 -20.408  0.00  0.00    +0.018 C 
ATOM     25  C   UNL     1      31.987 -11.678 -20.947  0.00  0.00    +0.150 C 
ATOM     26  C   UNL     1      32.568 -11.731 -22.215  0.00  0.00    +0.093 C 
ATOM     27  C   UNL     1      32.189 -12.721 -20.044  0.00  0.00    +0.039 C 
BRANCH  25  28
ATOM     28  O   UNL     1      31.218 -10.620 -20.565  0.00  0.00    -0.468 OA
BRANCH  28  29
ATOM     29  C   UNL     1      31.830  -9.648 -19.719  0.00  0.00    +0.257 C 
BRANCH  29  32
ATOM     30  S   UNL     1      33.040  -7.156 -19.893  0.00  0.00    -0.067 S 
ATOM     31  N   UNL     1      31.286  -8.060 -21.562  0.00  0.00    -0.237 NA
ATOM     32  C   UNL     1      31.956  -8.355 -20.470  0.00  0.00    +0.132 C 
ATOM     33  C   UNL     1      32.587  -6.150 -21.204  0.00  0.00    +0.057 C 
ATOM     34  C   UNL     1      31.648  -6.795 -21.981  0.00  0.00    +0.106 C 
ENDBRANCH  29  32
ENDBRANCH  28  29
ENDBRANCH  25  28
ENDBRANCH   1  22
TORSDOF 5
ENDMDL
MODEL 5
REMARK VINA RESULT:     -10.3      2.290      3.202
REMARK  Name = 42642648
REMARK  5 active torsions:
REMARK  status: ('A' for Active; 'I' for Inactive)
REMARK    1  A    between atoms: N_1  and  C_22
REMARK    2  A    between atoms: C_4  and  N_15
REMARK    3  A    between atoms: C_25  and  O_28
REMARK    4  A    between atoms: O_28  and  C_29
REMARK    5  A    between atoms: C_29  and  C_32
REMARK                            x       y       z     vdW  Elec       q    Type
REMARK                         _______ _______ _______ _____ _____    ______ ____
ROOT
ATOM      1  N   UNL     1      35.288 -21.357 -19.785  0.00  0.00    -0.301 N 
ATOM      2  N   UNL     1      32.210 -22.758 -17.398  0.00  0.00    -0.248 NA
ATOM      3  N   UNL     1      32.986 -21.649 -19.391  0.00  0.00    -0.233 NA
ATOM      4  C   UNL     1      36.138 -23.322 -16.123  0.00  0.00    +0.048 C 
ATOM      5  C   UNL     1      34.564 -22.483 -17.762  0.00  0.00    +0.117 C 
ATOM      6  C   UNL     1      35.888 -22.675 -17.329  0.00  0.00    +0.001 C 
ATOM      7  C   UNL     1      33.480 -22.936 -16.993  0.00  0.00    +0.067 C 
ATOM      8  C   UNL     1      34.246 -21.843 -18.956  0.00  0.00    +0.115 C 
ATOM      9  C   UNL     1      35.073 -23.775 -15.353  0.00  0.00    +0.016 C 
ATOM     10  C   UNL     1      33.760 -23.580 -15.790  0.00  0.00    +0.016 C 
ATOM     11  C   UNL     1      32.032 -22.124 -18.574  0.00  0.00    +0.251 C 
ATOM     12  H   UNL     1      36.121 -21.878 -19.721  0.00  0.00    +0.153 HD
ENDROOT
BRANCH   4  15
ATOM     13  O   UNL     1      39.261 -24.368 -14.561  0.00  0.00    -0.448 OA
ATOM     14  N   UNL     1      37.235 -25.342 -14.153  0.00  0.00    -0.222 NA
ATOM     15  N   UNL     1      37.463 -23.517 -15.683  0.00  0.00    -0.269 N 
ATOM     16  C   UNL     1      38.256 -26.098 -13.411  0.00  0.00    +0.151 C 
ATOM     17  C   UNL     1      39.481 -25.208 -13.436  0.00  0.00    +0.233 C 
ATOM     18  C   UNL     1      37.918 -24.441 -14.792  0.00  0.00    +0.284 C 
ATOM     19  C   UNL     1      37.769 -26.405 -12.008  0.00  0.00    +0.030 C 
ATOM     20  H   UNL     1      38.141 -22.913 -16.066  0.00  0.00    +0.157 HD
ENDBRANCH   4  15
BRANCH   1  22
ATOM     21 CL   UNL     1      33.711 -19.246 -24.169  0.00  0.00    -0.079 Cl
ATOM     22  C   UNL     1      35.361 -20.278 -20.680  0.00  0.00    +0.050 C 
ATOM     23  C   UNL     1      34.596 -20.285 -21.845  0.00  0.00    +0.029 C 
ATOM     24  C   UNL     1      36.199 -19.199 -20.402  0.00  0.00    +0.018 C 
ATOM     25  C   UNL     1      35.507 -18.131 -22.456  0.00  0.00    +0.150 C 
ATOM     26  C   UNL     1      34.668 -19.212 -22.733  0.00  0.00    +0.093 C 
ATOM     27  C   UNL     1      36.272 -18.126 -21.290  0.00  0.00    +0.039 C 
BRANCH  25  28
ATOM     28  O   UNL     1      35.598 -17.070 -23.306  0.00  0.00    -0.468 OA
BRANCH  28  29
ATOM     29  C   UNL     1      35.130 -15.812 -22.821  0.00  0.00    +0.257 C 
BRANCH  29  32
ATOM     30  S   UNL     1      33.846 -13.502 -23.670  0.00  0.00    -0.067 S 
ATOM     31  N   UNL     1      34.071 -15.662 -25.073  0.00  0.00    -0.237 NA
ATOM     32  C   UNL     1      34.372 -15.118 -23.915  0.00  0.00    +0.132 C 
ATOM     33  C   UNL     1      33.156 -13.516 -25.239  0.00  0.00    +0.057 C 
ATOM     34  C   UNL     1      33.373 -14.742 -25.831  0.00  0.00    +0.106 C 
ENDBRANCH  29  32
ENDBRANCH  28  29
ENDBRANCH  25  28
ENDBRANCH   1  22
TORSDOF 5
ENDMDL
MODEL 6
REMARK VINA RESULT:      -9.8      5.463      9.902
REMARK  Name = 42642648
REMARK  5 active torsions:
REMARK  status: ('A' for Active; 'I' for Inactive)
REMARK    1  A    between atoms: N_1  and  C_22
REMARK    2  A    between atoms: C_4  and  N_15
REMARK    3  A    between atoms: C_25  and  O_28
REMARK    4  A    between atoms: O_28  and  C_29
REMARK    5  A    between atoms: C_29  and  C_32
REMARK                            x       y       z     vdW  Elec       q    Type
REMARK                         _______ _______ _______ _____ _____    ______ ____
ROOT
ATOM      1  N   UNL     1      34.552 -14.842 -22.774  0.00  0.00    -0.301 N 
ATOM      2  N   UNL     1      33.475 -17.968 -25.264  0.00  0.00    -0.248 NA
ATOM      3  N   UNL     1      33.481 -15.621 -24.719  0.00  0.00    -0.233 NA
ATOM      4  C   UNL     1      35.676 -18.821 -21.828  0.00  0.00    +0.048 C 
ATOM      5  C   UNL     1      34.579 -17.216 -23.273  0.00  0.00    +0.117 C 
ATOM      6  C   UNL     1      35.322 -17.508 -22.114  0.00  0.00    +0.001 C 
ATOM      7  C   UNL     1      34.185 -18.236 -24.154  0.00  0.00    +0.067 C 
ATOM      8  C   UNL     1      34.192 -15.924 -23.616  0.00  0.00    +0.115 C 
ATOM      9  C   UNL     1      35.292 -19.840 -22.693  0.00  0.00    +0.016 C 
ATOM     10  C   UNL     1      34.553 -19.543 -23.842  0.00  0.00    +0.016 C 
ATOM     11  C   UNL     1      33.161 -16.676 -25.486  0.00  0.00    +0.251 C 
ATOM     12  H   UNL     1      35.397 -14.982 -22.288  0.00  0.00    +0.153 HD
ENDROOT
BRANCH   4  15
ATOM     13  O   UNL     1      37.154 -20.198 -18.795  0.00  0.00    -0.448 OA
ATOM     14  N   UNL     1      35.456 -21.190 -19.957  0.00  0.00    -0.222 NA
ATOM     15  N   UNL     1      36.420 -19.120 -20.669  0.00  0.00    -0.269 N 
ATOM     16  C   UNL     1      35.833 -22.090 -18.855  0.00  0.00    +0.151 C 
ATOM     17  C   UNL     1      36.686 -21.234 -17.942  0.00  0.00    +0.233 C 
ATOM     18  C   UNL     1      36.290 -20.201 -19.851  0.00  0.00    +0.284 C 
ATOM     19  C   UNL     1      34.595 -22.640 -18.174  0.00  0.00    +0.030 C 
ATOM     20  H   UNL     1      37.117 -18.470 -20.422  0.00  0.00    +0.157 HD
ENDBRANCH   4  15
BRANCH   1  22
ATOM     21 CL   UNL     1      31.931 -11.946 -19.472  0.00  0.00    -0.079 Cl
ATOM     22  C   UNL     1      33.938 -13.610 -22.499  0.00  0.00    +0.050 C 
ATOM     23  C   UNL     1      33.311 -13.402 -21.272  0.00  0.00    +0.029 C 
ATOM     24  C   UNL     1      33.955 -12.595 -23.455  0.00  0.00    +0.018 C 
ATOM     25  C   UNL     1      32.718 -11.161 -21.955  0.00  0.00    +0.150 C 
ATOM     26  C   UNL     1      32.701 -12.177 -20.999  0.00  0.00    +0.093 C 
ATOM     27  C   UNL     1      33.345 -11.371 -23.183  0.00  0.00    +0.039 C 
BRANCH  25  28
ATOM     28  O   UNL     1      32.129  -9.955 -21.717  0.00  0.00    -0.468 OA
BRANCH  28  29
ATOM     29  C   UNL     1      31.239  -9.461 -22.716  0.00  0.00    +0.257 C 
BRANCH  29  32
ATOM     30  S   UNL     1      31.600  -7.191 -24.271  0.00  0.00    -0.067 S 
ATOM     31  N   UNL     1      31.236  -7.179 -21.713  0.00  0.00    -0.237 NA
ATOM     32  C   UNL     1      31.337  -7.964 -22.762  0.00  0.00    +0.132 C 
ATOM     33  C   UNL     1      31.578  -5.675 -23.471  0.00  0.00    +0.057 C 
ATOM     34  C   UNL     1      31.374  -5.867 -22.120  0.00  0.00    +0.106 C 
ENDBRANCH  29  32
ENDBRANCH  28  29
ENDBRANCH  25  28
ENDBRANCH   1  22
TORSDOF 5
ENDMDL
MODEL 7
REMARK VINA RESULT:      -9.4      2.312      4.558
REMARK  Name = 42642648
REMARK  5 active torsions:
REMARK  status: ('A' for Active; 'I' for Inactive)
REMARK    1  A    between atoms: N_1  and  C_22
REMARK    2  A    between atoms: C_4  and  N_15
REMARK    3  A    between atoms: C_25  and  O_28
REMARK    4  A    between atoms: O_28  and  C_29
REMARK    5  A    between atoms: C_29  and  C_32
REMARK                            x       y       z     vdW  Elec       q    Type
REMARK                         _______ _______ _______ _____ _____    ______ ____
ROOT
ATOM      1  N   UNL     1      35.779 -22.387 -16.321  0.00  0.00    -0.301 N 
ATOM      2  N   UNL     1      38.797 -24.549 -14.491  0.00  0.00    -0.248 NA
ATOM      3  N   UNL     1      38.057 -22.944 -16.129  0.00  0.00    -0.233 NA
ATOM      4  C   UNL     1      34.879 -25.080 -13.171  0.00  0.00    +0.048 C 
ATOM      5  C   UNL     1      36.467 -24.009 -14.654  0.00  0.00    +0.117 C 
ATOM      6  C   UNL     1      35.146 -24.190 -14.206  0.00  0.00    +0.001 C 
ATOM      7  C   UNL     1      37.531 -24.716 -14.071  0.00  0.00    +0.067 C 
ATOM      8  C   UNL     1      36.801 -23.135 -15.684  0.00  0.00    +0.115 C 
ATOM      9  C   UNL     1      35.924 -25.786 -12.586  0.00  0.00    +0.016 C 
ATOM     10  C   UNL     1      37.234 -25.601 -13.038  0.00  0.00    +0.016 C 
ATOM     11  C   UNL     1      38.992 -23.674 -15.497  0.00  0.00    +0.251 C 
ATOM     12  H   UNL     1      35.018 -22.176 -15.735  0.00  0.00    +0.153 HD
ENDROOT
BRANCH   4  15
ATOM     13  O   UNL     1      31.275 -25.293 -12.675  0.00  0.00    -0.448 OA
ATOM     14  N   UNL     1      32.262 -24.565 -14.603  0.00  0.00    -0.222 NA
ATOM     15  N   UNL     1      33.558 -25.267 -12.718  0.00  0.00    -0.269 N 
ATOM     16  C   UNL     1      30.807 -24.593 -14.824  0.00  0.00    +0.151 C 
ATOM     17  C   UNL     1      30.215 -24.732 -13.438  0.00  0.00    +0.233 C 
ATOM     18  C   UNL     1      32.402 -25.022 -13.395  0.00  0.00    +0.284 C 
ATOM     19  C   UNL     1      30.359 -23.336 -15.543  0.00  0.00    +0.030 C 
ATOM     20  H   UNL     1      33.458 -25.615 -11.802  0.00  0.00    +0.157 HD
ENDBRANCH   4  15
BRANCH   1  22
ATOM     21 CL   UNL     1      32.679 -21.232 -20.222  0.00  0.00    -0.079 Cl
ATOM     22  C   UNL     1      35.645 -21.889 -17.627  0.00  0.00    +0.050 C 
ATOM     23  C   UNL     1      34.384 -21.812 -18.218  0.00  0.00    +0.029 C 
ATOM     24  C   UNL     1      36.772 -21.471 -18.333  0.00  0.00    +0.018 C 
ATOM     25  C   UNL     1      35.379 -20.898 -20.221  0.00  0.00    +0.150 C 
ATOM     26  C   UNL     1      34.250 -21.316 -19.515  0.00  0.00    +0.093 C 
ATOM     27  C   UNL     1      36.640 -20.976 -19.630  0.00  0.00    +0.039 C 
BRANCH  25  28
ATOM     28  O   UNL     1      35.279 -20.410 -21.490  0.00  0.00    -0.468 OA
BRANCH  28  29
ATOM     29  C   UNL     1      35.701 -19.063 -21.700  0.00  0.00    +0.257 C 
BRANCH  29  32
ATOM     30  S   UNL     1      35.066 -16.815 -23.198  0.00  0.00    -0.067 S 
ATOM     31  N   UNL     1      34.234 -19.208 -23.710  0.00  0.00    -0.237 NA
ATOM     32  C   UNL     1      34.966 -18.498 -22.881  0.00  0.00    +0.132 C 
ATOM     33  C   UNL     1      34.049 -17.036 -24.560  0.00  0.00    +0.057 C 
ATOM     34  C   UNL     1      33.708 -18.368 -24.673  0.00  0.00    +0.106 C 
ENDBRANCH  29  32
ENDBRANCH  28  29
ENDBRANCH  25  28
ENDBRANCH   1  22
TORSDOF 5
ENDMDL
MODEL 8
REMARK VINA RESULT:      -9.3      8.063     16.172
REMARK  Name = 42642648
REMARK  5 active torsions:
REMARK  status: ('A' for Active; 'I' for Inactive)
REMARK    1  A    between atoms: N_1  and  C_22
REMARK    2  A    between atoms: C_4  and  N_15
REMARK    3  A    between atoms: C_25  and  O_28
REMARK    4  A    between atoms: O_28  and  C_29
REMARK    5  A    between atoms: C_29  and  C_32
REMARK                            x       y       z     vdW  Elec       q    Type
REMARK                         _______ _______ _______ _____ _____    ______ ____
ROOT
ATOM      1  N   UNL     1      34.060 -10.501 -23.206  0.00  0.00    -0.301 N 
ATOM      2  N   UNL     1      31.454  -7.649 -21.720  0.00  0.00    -0.248 NA
ATOM      3  N   UNL     1      32.235  -9.925 -21.835  0.00  0.00    -0.233 NA
ATOM      4  C   UNL     1      34.393  -6.451 -24.422  0.00  0.00    +0.048 C 
ATOM      5  C   UNL     1      33.316  -8.193 -23.129  0.00  0.00    +0.117 C 
ATOM      6  C   UNL     1      34.307  -7.785 -24.040  0.00  0.00    +0.001 C 
ATOM      7  C   UNL     1      32.404  -7.270 -22.592  0.00  0.00    +0.067 C 
ATOM      8  C   UNL     1      33.175  -9.512 -22.707  0.00  0.00    +0.115 C 
ATOM      9  C   UNL     1      33.496  -5.527 -23.898  0.00  0.00    +0.016 C 
ATOM     10  C   UNL     1      32.514  -5.940 -22.993  0.00  0.00    +0.016 C 
ATOM     11  C   UNL     1      31.420  -8.955 -21.389  0.00  0.00    +0.251 C 
ATOM     12  H   UNL     1      34.954 -10.156 -23.429  0.00  0.00    +0.153 HD
ENDROOT
BRANCH   4  15
ATOM     13  O   UNL     1      36.418  -5.494 -27.297  0.00  0.00    -0.448 OA
ATOM     14  N   UNL     1      34.229  -6.132 -27.428  0.00  0.00    -0.222 NA
ATOM     15  N   UNL     1      35.384  -6.036 -25.335  0.00  0.00    -0.269 N 
ATOM     16  C   UNL     1      34.665  -5.739 -28.777  0.00  0.00    +0.151 C 
ATOM     17  C   UNL     1      36.175  -5.677 -28.685  0.00  0.00    +0.233 C 
ATOM     18  C   UNL     1      35.269  -5.905 -26.685  0.00  0.00    +0.284 C 
ATOM     19  C   UNL     1      34.168  -6.738 -29.804  0.00  0.00    +0.030 C 
ATOM     20  H   UNL     1      36.263  -5.815 -24.950  0.00  0.00    +0.157 HD
ENDBRANCH   4  15
BRANCH   1  22
ATOM     21 CL   UNL     1      33.312 -14.260 -26.592  0.00  0.00    -0.079 Cl
ATOM     22  C   UNL     1      33.906 -11.876 -23.442  0.00  0.00    +0.050 C 
ATOM     23  C   UNL     1      33.708 -12.343 -24.741  0.00  0.00    +0.029 C 
ATOM     24  C   UNL     1      33.950 -12.775 -22.377  0.00  0.00    +0.018 C 
ATOM     25  C   UNL     1      33.601 -14.609 -23.910  0.00  0.00    +0.150 C 
ATOM     26  C   UNL     1      33.556 -13.709 -24.976  0.00  0.00    +0.093 C 
ATOM     27  C   UNL     1      33.798 -14.141 -22.611  0.00  0.00    +0.039 C 
BRANCH  25  28
ATOM     28  O   UNL     1      33.454 -15.950 -24.109  0.00  0.00    -0.468 OA
BRANCH  28  29
ATOM     29  C   UNL     1      34.639 -16.695 -24.387  0.00  0.00    +0.257 C 
BRANCH  29  32
ATOM     30  S   UNL     1      34.467 -19.316 -23.492  0.00  0.00    -0.067 S 
ATOM     31  N   UNL     1      35.395 -17.344 -22.102  0.00  0.00    -0.237 NA
ATOM     32  C   UNL     1      34.880 -17.666 -23.268  0.00  0.00    +0.132 C 
ATOM     33  C   UNL     1      35.019 -19.644 -21.902  0.00  0.00    +0.057 C 
ATOM     34  C   UNL     1      35.474 -18.480 -21.320  0.00  0.00    +0.106 C 
ENDBRANCH  29  32
ENDBRANCH  28  29
ENDBRANCH  25  28
ENDBRANCH   1  22
TORSDOF 5
ENDMDL
MODEL 9
REMARK VINA RESULT:      -9.2      9.790     18.035
REMARK  Name = 42642648
REMARK  5 active torsions:
REMARK  status: ('A' for Active; 'I' for Inactive)
REMARK    1  A    between atoms: N_1  and  C_22
REMARK    2  A    between atoms: C_4  and  N_15
REMARK    3  A    between atoms: C_25  and  O_28
REMARK    4  A    between atoms: O_28  and  C_29
REMARK    5  A    between atoms: C_29  and  C_32
REMARK                            x       y       z     vdW  Elec       q    Type
REMARK                         _______ _______ _______ _____ _____    ______ ____
ROOT
ATOM      1  N   UNL     1      33.473  -7.616 -23.199  0.00  0.00    -0.301 N 
ATOM      2  N   UNL     1      30.916  -4.494 -22.281  0.00  0.00    -0.248 NA
ATOM      3  N   UNL     1      31.727  -6.730 -21.895  0.00  0.00    -0.233 NA
ATOM      4  C   UNL     1      33.664  -3.978 -25.371  0.00  0.00    +0.048 C 
ATOM      5  C   UNL     1      32.697  -5.359 -23.632  0.00  0.00    +0.117 C 
ATOM      6  C   UNL     1      33.624  -5.181 -24.675  0.00  0.00    +0.001 C 
ATOM      7  C   UNL     1      31.805  -4.335 -23.277  0.00  0.00    +0.067 C 
ATOM      8  C   UNL     1      32.605  -6.537 -22.898  0.00  0.00    +0.115 C 
ATOM      9  C   UNL     1      32.785  -2.957 -25.029  0.00  0.00    +0.016 C 
ATOM     10  C   UNL     1      31.867  -3.141 -23.992  0.00  0.00    +0.016 C 
ATOM     11  C   UNL     1      30.924  -5.683 -21.644  0.00  0.00    +0.251 C 
ATOM     12  H   UNL     1      34.347  -7.334 -23.555  0.00  0.00    +0.153 HD
ENDROOT
BRANCH   4  15
ATOM     13  O   UNL     1      35.606  -3.969 -28.456  0.00  0.00    -0.448 OA
ATOM     14  N   UNL     1      33.652  -5.119 -28.175  0.00  0.00    -0.222 NA
ATOM     15  N   UNL     1      34.590  -3.794 -26.418  0.00  0.00    -0.269 N 
ATOM     16  C   UNL     1      34.080  -5.291 -29.573  0.00  0.00    +0.151 C 
ATOM     17  C   UNL     1      35.518  -4.820 -29.591  0.00  0.00    +0.233 C 
ATOM     18  C   UNL     1      34.549  -4.327 -27.670  0.00  0.00    +0.284 C 
ATOM     19  C   UNL     1      33.919  -6.737 -30.000  0.00  0.00    +0.030 C 
ATOM     20  H   UNL     1      35.359  -3.210 -26.220  0.00  0.00    +0.157 HD
ENDBRANCH   4  15
BRANCH   1  22
ATOM     21 CL   UNL     1      30.710 -11.563 -21.482  0.00  0.00    -0.079 Cl
ATOM     22  C   UNL     1      33.328  -9.008 -23.088  0.00  0.00    +0.050 C 
ATOM     23  C   UNL     1      32.226  -9.544 -22.422  0.00  0.00    +0.029 C 
ATOM     24  C   UNL     1      34.287  -9.855 -23.643  0.00  0.00    +0.018 C 
ATOM     25  C   UNL     1      33.041 -11.774 -22.868  0.00  0.00    +0.150 C 
ATOM     26  C   UNL     1      32.082 -10.927 -22.312  0.00  0.00    +0.093 C 
ATOM     27  C   UNL     1      34.143 -11.238 -23.533  0.00  0.00    +0.039 C 
BRANCH  25  28
ATOM     28  O   UNL     1      32.927 -13.129 -22.775  0.00  0.00    -0.468 OA
BRANCH  28  29
ATOM     29  C   UNL     1      33.998 -13.827 -22.141  0.00  0.00    +0.257 C 
BRANCH  29  32
ATOM     30  S   UNL     1      33.710 -15.245 -24.509  0.00  0.00    -0.067 S 
ATOM     31  N   UNL     1      34.912 -16.131 -22.400  0.00  0.00    -0.237 NA
ATOM     32  C   UNL     1      34.268 -15.097 -22.893  0.00  0.00    +0.132 C 
ATOM     33  C   UNL     1      34.381 -16.821 -24.571  0.00  0.00    +0.057 C 
ATOM     34  C   UNL     1      34.976 -17.119 -23.363  0.00  0.00    +0.106 C 
ENDBRANCH  29  32
ENDBRANCH  28  29
ENDBRANCH  25  28
ENDBRANCH   1  22
TORSDOF 5
ENDMDL
