MODEL 1
REMARK VINA RESULT:     -12.8      0.000      0.000
REMARK  Name = 5288711
REMARK  4 active torsions:
REMARK  status: ('A' for Active; 'I' for Inactive)
REMARK    1  A    between atoms: C_1  and  S_7
REMARK    2  A    between atoms: C_2  and  N_17
REMARK    3  A    between atoms: S_7  and  N_11
REMARK    4  A    between atoms: N_17  and  C_25
REMARK                            x       y       z     vdW  Elec       q    Type
REMARK                         _______ _______ _______ _____ _____    ______ ____
ROOT
ATOM      1  C   UNL     1      34.328 -22.073 -18.903  0.00  0.00    +0.125 C 
ATOM      2  C   UNL     1      35.363 -20.163 -20.663  0.00  0.00    +0.048 C 
ATOM      3  C   UNL     1      35.708 -21.902 -19.016  0.00  0.00    +0.021 C 
ATOM      4  C   UNL     1      33.465 -21.289 -19.668  0.00  0.00    +0.021 C 
ATOM      5  C   UNL     1      36.224 -20.950 -19.893  0.00  0.00    +0.016 C 
ATOM      6  C   UNL     1      33.980 -20.336 -20.546  0.00  0.00    +0.016 C 
ENDROOT
BRANCH   1   7
ATOM      7  S   UNL     1      33.682 -23.266 -17.804  0.00  0.00    +0.075 S 
ATOM      8  O   UNL     1      33.494 -24.513 -18.535  0.00  0.00    -0.150 OA
ATOM      9  O   UNL     1      34.509 -23.256 -16.604  0.00  0.00    -0.150 OA
BRANCH   7  11
ATOM     10  S   UNL     1      29.799 -23.402 -16.201  0.00  0.00    -0.050 S 
ATOM     11  N   UNL     1      32.139 -22.593 -17.453  0.00  0.00    -0.194 N 
ATOM     12  N   UNL     1      32.157 -23.330 -15.144  0.00  0.00    -0.221 NA
ATOM     13  C   UNL     1      31.476 -23.100 -16.232  0.00  0.00    +0.179 C 
ATOM     14  C   UNL     1      29.961 -23.897 -14.567  0.00  0.00    +0.059 C 
ATOM     15  C   UNL     1      31.281 -23.790 -14.181  0.00  0.00    +0.108 C 
ATOM     16  H   UNL     1      31.723 -21.912 -18.029  0.00  0.00    +0.176 HD
ENDBRANCH   7  11
ENDBRANCH   1   7
BRANCH   2  17
ATOM     17  N   UNL     1      35.883 -19.203 -21.547  0.00  0.00    -0.311 N 
ATOM     18  H   UNL     1      36.595 -19.519 -22.149  0.00  0.00    +0.152 HD
BRANCH  17  25
ATOM     19  O   UNL     1      34.664 -19.243 -24.178  0.00  0.00    -0.270 OA
ATOM     20  N   UNL     1      33.918 -17.078 -24.758  0.00  0.00    -0.280 N 
ATOM     21  C   UNL     1      34.542 -15.915 -22.874  0.00  0.00    +0.019 C 
ATOM     22  C   UNL     1      34.923 -17.315 -22.715  0.00  0.00    +0.069 C 
ATOM     23  C   UNL     1      33.936 -15.827 -24.131  0.00  0.00    +0.051 C 
ATOM     24  C   UNL     1      34.509 -18.058 -23.953  0.00  0.00    +0.251 C 
ATOM     25  C   UNL     1      35.533 -17.899 -21.682  0.00  0.00    +0.066 C 
ATOM     26  C   UNL     1      34.671 -14.797 -22.073  0.00  0.00    +0.001 C 
ATOM     27  C   UNL     1      33.443 -14.639 -24.632  0.00  0.00    +0.015 C 
ATOM     28  C   UNL     1      34.178 -13.582 -22.561  0.00  0.00    +0.000 C 
ATOM     29  C   UNL     1      33.569 -13.504 -23.827  0.00  0.00    +0.001 C 
ATOM     30  H   UNL     1      33.539 -17.247 -25.650  0.00  0.00    +0.155 HD
ENDBRANCH  17  25
ENDBRANCH   2  17
TORSDOF 4
ENDMDL
MODEL 2
REMARK VINA RESULT:     -12.1      1.428      2.020
REMARK  Name = 5288711
REMARK  4 active torsions:
REMARK  status: ('A' for Active; 'I' for Inactive)
REMARK    1  A    between atoms: C_1  and  S_7
REMARK    2  A    between atoms: C_2  and  N_17
REMARK    3  A    between atoms: S_7  and  N_11
REMARK    4  A    between atoms: N_17  and  C_25
REMARK                            x       y       z     vdW  Elec       q    Type
REMARK                         _______ _______ _______ _____ _____    ______ ____
ROOT
ATOM      1  C   UNL     1      34.556 -21.899 -19.122  0.00  0.00    +0.125 C 
ATOM      2  C   UNL     1      35.667 -19.806 -20.606  0.00  0.00    +0.048 C 
ATOM      3  C   UNL     1      33.734 -21.076 -19.892  0.00  0.00    +0.021 C 
ATOM      4  C   UNL     1      35.933 -21.678 -19.093  0.00  0.00    +0.021 C 
ATOM      5  C   UNL     1      34.288 -20.033 -20.633  0.00  0.00    +0.016 C 
ATOM      6  C   UNL     1      36.488 -20.634 -19.833  0.00  0.00    +0.016 C 
ENDROOT
BRANCH   1   7
ATOM      7  S   UNL     1      33.863 -23.206 -18.195  0.00  0.00    +0.075 S 
ATOM      8  O   UNL     1      33.641 -24.338 -19.086  0.00  0.00    -0.150 OA
ATOM      9  O   UNL     1      34.679 -23.383 -17.001  0.00  0.00    -0.150 OA
BRANCH   7  11
ATOM     10  S   UNL     1      30.090 -23.330 -16.347  0.00  0.00    -0.050 S 
ATOM     11  N   UNL     1      32.340 -22.536 -17.764  0.00  0.00    -0.194 N 
ATOM     12  N   UNL     1      32.509 -23.214 -15.443  0.00  0.00    -0.221 NA
ATOM     13  C   UNL     1      31.759 -23.017 -16.491  0.00  0.00    +0.179 C 
ATOM     14  C   UNL     1      30.359 -23.782 -14.715  0.00  0.00    +0.059 C 
ATOM     15  C   UNL     1      31.700 -23.656 -14.415  0.00  0.00    +0.108 C 
ATOM     16  H   UNL     1      31.882 -21.872 -18.329  0.00  0.00    +0.176 HD
ENDBRANCH   7  11
ENDBRANCH   1   7
BRANCH   2  17
ATOM     17  N   UNL     1      36.225 -18.755 -21.351  0.00  0.00    -0.311 N 
ATOM     18  H   UNL     1      37.147 -18.504 -21.113  0.00  0.00    +0.152 HD
BRANCH  17  25
ATOM     19  O   UNL     1      35.255 -16.447 -19.889  0.00  0.00    -0.270 OA
ATOM     20  N   UNL     1      34.187 -14.942 -21.365  0.00  0.00    -0.280 N 
ATOM     21  C   UNL     1      34.437 -16.076 -23.350  0.00  0.00    +0.019 C 
ATOM     22  C   UNL     1      35.046 -16.857 -22.279  0.00  0.00    +0.069 C 
ATOM     23  C   UNL     1      33.931 -14.924 -22.741  0.00  0.00    +0.051 C 
ATOM     24  C   UNL     1      34.874 -16.103 -20.992  0.00  0.00    +0.251 C 
ATOM     25  C   UNL     1      35.662 -18.038 -22.357  0.00  0.00    +0.066 C 
ATOM     26  C   UNL     1      34.298 -16.273 -24.711  0.00  0.00    +0.001 C 
ATOM     27  C   UNL     1      33.277 -13.938 -23.451  0.00  0.00    +0.015 C 
ATOM     28  C   UNL     1      33.638 -15.286 -25.451  0.00  0.00    +0.000 C 
ATOM     29  C   UNL     1      33.133 -14.130 -24.827  0.00  0.00    +0.001 C 
ATOM     30  H   UNL     1      33.919 -14.231 -20.740  0.00  0.00    +0.155 HD
ENDBRANCH  17  25
ENDBRANCH   2  17
TORSDOF 4
ENDMDL
MODEL 3
REMARK VINA RESULT:     -11.9      4.708      9.722
REMARK  Name = 5288711
REMARK  4 active torsions:
REMARK  status: ('A' for Active; 'I' for Inactive)
REMARK    1  A    between atoms: C_1  and  S_7
REMARK    2  A    between atoms: C_2  and  N_17
REMARK    3  A    between atoms: S_7  and  N_11
REMARK    4  A    between atoms: N_17  and  C_25
REMARK                            x       y       z     vdW  Elec       q    Type
REMARK                         _______ _______ _______ _____ _____    ______ ____
ROOT
ATOM      1  C   UNL     1      34.046 -14.737 -23.580  0.00  0.00    +0.125 C 
ATOM      2  C   UNL     1      34.951 -17.313 -22.977  0.00  0.00    +0.048 C 
ATOM      3  C   UNL     1      34.517 -15.030 -22.300  0.00  0.00    +0.021 C 
ATOM      4  C   UNL     1      34.027 -15.730 -24.559  0.00  0.00    +0.021 C 
ATOM      5  C   UNL     1      34.969 -16.315 -21.999  0.00  0.00    +0.016 C 
ATOM      6  C   UNL     1      34.479 -17.015 -24.259  0.00  0.00    +0.016 C 
ENDROOT
BRANCH   1   7
ATOM      7  S   UNL     1      33.480 -13.129 -23.956  0.00  0.00    +0.075 S 
ATOM      8  O   UNL     1      34.534 -12.179 -23.622  0.00  0.00    -0.150 OA
ATOM      9  O   UNL     1      32.941 -13.156 -25.310  0.00  0.00    -0.150 OA
BRANCH   7  11
ATOM     10  S   UNL     1      31.616 -11.350 -20.636  0.00  0.00    -0.050 S 
ATOM     11  N   UNL     1      32.199 -12.954 -22.823  0.00  0.00    -0.194 N 
ATOM     12  N   UNL     1      32.112 -10.542 -23.040  0.00  0.00    -0.221 NA
ATOM     13  C   UNL     1      32.000 -11.593 -22.278  0.00  0.00    +0.179 C 
ATOM     14  C   UNL     1      31.589  -9.662 -20.936  0.00  0.00    +0.059 C 
ATOM     15  C   UNL     1      31.874  -9.424 -22.264  0.00  0.00    +0.108 C 
ATOM     16  H   UNL     1      31.632 -13.712 -22.555  0.00  0.00    +0.176 HD
ENDBRANCH   7  11
ENDBRANCH   1   7
BRANCH   2  17
ATOM     17  N   UNL     1      35.406 -18.607 -22.674  0.00  0.00    -0.311 N 
ATOM     18  H   UNL     1      36.218 -18.896 -23.150  0.00  0.00    +0.152 HD
BRANCH  17  25
ATOM     19  O   UNL     1      37.644 -19.017 -20.877  0.00  0.00    -0.270 OA
ATOM     20  N   UNL     1      37.062 -20.577 -19.202  0.00  0.00    -0.280 N 
ATOM     21  C   UNL     1      34.898 -21.051 -19.821  0.00  0.00    +0.019 C 
ATOM     22  C   UNL     1      35.457 -20.078 -20.755  0.00  0.00    +0.069 C 
ATOM     23  C   UNL     1      35.914 -21.319 -18.899  0.00  0.00    +0.051 C 
ATOM     24  C   UNL     1      36.868 -19.781 -20.335  0.00  0.00    +0.251 C 
ATOM     25  C   UNL     1      34.874 -19.512 -21.813  0.00  0.00    +0.066 C 
ATOM     26  C   UNL     1      33.670 -21.674 -19.719  0.00  0.00    +0.001 C 
ATOM     27  C   UNL     1      35.749 -22.206 -17.854  0.00  0.00    +0.015 C 
ATOM     28  C   UNL     1      33.480 -22.577 -18.667  0.00  0.00    +0.000 C 
ATOM     29  C   UNL     1      34.509 -22.840 -17.744  0.00  0.00    +0.001 C 
ATOM     30  H   UNL     1      37.898 -20.611 -18.684  0.00  0.00    +0.155 HD
ENDBRANCH  17  25
ENDBRANCH   2  17
TORSDOF 4
ENDMDL
MODEL 4
REMARK VINA RESULT:     -11.9      1.877      2.321
REMARK  Name = 5288711
REMARK  4 active torsions:
REMARK  status: ('A' for Active; 'I' for Inactive)
REMARK    1  A    between atoms: C_1  and  S_7
REMARK    2  A    between atoms: C_2  and  N_17
REMARK    3  A    between atoms: S_7  and  N_11
REMARK    4  A    between atoms: N_17  and  C_25
REMARK                            x       y       z     vdW  Elec       q    Type
REMARK                         _______ _______ _______ _____ _____    ______ ____
ROOT
ATOM      1  C   UNL     1      34.383 -21.559 -19.470  0.00  0.00    +0.125 C 
ATOM      2  C   UNL     1      35.222 -19.561 -21.236  0.00  0.00    +0.048 C 
ATOM      3  C   UNL     1      33.444 -20.848 -20.217  0.00  0.00    +0.021 C 
ATOM      4  C   UNL     1      35.741 -21.273 -19.605  0.00  0.00    +0.021 C 
ATOM      5  C   UNL     1      33.862 -19.852 -21.098  0.00  0.00    +0.016 C 
ATOM      6  C   UNL     1      36.161 -20.276 -20.487  0.00  0.00    +0.016 C 
ENDROOT
BRANCH   1   7
ATOM      7  S   UNL     1      33.860 -22.807 -18.366  0.00  0.00    +0.075 S 
ATOM      8  O   UNL     1      32.637 -22.361 -17.712  0.00  0.00    -0.150 OA
ATOM      9  O   UNL     1      33.866 -24.071 -19.092  0.00  0.00    -0.150 OA
BRANCH   7  11
ATOM     10  S   UNL     1      35.398 -22.805 -14.455  0.00  0.00    -0.050 S 
ATOM     11  N   UNL     1      35.139 -22.791 -17.217  0.00  0.00    -0.194 N 
ATOM     12  N   UNL     1      34.193 -24.585 -15.890  0.00  0.00    -0.221 NA
ATOM     13  C   UNL     1      34.859 -23.465 -15.930  0.00  0.00    +0.179 C 
ATOM     14  C   UNL     1      34.679 -24.135 -13.646  0.00  0.00    +0.059 C 
ATOM     15  C   UNL     1      34.089 -24.973 -14.568  0.00  0.00    +0.108 C 
ATOM     16  H   UNL     1      36.004 -22.361 -17.404  0.00  0.00    +0.176 HD
ENDBRANCH   7  11
ENDBRANCH   1   7
BRANCH   2  17
ATOM     17  N   UNL     1      35.643 -18.557 -22.124  0.00  0.00    -0.311 N 
ATOM     18  H   UNL     1      36.265 -18.844 -22.830  0.00  0.00    +0.152 HD
BRANCH  17  25
ATOM     19  O   UNL     1      34.420 -18.342 -24.744  0.00  0.00    -0.270 OA
ATOM     20  N   UNL     1      33.693 -16.125 -25.119  0.00  0.00    -0.280 N 
ATOM     21  C   UNL     1      34.331 -15.148 -23.138  0.00  0.00    +0.019 C 
ATOM     22  C   UNL     1      34.699 -16.560 -23.110  0.00  0.00    +0.069 C 
ATOM     23  C   UNL     1      33.724 -14.938 -24.379  0.00  0.00    +0.051 C 
ATOM     24  C   UNL     1      34.276 -17.181 -24.410  0.00  0.00    +0.251 C 
ATOM     25  C   UNL     1      35.306 -17.242 -22.137  0.00  0.00    +0.066 C 
ATOM     26  C   UNL     1      34.473 -14.110 -22.236  0.00  0.00    +0.001 C 
ATOM     27  C   UNL     1      33.241 -13.704 -24.767  0.00  0.00    +0.015 C 
ATOM     28  C   UNL     1      33.990 -12.850 -22.609  0.00  0.00    +0.000 C 
ATOM     29  C   UNL     1      33.380 -12.650 -23.861  0.00  0.00    +0.001 C 
ATOM     30  H   UNL     1      33.311 -16.208 -26.022  0.00  0.00    +0.155 HD
ENDBRANCH  17  25
ENDBRANCH   2  17
TORSDOF 4
ENDMDL
MODEL 5
REMARK VINA RESULT:     -11.7      1.993      2.425
REMARK  Name = 5288711
REMARK  4 active torsions:
REMARK  status: ('A' for Active; 'I' for Inactive)
REMARK    1  A    between atoms: C_1  and  S_7
REMARK    2  A    between atoms: C_2  and  N_17
REMARK    3  A    between atoms: S_7  and  N_11
REMARK    4  A    between atoms: N_17  and  C_25
REMARK                            x       y       z     vdW  Elec       q    Type
REMARK                         _______ _______ _______ _____ _____    ______ ____
ROOT
ATOM      1  C   UNL     1      34.069 -22.188 -18.548  0.00  0.00    +0.125 C 
ATOM      2  C   UNL     1      35.296 -20.455 -20.366  0.00  0.00    +0.048 C 
ATOM      3  C   UNL     1      33.291 -21.416 -19.411  0.00  0.00    +0.021 C 
ATOM      4  C   UNL     1      35.460 -22.095 -18.593  0.00  0.00    +0.021 C 
ATOM      5  C   UNL     1      33.902 -20.552 -20.318  0.00  0.00    +0.016 C 
ATOM      6  C   UNL     1      36.073 -21.231 -19.501  0.00  0.00    +0.016 C 
ENDROOT
BRANCH   1   7
ATOM      7  S   UNL     1      33.303 -23.270 -17.411  0.00  0.00    +0.075 S 
ATOM      8  O   UNL     1      31.886 -22.937 -17.341  0.00  0.00    -0.150 OA
ATOM      9  O   UNL     1      33.705 -24.628 -17.754  0.00  0.00    -0.150 OA
BRANCH   7  11
ATOM     10  S   UNL     1      34.538 -23.905 -13.444  0.00  0.00    -0.050 S 
ATOM     11  N   UNL     1      34.056 -22.794 -15.941  0.00  0.00    -0.194 N 
ATOM     12  N   UNL     1      35.310 -24.856 -15.720  0.00  0.00    -0.221 NA
ATOM     13  C   UNL     1      34.662 -23.883 -15.144  0.00  0.00    +0.179 C 
ATOM     14  C   UNL     1      35.438 -25.365 -13.440  0.00  0.00    +0.059 C 
ATOM     15  C   UNL     1      35.759 -25.714 -14.735  0.00  0.00    +0.108 C 
ATOM     16  H   UNL     1      34.083 -21.855 -15.648  0.00  0.00    +0.176 HD
ENDBRANCH   7  11
ENDBRANCH   1   7
BRANCH   2  17
ATOM     17  N   UNL     1      35.912 -19.584 -21.280  0.00  0.00    -0.311 N 
ATOM     18  H   UNL     1      36.683 -19.952 -21.768  0.00  0.00    +0.152 HD
BRANCH  17  25
ATOM     19  O   UNL     1      34.718 -19.933 -23.899  0.00  0.00    -0.270 OA
ATOM     20  N   UNL     1      34.013 -17.846 -24.753  0.00  0.00    -0.280 N 
ATOM     21  C   UNL     1      34.636 -16.467 -23.021  0.00  0.00    +0.019 C 
ATOM     22  C   UNL     1      34.994 -17.842 -22.685  0.00  0.00    +0.069 C 
ATOM     23  C   UNL     1      34.044 -16.527 -24.286  0.00  0.00    +0.051 C 
ATOM     24  C   UNL     1      34.580 -18.727 -23.825  0.00  0.00    +0.251 C 
ATOM     25  C   UNL     1      35.585 -18.301 -21.580  0.00  0.00    +0.066 C 
ATOM     26  C   UNL     1      34.776 -15.260 -22.364  0.00  0.00    +0.001 C 
ATOM     27  C   UNL     1      33.575 -15.404 -24.937  0.00  0.00    +0.015 C 
ATOM     28  C   UNL     1      34.306 -14.108 -23.004  0.00  0.00    +0.000 C 
ATOM     29  C   UNL     1      33.711 -14.180 -24.278  0.00  0.00    +0.001 C 
ATOM     30  H   UNL     1      33.640 -18.120 -25.621  0.00  0.00    +0.155 HD
ENDBRANCH  17  25
ENDBRANCH   2  17
TORSDOF 4
ENDMDL
MODEL 6
REMARK VINA RESULT:     -11.7      2.742      9.650
REMARK  Name = 5288711
REMARK  4 active torsions:
REMARK  status: ('A' for Active; 'I' for Inactive)
REMARK    1  A    between atoms: C_1  and  S_7
REMARK    2  A    between atoms: C_2  and  N_17
REMARK    3  A    between atoms: S_7  and  N_11
REMARK    4  A    between atoms: N_17  and  C_25
REMARK                            x       y       z     vdW  Elec       q    Type
REMARK                         _______ _______ _______ _____ _____    ______ ____
ROOT
ATOM      1  C   UNL     1      35.454 -19.962 -20.488  0.00  0.00    +0.125 C 
ATOM      2  C   UNL     1      34.411 -22.254 -19.275  0.00  0.00    +0.048 C 
ATOM      3  C   UNL     1      34.078 -20.192 -20.497  0.00  0.00    +0.021 C 
ATOM      4  C   UNL     1      36.309 -20.876 -19.874  0.00  0.00    +0.021 C 
ATOM      5  C   UNL     1      33.558 -21.335 -19.891  0.00  0.00    +0.016 C 
ATOM      6  C   UNL     1      35.789 -22.020 -19.267  0.00  0.00    +0.016 C 
ENDROOT
BRANCH   1   7
ATOM      7  S   UNL     1      36.107 -18.531 -21.247  0.00  0.00    +0.075 S 
ATOM      8  O   UNL     1      35.392 -17.370 -20.732  0.00  0.00    -0.150 OA
ATOM      9  O   UNL     1      37.558 -18.591 -21.129  0.00  0.00    -0.150 OA
BRANCH   7  11
ATOM     10  S   UNL     1      33.654 -17.898 -24.601  0.00  0.00    -0.050 S 
ATOM     11  N   UNL     1      35.645 -18.783 -22.884  0.00  0.00    -0.194 N 
ATOM     12  N   UNL     1      35.362 -16.420 -23.344  0.00  0.00    -0.221 NA
ATOM     13  C   UNL     1      34.969 -17.647 -23.547  0.00  0.00    +0.179 C 
ATOM     14  C   UNL     1      33.571 -16.201 -24.833  0.00  0.00    +0.059 C 
ATOM     15  C   UNL     1      34.554 -15.583 -24.087  0.00  0.00    +0.108 C 
ATOM     16  H   UNL     1      35.821 -19.631 -23.352  0.00  0.00    +0.176 HD
ENDBRANCH   7  11
ENDBRANCH   1   7
BRANCH   2  17
ATOM     17  N   UNL     1      33.886 -23.406 -18.665  0.00  0.00    -0.311 N 
ATOM     18  H   UNL     1      34.255 -24.262 -18.980  0.00  0.00    +0.152 HD
BRANCH  17  25
ATOM     19  O   UNL     1      35.545 -23.444 -16.287  0.00  0.00    -0.270 OA
ATOM     20  N   UNL     1      34.191 -23.597 -14.357  0.00  0.00    -0.280 N 
ATOM     21  C   UNL     1      32.106 -23.645 -15.327  0.00  0.00    +0.019 C 
ATOM     22  C   UNL     1      33.115 -23.549 -16.377  0.00  0.00    +0.069 C 
ATOM     23  C   UNL     1      32.813 -23.671 -14.121  0.00  0.00    +0.051 C 
ATOM     24  C   UNL     1      34.468 -23.519 -15.726  0.00  0.00    +0.251 C 
ATOM     25  C   UNL     1      32.938 -23.495 -17.698  0.00  0.00    +0.066 C 
ATOM     26  C   UNL     1      30.726 -23.708 -15.337  0.00  0.00    +0.001 C 
ATOM     27  C   UNL     1      32.183 -23.758 -12.896  0.00  0.00    +0.015 C 
ATOM     28  C   UNL     1      30.066 -23.797 -14.106  0.00  0.00    +0.000 C 
ATOM     29  C   UNL     1      30.788 -23.822 -12.898  0.00  0.00    +0.001 C 
ATOM     30  H   UNL     1      34.876 -23.600 -13.652  0.00  0.00    +0.155 HD
ENDBRANCH  17  25
ENDBRANCH   2  17
TORSDOF 4
ENDMDL
MODEL 7
REMARK VINA RESULT:     -11.5      3.868      6.671
REMARK  Name = 5288711
REMARK  4 active torsions:
REMARK  status: ('A' for Active; 'I' for Inactive)
REMARK    1  A    between atoms: C_1  and  S_7
REMARK    2  A    between atoms: C_2  and  N_17
REMARK    3  A    between atoms: S_7  and  N_11
REMARK    4  A    between atoms: N_17  and  C_25
REMARK                            x       y       z     vdW  Elec       q    Type
REMARK                         _______ _______ _______ _____ _____    ______ ____
ROOT
ATOM      1  C   UNL     1      34.931 -17.110 -22.739  0.00  0.00    +0.125 C 
ATOM      2  C   UNL     1      33.876 -14.672 -23.607  0.00  0.00    +0.048 C 
ATOM      3  C   UNL     1      34.493 -16.969 -24.055  0.00  0.00    +0.021 C 
ATOM      4  C   UNL     1      34.844 -16.035 -21.856  0.00  0.00    +0.021 C 
ATOM      5  C   UNL     1      33.967 -15.753 -24.489  0.00  0.00    +0.016 C 
ATOM      6  C   UNL     1      34.318 -14.817 -22.289  0.00  0.00    +0.016 C 
ENDROOT
BRANCH   1   7
ATOM      7  S   UNL     1      35.590 -18.634 -22.195  0.00  0.00    +0.075 S 
ATOM      8  O   UNL     1      35.388 -19.624 -23.245  0.00  0.00    -0.150 OA
ATOM      9  O   UNL     1      36.935 -18.381 -21.696  0.00  0.00    -0.150 OA
BRANCH   7  11
ATOM     10  S   UNL     1      33.519 -21.271 -19.661  0.00  0.00    -0.050 S 
ATOM     11  N   UNL     1      34.542 -18.999 -20.883  0.00  0.00    -0.194 N 
ATOM     12  N   UNL     1      36.018 -20.681 -19.952  0.00  0.00    -0.221 NA
ATOM     13  C   UNL     1      34.801 -20.278 -20.185  0.00  0.00    +0.179 C 
ATOM     14  C   UNL     1      34.680 -22.374 -19.049  0.00  0.00    +0.059 C 
ATOM     15  C   UNL     1      35.949 -21.893 -19.294  0.00  0.00    +0.108 C 
ATOM     16  H   UNL     1      33.814 -18.394 -20.610  0.00  0.00    +0.176 HD
ENDBRANCH   7  11
ENDBRANCH   1   7
BRANCH   2  17
ATOM     17  N   UNL     1      33.346 -13.447 -24.044  0.00  0.00    -0.311 N 
ATOM     18  H   UNL     1      32.456 -13.491 -24.461  0.00  0.00    +0.152 HD
BRANCH  17  25
ATOM     19  O   UNL     1      31.415 -12.099 -22.353  0.00  0.00    -0.270 OA
ATOM     20  N   UNL     1      32.074  -9.858 -21.997  0.00  0.00    -0.280 N 
ATOM     21  C   UNL     1      34.023  -9.809 -23.218  0.00  0.00    +0.019 C 
ATOM     22  C   UNL     1      33.440 -11.144 -23.308  0.00  0.00    +0.069 C 
ATOM     23  C   UNL     1      33.154  -9.069 -22.410  0.00  0.00    +0.051 C 
ATOM     24  C   UNL     1      32.170 -11.157 -22.507  0.00  0.00    +0.251 C 
ATOM     25  C   UNL     1      33.899 -12.209 -23.968  0.00  0.00    +0.066 C 
ATOM     26  C   UNL     1      35.163  -9.231 -23.743  0.00  0.00    +0.001 C 
ATOM     27  C   UNL     1      33.383  -7.744 -22.099  0.00  0.00    +0.015 C 
ATOM     28  C   UNL     1      35.415  -7.889 -23.440  0.00  0.00    +0.000 C 
ATOM     29  C   UNL     1      34.533  -7.153 -22.626  0.00  0.00    +0.001 C 
ATOM     30  H   UNL     1      31.342  -9.540 -21.422  0.00  0.00    +0.155 HD
ENDBRANCH  17  25
ENDBRANCH   2  17
TORSDOF 4
ENDMDL
MODEL 8
REMARK VINA RESULT:     -11.0      3.091      3.664
REMARK  Name = 5288711
REMARK  4 active torsions:
REMARK  status: ('A' for Active; 'I' for Inactive)
REMARK    1  A    between atoms: C_1  and  S_7
REMARK    2  A    between atoms: C_2  and  N_17
REMARK    3  A    between atoms: S_7  and  N_11
REMARK    4  A    between atoms: N_17  and  C_25
REMARK                            x       y       z     vdW  Elec       q    Type
REMARK                         _______ _______ _______ _____ _____    ______ ____
ROOT
ATOM      1  C   UNL     1      35.349 -22.588 -17.326  0.00  0.00    +0.125 C 
ATOM      2  C   UNL     1      35.432 -21.118 -19.702  0.00  0.00    +0.048 C 
ATOM      3  C   UNL     1      36.530 -21.957 -17.715  0.00  0.00    +0.021 C 
ATOM      4  C   UNL     1      34.209 -22.485 -18.122  0.00  0.00    +0.021 C 
ATOM      5  C   UNL     1      36.572 -21.223 -18.900  0.00  0.00    +0.016 C 
ATOM      6  C   UNL     1      34.249 -21.751 -19.308  0.00  0.00    +0.016 C 
ENDROOT
BRANCH   1   7
ATOM      7  S   UNL     1      35.297 -23.507 -15.842  0.00  0.00    +0.075 S 
ATOM      8  O   UNL     1      34.846 -22.627 -14.770  0.00  0.00    -0.150 OA
ATOM      9  O   UNL     1      34.569 -24.741 -16.111  0.00  0.00    -0.150 OA
BRANCH   7  11
ATOM     10  S   UNL     1      38.605 -24.662 -13.521  0.00  0.00    -0.050 S 
ATOM     11  N   UNL     1      36.964 -23.855 -15.607  0.00  0.00    -0.194 N 
ATOM     12  N   UNL     1      36.538 -25.926 -14.423  0.00  0.00    -0.221 NA
ATOM     13  C   UNL     1      37.274 -24.860 -14.567  0.00  0.00    +0.179 C 
ATOM     14  C   UNL     1      38.184 -26.148 -12.775  0.00  0.00    +0.059 C 
ATOM     15  C   UNL     1      37.064 -26.672 -13.386  0.00  0.00    +0.108 C 
ATOM     16  H   UNL     1      37.669 -23.413 -16.134  0.00  0.00    +0.176 HD
ENDBRANCH   7  11
ENDBRANCH   1   7
BRANCH   2  17
ATOM     17  N   UNL     1      35.474 -20.380 -20.896  0.00  0.00    -0.311 N 
ATOM     18  H   UNL     1      35.660 -20.897 -21.712  0.00  0.00    +0.152 HD
BRANCH  17  25
ATOM     19  O   UNL     1      34.833 -20.298 -23.723  0.00  0.00    -0.270 OA
ATOM     20  N   UNL     1      34.442 -18.069 -24.401  0.00  0.00    -0.280 N 
ATOM     21  C   UNL     1      34.771 -16.974 -22.405  0.00  0.00    +0.019 C 
ATOM     22  C   UNL     1      34.970 -18.405 -22.199  0.00  0.00    +0.069 C 
ATOM     23  C   UNL     1      34.453 -16.826 -23.759  0.00  0.00    +0.051 C 
ATOM     24  C   UNL     1      34.752 -19.103 -23.511  0.00  0.00    +0.251 C 
ATOM     25  C   UNL     1      35.291 -19.046 -21.074  0.00  0.00    +0.066 C 
ATOM     26  C   UNL     1      34.841 -15.874 -21.572  0.00  0.00    +0.001 C 
ATOM     27  C   UNL     1      34.195 -15.594 -24.327  0.00  0.00    +0.015 C 
ATOM     28  C   UNL     1      34.582 -14.616 -22.127  0.00  0.00    +0.000 C 
ATOM     29  C   UNL     1      34.262 -14.478 -23.490  0.00  0.00    +0.001 C 
ATOM     30  H   UNL     1      34.243 -18.200 -25.355  0.00  0.00    +0.155 HD
ENDBRANCH  17  25
ENDBRANCH   2  17
TORSDOF 4
ENDMDL
MODEL 9
REMARK VINA RESULT:     -10.7      2.823      9.870
REMARK  Name = 5288711
REMARK  4 active torsions:
REMARK  status: ('A' for Active; 'I' for Inactive)
REMARK    1  A    between atoms: C_1  and  S_7
REMARK    2  A    between atoms: C_2  and  N_17
REMARK    3  A    between atoms: S_7  and  N_11
REMARK    4  A    between atoms: N_17  and  C_25
REMARK                            x       y       z     vdW  Elec       q    Type
REMARK                         _______ _______ _______ _____ _____    ______ ____
ROOT
ATOM      1  C   UNL     1      35.267 -20.064 -20.600  0.00  0.00    +0.125 C 
ATOM      2  C   UNL     1      33.611 -21.799 -19.164  0.00  0.00    +0.048 C 
ATOM      3  C   UNL     1      33.881 -19.932 -20.681  0.00  0.00    +0.021 C 
ATOM      4  C   UNL     1      35.827 -21.061 -19.802  0.00  0.00    +0.021 C 
ATOM      5  C   UNL     1      33.055 -20.797 -19.965  0.00  0.00    +0.016 C 
ATOM      6  C   UNL     1      35.001 -21.927 -19.085  0.00  0.00    +0.016 C 
ENDROOT
BRANCH   1   7
ATOM      7  S   UNL     1      36.303 -18.981 -21.497  0.00  0.00    +0.075 S 
ATOM      8  O   UNL     1      37.529 -18.779 -20.736  0.00  0.00    -0.150 OA
ATOM      9  O   UNL     1      36.381 -19.476 -22.865  0.00  0.00    -0.150 OA
BRANCH   7  11
ATOM     10  S   UNL     1      34.866 -15.393 -23.149  0.00  0.00    -0.050 S 
ATOM     11  N   UNL     1      35.381 -17.530 -21.456  0.00  0.00    -0.194 N 
ATOM     12  N   UNL     1      34.407 -17.888 -23.646  0.00  0.00    -0.221 NA
ATOM     13  C   UNL     1      34.870 -17.052 -22.759  0.00  0.00    +0.179 C 
ATOM     14  C   UNL     1      34.176 -15.795 -24.667  0.00  0.00    +0.059 C 
ATOM     15  C   UNL     1      34.005 -17.161 -24.750  0.00  0.00    +0.108 C 
ATOM     16  H   UNL     1      35.204 -17.048 -20.616  0.00  0.00    +0.176 HD
ENDBRANCH   7  11
ENDBRANCH   1   7
BRANCH   2  17
ATOM     17  N   UNL     1      32.778 -22.670 -18.443  0.00  0.00    -0.311 N 
ATOM     18  H   UNL     1      31.910 -22.873 -18.860  0.00  0.00    +0.152 HD
BRANCH  17  25
ATOM     19  O   UNL     1      30.167 -22.437 -17.205  0.00  0.00    -0.270 OA
ATOM     20  N   UNL     1      30.204 -23.404 -15.049  0.00  0.00    -0.280 N 
ATOM     21  C   UNL     1      32.393 -24.102 -14.954  0.00  0.00    +0.019 C 
ATOM     22  C   UNL     1      32.155 -23.460 -16.243  0.00  0.00    +0.069 C 
ATOM     23  C   UNL     1      31.176 -24.041 -14.270  0.00  0.00    +0.051 C 
ATOM     24  C   UNL     1      30.723 -23.011 -16.287  0.00  0.00    +0.251 C 
ATOM     25  C   UNL     1      33.012 -23.270 -17.248  0.00  0.00    +0.066 C 
ATOM     26  C   UNL     1      33.500 -24.690 -14.374  0.00  0.00    +0.001 C 
ATOM     27  C   UNL     1      31.016 -24.556 -12.999  0.00  0.00    +0.015 C 
ATOM     28  C   UNL     1      33.361 -25.219 -13.086  0.00  0.00    +0.000 C 
ATOM     29  C   UNL     1      32.131 -25.153 -12.406  0.00  0.00    +0.001 C 
ATOM     30  H   UNL     1      29.274 -23.252 -14.764  0.00  0.00    +0.155 HD
ENDBRANCH  17  25
ENDBRANCH   2  17
TORSDOF 4
ENDMDL
