MODEL 1
REMARK VINA RESULT:     -11.1      0.000      0.000
REMARK  Name = 10125830
REMARK  4 active torsions:
REMARK  status: ('A' for Active; 'I' for Inactive)
REMARK    1  A    between atoms: C_6  and  C_19
REMARK    2  A    between atoms: C_11  and  C_14
REMARK    3  A    between atoms: C_22  and  O_25
REMARK    4  A    between atoms: C_24  and  O_27
REMARK                            x       y       z     vdW  Elec       q    Type
REMARK                         _______ _______ _______ _____ _____    ______ ____
ROOT
ATOM      1  O   UNL     1      37.390 -22.781 -16.160  0.00  0.00    -0.270 OA
ATOM      2  N   UNL     1      37.075 -21.463 -18.096  0.00  0.00    -0.280 N 
ATOM      3  C   UNL     1      34.825 -21.786 -18.443  0.00  0.00    +0.018 C 
ATOM      4  C   UNL     1      35.981 -21.154 -18.911  0.00  0.00    +0.051 C 
ATOM      5  C   UNL     1      35.234 -22.535 -17.260  0.00  0.00    +0.056 C 
ATOM      6  C   UNL     1      34.764 -20.176 -20.697  0.00  0.00    +0.001 C 
ATOM      7  C   UNL     1      35.981 -20.346 -20.031  0.00  0.00    +0.015 C 
ATOM      8  C   UNL     1      33.618 -21.623 -19.097  0.00  0.00    +0.001 C 
ATOM      9  C   UNL     1      36.703 -22.313 -17.048  0.00  0.00    +0.250 C 
ATOM     10  C   UNL     1      33.595 -20.808 -20.234  0.00  0.00    +0.000 C 
ATOM     11  C   UNL     1      34.486 -23.298 -16.460  0.00  0.00    +0.019 C 
ATOM     12  H   UNL     1      37.988 -21.126 -18.240  0.00  0.00    +0.155 HD
ENDROOT
BRANCH  11  14
ATOM     13  N   UNL     1      34.952 -23.351 -14.126  0.00  0.00    -0.312 N 
ATOM     14  C   UNL     1      34.902 -24.035 -15.290  0.00  0.00    +0.049 C 
ATOM     15  C   UNL     1      35.267 -25.320 -15.103  0.00  0.00    +0.016 C 
ATOM     16  C   UNL     1      35.362 -24.214 -13.144  0.00  0.00    +0.062 C 
ATOM     17  C   UNL     1      35.566 -25.446 -13.723  0.00  0.00    +0.017 C 
ATOM     18  H   UNL     1      34.733 -22.398 -14.005  0.00  0.00    +0.152 HD
ENDBRANCH  11  14
BRANCH   6  19
ATOM     19  C   UNL     1      34.704 -19.340 -21.877  0.00  0.00    +0.003 C 
ATOM     20  C   UNL     1      35.097 -18.004 -21.804  0.00  0.00    +0.040 C 
ATOM     21  C   UNL     1      34.254 -19.871 -23.084  0.00  0.00    +0.003 C 
ATOM     22  C   UNL     1      35.040 -17.198 -22.941  0.00  0.00    +0.172 C 
ATOM     23  C   UNL     1      34.197 -19.065 -24.222  0.00  0.00    +0.040 C 
ATOM     24  C   UNL     1      34.590 -17.729 -24.150  0.00  0.00    +0.168 C 
BRANCH  22  25
ATOM     25  O   UNL     1      35.426 -15.894 -22.859  0.00  0.00    -0.468 OA
ATOM     26  C   UNL     1      34.465 -14.963 -22.365  0.00  0.00    +0.253 C 
ENDBRANCH  22  25
BRANCH  24  27
ATOM     27  O   UNL     1      34.530 -16.952 -25.268  0.00  0.00    -0.503 OA
ATOM     28  H   UNL     1      34.679 -17.332 -26.110  0.00  0.00    +0.292 HD
ENDBRANCH  24  27
ENDBRANCH   6  19
TORSDOF 4
ENDMDL
MODEL 2
REMARK VINA RESULT:     -10.5      2.600      9.239
REMARK  Name = 10125830
REMARK  4 active torsions:
REMARK  status: ('A' for Active; 'I' for Inactive)
REMARK    1  A    between atoms: C_6  and  C_19
REMARK    2  A    between atoms: C_11  and  C_14
REMARK    3  A    between atoms: C_22  and  O_25
REMARK    4  A    between atoms: C_24  and  O_27
REMARK                            x       y       z     vdW  Elec       q    Type
REMARK                         _______ _______ _______ _____ _____    ______ ____
ROOT
ATOM      1  O   UNL     1      32.616 -20.436 -21.092  0.00  0.00    -0.270 OA
ATOM      2  N   UNL     1      33.023 -21.651 -19.107  0.00  0.00    -0.280 N 
ATOM      3  C   UNL     1      35.306 -21.425 -18.954  0.00  0.00    +0.018 C 
ATOM      4  C   UNL     1      34.163 -21.969 -18.361  0.00  0.00    +0.051 C 
ATOM      5  C   UNL     1      34.840 -20.726 -20.147  0.00  0.00    +0.056 C 
ATOM      6  C   UNL     1      35.472 -22.902 -16.616  0.00  0.00    +0.001 C 
ATOM      7  C   UNL     1      34.215 -22.708 -17.195  0.00  0.00    +0.015 C 
ATOM      8  C   UNL     1      36.553 -21.613 -18.387  0.00  0.00    +0.001 C 
ATOM      9  C   UNL     1      33.349 -20.883 -20.229  0.00  0.00    +0.250 C 
ATOM     10  C   UNL     1      36.629 -22.359 -17.207  0.00  0.00    +0.000 C 
ATOM     11  C   UNL     1      35.555 -20.045 -21.044  0.00  0.00    +0.019 C 
ATOM     12  H   UNL     1      32.109 -21.931 -18.871  0.00  0.00    +0.155 HD
ENDROOT
BRANCH  11  14
ATOM     13  N   UNL     1      35.090 -18.005 -22.180  0.00  0.00    -0.312 N 
ATOM     14  C   UNL     1      35.081 -19.355 -22.221  0.00  0.00    +0.049 C 
ATOM     15  C   UNL     1      34.612 -19.792 -23.408  0.00  0.00    +0.016 C 
ATOM     16  C   UNL     1      34.612 -17.541 -23.378  0.00  0.00    +0.062 C 
ATOM     17  C   UNL     1      34.305 -18.631 -24.160  0.00  0.00    +0.017 C 
ATOM     18  H   UNL     1      35.388 -17.450 -21.423  0.00  0.00    +0.152 HD
ENDBRANCH  11  14
BRANCH   6  19
ATOM     19  C   UNL     1      35.587 -23.669 -15.395  0.00  0.00    +0.003 C 
ATOM     20  C   UNL     1      34.455 -23.919 -14.620  0.00  0.00    +0.040 C 
ATOM     21  C   UNL     1      36.829 -24.158 -14.994  0.00  0.00    +0.003 C 
ATOM     22  C   UNL     1      34.565 -24.659 -13.443  0.00  0.00    +0.172 C 
ATOM     23  C   UNL     1      36.940 -24.899 -13.817  0.00  0.00    +0.040 C 
ATOM     24  C   UNL     1      35.808 -25.150 -13.042  0.00  0.00    +0.168 C 
BRANCH  22  25
ATOM     25  O   UNL     1      33.453 -24.896 -12.693  0.00  0.00    -0.468 OA
ATOM     26  C   UNL     1      32.210 -24.986 -13.387  0.00  0.00    +0.253 C 
ENDBRANCH  22  25
BRANCH  24  27
ATOM     27  O   UNL     1      35.929 -25.874 -11.894  0.00  0.00    -0.503 OA
ATOM     28  H   UNL     1      35.512 -26.710 -11.822  0.00  0.00    +0.292 HD
ENDBRANCH  24  27
ENDBRANCH   6  19
TORSDOF 4
ENDMDL
MODEL 3
REMARK VINA RESULT:     -10.5      2.490      9.262
REMARK  Name = 10125830
REMARK  4 active torsions:
REMARK  status: ('A' for Active; 'I' for Inactive)
REMARK    1  A    between atoms: C_6  and  C_19
REMARK    2  A    between atoms: C_11  and  C_14
REMARK    3  A    between atoms: C_22  and  O_25
REMARK    4  A    between atoms: C_24  and  O_27
REMARK                            x       y       z     vdW  Elec       q    Type
REMARK                         _______ _______ _______ _____ _____    ______ ____
ROOT
ATOM      1  O   UNL     1      32.650 -20.507 -21.093  0.00  0.00    -0.270 OA
ATOM      2  N   UNL     1      33.097 -21.710 -19.109  0.00  0.00    -0.280 N 
ATOM      3  C   UNL     1      35.374 -21.420 -18.964  0.00  0.00    +0.018 C 
ATOM      4  C   UNL     1      34.248 -21.995 -18.367  0.00  0.00    +0.051 C 
ATOM      5  C   UNL     1      34.884 -20.734 -20.155  0.00  0.00    +0.056 C 
ATOM      6  C   UNL     1      35.588 -22.891 -16.626  0.00  0.00    +0.001 C 
ATOM      7  C   UNL     1      34.325 -22.733 -17.202  0.00  0.00    +0.015 C 
ATOM      8  C   UNL     1      36.627 -21.572 -18.400  0.00  0.00    +0.001 C 
ATOM      9  C   UNL     1      33.398 -20.933 -20.233  0.00  0.00    +0.250 C 
ATOM     10  C   UNL     1      36.728 -22.316 -17.220  0.00  0.00    +0.000 C 
ATOM     11  C   UNL     1      35.577 -20.033 -21.054  0.00  0.00    +0.019 C 
ATOM     12  H   UNL     1      32.193 -22.016 -18.871  0.00  0.00    +0.155 HD
ENDROOT
BRANCH  11  14
ATOM     13  N   UNL     1      35.092 -18.006 -22.205  0.00  0.00    -0.312 N 
ATOM     14  C   UNL     1      35.081 -19.357 -22.229  0.00  0.00    +0.049 C 
ATOM     15  C   UNL     1      34.587 -19.808 -23.401  0.00  0.00    +0.016 C 
ATOM     16  C   UNL     1      34.590 -17.556 -23.399  0.00  0.00    +0.062 C 
ATOM     17  C   UNL     1      34.267 -18.656 -24.162  0.00  0.00    +0.017 C 
ATOM     18  H   UNL     1      35.404 -17.443 -21.460  0.00  0.00    +0.152 HD
ENDBRANCH  11  14
BRANCH   6  19
ATOM     19  C   UNL     1      35.729 -23.655 -15.405  0.00  0.00    +0.003 C 
ATOM     20  C   UNL     1      36.988 -23.827 -14.833  0.00  0.00    +0.040 C 
ATOM     21  C   UNL     1      34.605 -24.218 -14.802  0.00  0.00    +0.003 C 
ATOM     22  C   UNL     1      37.125 -24.562 -13.656  0.00  0.00    +0.172 C 
ATOM     23  C   UNL     1      34.740 -24.953 -13.624  0.00  0.00    +0.040 C 
ATOM     24  C   UNL     1      36.000 -25.125 -13.051  0.00  0.00    +0.168 C 
BRANCH  22  25
ATOM     25  O   UNL     1      38.360 -24.724 -13.105  0.00  0.00    -0.468 OA
ATOM     26  C   UNL     1      39.227 -25.672 -13.725  0.00  0.00    +0.253 C 
ENDBRANCH  22  25
BRANCH  24  27
ATOM     27  O   UNL     1      36.120 -25.845 -11.901  0.00  0.00    -0.503 OA
ATOM     28  H   UNL     1      35.772 -25.508 -11.099  0.00  0.00    +0.292 HD
ENDBRANCH  24  27
ENDBRANCH   6  19
TORSDOF 4
ENDMDL
MODEL 4
REMARK VINA RESULT:      -9.6      7.812     13.773
REMARK  Name = 10125830
REMARK  4 active torsions:
REMARK  status: ('A' for Active; 'I' for Inactive)
REMARK    1  A    between atoms: C_6  and  C_19
REMARK    2  A    between atoms: C_11  and  C_14
REMARK    3  A    between atoms: C_22  and  O_25
REMARK    4  A    between atoms: C_24  and  O_27
REMARK                            x       y       z     vdW  Elec       q    Type
REMARK                         _______ _______ _______ _____ _____    ______ ____
ROOT
ATOM      1  O   UNL     1      34.148  -6.036 -23.453  0.00  0.00    -0.270 OA
ATOM      2  N   UNL     1      34.506  -8.356 -23.718  0.00  0.00    -0.280 N 
ATOM      3  C   UNL     1      32.549  -9.172 -22.831  0.00  0.00    +0.018 C 
ATOM      4  C   UNL     1      33.771  -9.508 -23.419  0.00  0.00    +0.051 C 
ATOM      5  C   UNL     1      32.529  -7.715 -22.762  0.00  0.00    +0.056 C 
ATOM      6  C   UNL     1      33.248 -11.817 -23.269  0.00  0.00    +0.001 C 
ATOM      7  C   UNL     1      34.146 -10.817 -23.650  0.00  0.00    +0.015 C 
ATOM      8  C   UNL     1      31.655 -10.156 -22.450  0.00  0.00    +0.001 C 
ATOM      9  C   UNL     1      33.812  -7.200 -23.345  0.00  0.00    +0.250 C 
ATOM     10  C   UNL     1      32.014 -11.489 -22.675  0.00  0.00    +0.000 C 
ATOM     11  C   UNL     1      31.571  -6.919 -22.282  0.00  0.00    +0.019 C 
ATOM     12  H   UNL     1      35.397  -8.358 -24.138  0.00  0.00    +0.155 HD
ENDROOT
BRANCH  11  14
ATOM     13  N   UNL     1      31.135  -4.822 -23.322  0.00  0.00    -0.312 N 
ATOM     14  C   UNL     1      31.562  -5.476 -22.220  0.00  0.00    +0.049 C 
ATOM     15  C   UNL     1      31.904  -4.602 -21.251  0.00  0.00    +0.016 C 
ATOM     16  C   UNL     1      31.197  -3.477 -23.068  0.00  0.00    +0.062 C 
ATOM     17  C   UNL     1      31.674  -3.311 -21.787  0.00  0.00    +0.017 C 
ATOM     18  H   UNL     1      30.832  -5.239 -24.161  0.00  0.00    +0.152 HD
ENDBRANCH  11  14
BRANCH   6  19
ATOM     19  C   UNL     1      33.588 -13.206 -23.486  0.00  0.00    +0.003 C 
ATOM     20  C   UNL     1      34.124 -13.963 -22.444  0.00  0.00    +0.040 C 
ATOM     21  C   UNL     1      33.380 -13.788 -24.736  0.00  0.00    +0.003 C 
ATOM     22  C   UNL     1      34.452 -15.303 -22.653  0.00  0.00    +0.172 C 
ATOM     23  C   UNL     1      33.706 -15.128 -24.944  0.00  0.00    +0.040 C 
ATOM     24  C   UNL     1      34.242 -15.885 -23.903  0.00  0.00    +0.168 C 
BRANCH  22  25
ATOM     25  O   UNL     1      34.975 -16.032 -21.628  0.00  0.00    -0.468 OA
ATOM     26  C   UNL     1      34.598 -15.656 -20.306  0.00  0.00    +0.253 C 
ENDBRANCH  22  25
BRANCH  24  27
ATOM     27  O   UNL     1      34.557 -17.193 -24.119  0.00  0.00    -0.503 OA
ATOM     28  H   UNL     1      33.954 -17.752 -24.568  0.00  0.00    +0.292 HD
ENDBRANCH  24  27
ENDBRANCH   6  19
TORSDOF 4
ENDMDL
MODEL 5
REMARK VINA RESULT:      -9.5      0.741      1.766
REMARK  Name = 10125830
REMARK  4 active torsions:
REMARK  status: ('A' for Active; 'I' for Inactive)
REMARK    1  A    between atoms: C_6  and  C_19
REMARK    2  A    between atoms: C_11  and  C_14
REMARK    3  A    between atoms: C_22  and  O_25
REMARK    4  A    between atoms: C_24  and  O_27
REMARK                            x       y       z     vdW  Elec       q    Type
REMARK                         _______ _______ _______ _____ _____    ______ ____
ROOT
ATOM      1  O   UNL     1      37.440 -22.860 -16.047  0.00  0.00    -0.270 OA
ATOM      2  N   UNL     1      37.144 -21.518 -17.969  0.00  0.00    -0.280 N 
ATOM      3  C   UNL     1      34.899 -21.840 -18.346  0.00  0.00    +0.018 C 
ATOM      4  C   UNL     1      36.059 -21.200 -18.793  0.00  0.00    +0.051 C 
ATOM      5  C   UNL     1      35.296 -22.604 -17.168  0.00  0.00    +0.056 C 
ATOM      6  C   UNL     1      34.861 -20.201 -20.579  0.00  0.00    +0.001 C 
ATOM      7  C   UNL     1      36.070 -20.377 -19.902  0.00  0.00    +0.015 C 
ATOM      8  C   UNL     1      33.699 -21.670 -19.011  0.00  0.00    +0.001 C 
ATOM      9  C   UNL     1      36.762 -22.381 -16.937  0.00  0.00    +0.250 C 
ATOM     10  C   UNL     1      33.687 -20.841 -20.138  0.00  0.00    +0.000 C 
ATOM     11  C   UNL     1      34.541 -23.378 -16.387  0.00  0.00    +0.019 C 
ATOM     12  H   UNL     1      38.059 -21.177 -18.098  0.00  0.00    +0.155 HD
ENDROOT
BRANCH  11  14
ATOM     13  N   UNL     1      34.940 -23.471 -14.041  0.00  0.00    -0.312 N 
ATOM     14  C   UNL     1      34.945 -24.129 -15.222  0.00  0.00    +0.049 C 
ATOM     15  C   UNL     1      35.343 -25.407 -15.052  0.00  0.00    +0.016 C 
ATOM     16  C   UNL     1      35.348 -24.345 -13.067  0.00  0.00    +0.062 C 
ATOM     17  C   UNL     1      35.606 -25.556 -13.668  0.00  0.00    +0.017 C 
ATOM     18  H   UNL     1      34.689 -22.529 -13.905  0.00  0.00    +0.152 HD
ENDBRANCH  11  14
BRANCH   6  19
ATOM     19  C   UNL     1      34.812 -19.350 -21.749  0.00  0.00    +0.003 C 
ATOM     20  C   UNL     1      34.165 -19.789 -22.903  0.00  0.00    +0.040 C 
ATOM     21  C   UNL     1      35.413 -18.092 -21.721  0.00  0.00    +0.003 C 
ATOM     22  C   UNL     1      34.117 -18.970 -24.030  0.00  0.00    +0.172 C 
ATOM     23  C   UNL     1      35.364 -17.271 -22.847  0.00  0.00    +0.040 C 
ATOM     24  C   UNL     1      34.717 -17.710 -24.002  0.00  0.00    +0.168 C 
BRANCH  22  25
ATOM     25  O   UNL     1      33.483 -19.409 -25.153  0.00  0.00    -0.468 OA
ATOM     26  C   UNL     1      32.058 -19.354 -25.155  0.00  0.00    +0.253 C 
ENDBRANCH  22  25
BRANCH  24  27
ATOM     27  O   UNL     1      34.677 -16.900 -25.097  0.00  0.00    -0.503 OA
ATOM     28  H   UNL     1      35.145 -16.089 -25.096  0.00  0.00    +0.292 HD
ENDBRANCH  24  27
ENDBRANCH   6  19
TORSDOF 4
ENDMDL
MODEL 6
REMARK VINA RESULT:      -9.4      1.878      2.844
REMARK  Name = 10125830
REMARK  4 active torsions:
REMARK  status: ('A' for Active; 'I' for Inactive)
REMARK    1  A    between atoms: C_6  and  C_19
REMARK    2  A    between atoms: C_11  and  C_14
REMARK    3  A    between atoms: C_22  and  O_25
REMARK    4  A    between atoms: C_24  and  O_27
REMARK                            x       y       z     vdW  Elec       q    Type
REMARK                         _______ _______ _______ _____ _____    ______ ____
ROOT
ATOM      1  O   UNL     1      38.241 -23.737 -14.294  0.00  0.00    -0.270 OA
ATOM      2  N   UNL     1      37.657 -22.555 -16.254  0.00  0.00    -0.280 N 
ATOM      3  C   UNL     1      35.437 -23.129 -16.427  0.00  0.00    +0.018 C 
ATOM      4  C   UNL     1      36.484 -22.402 -17.002  0.00  0.00    +0.051 C 
ATOM      5  C   UNL     1      36.002 -23.774 -15.247  0.00  0.00    +0.056 C 
ATOM      6  C   UNL     1      35.052 -21.644 -18.734  0.00  0.00    +0.001 C 
ATOM      7  C   UNL     1      36.321 -21.653 -18.150  0.00  0.00    +0.015 C 
ATOM      8  C   UNL     1      34.179 -23.126 -16.999  0.00  0.00    +0.001 C 
ATOM      9  C   UNL     1      37.450 -23.387 -15.150  0.00  0.00    +0.250 C 
ATOM     10  C   UNL     1      33.991 -22.373 -18.164  0.00  0.00    +0.000 C 
ATOM     11  C   UNL     1      35.397 -24.572 -14.366  0.00  0.00    +0.019 C 
ATOM     12  H   UNL     1      38.516 -22.130 -16.477  0.00  0.00    +0.155 HD
ENDROOT
BRANCH  11  14
ATOM     13  N   UNL     1      36.733 -26.298 -13.413  0.00  0.00    -0.312 N 
ATOM     14  C   UNL     1      35.968 -25.204 -13.200  0.00  0.00    +0.049 C 
ATOM     15  C   UNL     1      35.898 -24.922 -11.882  0.00  0.00    +0.016 C 
ATOM     16  C   UNL     1      37.180 -26.746 -12.197  0.00  0.00    +0.062 C 
ATOM     17  C   UNL     1      36.675 -25.910 -11.227  0.00  0.00    +0.017 C 
ATOM     18  H   UNL     1      36.933 -26.702 -14.288  0.00  0.00    +0.152 HD
ENDBRANCH  11  14
BRANCH   6  19
ATOM     19  C   UNL     1      34.823 -20.877 -19.939  0.00  0.00    +0.003 C 
ATOM     20  C   UNL     1      35.888 -20.233 -20.567  0.00  0.00    +0.040 C 
ATOM     21  C   UNL     1      33.538 -20.783 -20.472  0.00  0.00    +0.003 C 
ATOM     22  C   UNL     1      35.668 -19.493 -21.729  0.00  0.00    +0.172 C 
ATOM     23  C   UNL     1      33.317 -20.044 -21.634  0.00  0.00    +0.040 C 
ATOM     24  C   UNL     1      34.382 -19.399 -22.263  0.00  0.00    +0.168 C 
BRANCH  22  25
ATOM     25  O   UNL     1      36.716 -18.867 -22.334  0.00  0.00    -0.468 OA
ATOM     26  C   UNL     1      37.945 -18.817 -21.614  0.00  0.00    +0.253 C 
ENDBRANCH  22  25
BRANCH  24  27
ATOM     27  O   UNL     1      34.154 -18.681 -23.398  0.00  0.00    -0.503 OA
ATOM     28  H   UNL     1      33.677 -17.876 -23.354  0.00  0.00    +0.292 HD
ENDBRANCH  24  27
ENDBRANCH   6  19
TORSDOF 4
ENDMDL
MODEL 7
REMARK VINA RESULT:      -9.3      6.112     11.660
REMARK  Name = 10125830
REMARK  4 active torsions:
REMARK  status: ('A' for Active; 'I' for Inactive)
REMARK    1  A    between atoms: C_6  and  C_19
REMARK    2  A    between atoms: C_11  and  C_14
REMARK    3  A    between atoms: C_22  and  O_25
REMARK    4  A    between atoms: C_24  and  O_27
REMARK                            x       y       z     vdW  Elec       q    Type
REMARK                         _______ _______ _______ _____ _____    ______ ____
ROOT
ATOM      1  O   UNL     1      31.207  -9.837 -20.420  0.00  0.00    -0.270 OA
ATOM      2  N   UNL     1      31.937 -12.051 -20.804  0.00  0.00    -0.280 N 
ATOM      3  C   UNL     1      33.148 -11.751 -22.735  0.00  0.00    +0.018 C 
ATOM      4  C   UNL     1      32.716 -12.678 -21.782  0.00  0.00    +0.051 C 
ATOM      5  C   UNL     1      32.596 -10.466 -22.317  0.00  0.00    +0.056 C 
ATOM      6  C   UNL     1      33.845 -14.425 -22.922  0.00  0.00    +0.001 C 
ATOM      7  C   UNL     1      33.049 -14.017 -21.849  0.00  0.00    +0.015 C 
ATOM      8  C   UNL     1      33.935 -12.148 -23.799  0.00  0.00    +0.001 C 
ATOM      9  C   UNL     1      31.810 -10.681 -21.056  0.00  0.00    +0.250 C 
ATOM     10  C   UNL     1      34.284 -13.499 -23.887  0.00  0.00    +0.000 C 
ATOM     11  C   UNL     1      32.731  -9.274 -22.901  0.00  0.00    +0.019 C 
ATOM     12  H   UNL     1      31.530 -12.515 -20.036  0.00  0.00    +0.155 HD
ENDROOT
BRANCH  11  14
ATOM     13  N   UNL     1      32.837  -7.359 -21.491  0.00  0.00    -0.312 N 
ATOM     14  C   UNL     1      32.180  -8.009 -22.477  0.00  0.00    +0.049 C 
ATOM     15  C   UNL     1      31.101  -7.303 -22.875  0.00  0.00    +0.016 C 
ATOM     16  C   UNL     1      32.168  -6.190 -21.234  0.00  0.00    +0.062 C 
ATOM     17  C   UNL     1      31.084  -6.130 -22.079  0.00  0.00    +0.017 C 
ATOM     18  H   UNL     1      33.653  -7.671 -21.036  0.00  0.00    +0.152 HD
ENDBRANCH  11  14
BRANCH   6  19
ATOM     19  C   UNL     1      34.224 -15.816 -23.044  0.00  0.00    +0.003 C 
ATOM     20  C   UNL     1      34.841 -16.466 -21.975  0.00  0.00    +0.040 C 
ATOM     21  C   UNL     1      33.972 -16.506 -24.229  0.00  0.00    +0.003 C 
ATOM     22  C   UNL     1      35.206 -17.807 -22.092  0.00  0.00    +0.172 C 
ATOM     23  C   UNL     1      34.336 -17.848 -24.345  0.00  0.00    +0.040 C 
ATOM     24  C   UNL     1      34.953 -18.498 -23.277  0.00  0.00    +0.168 C 
BRANCH  22  25
ATOM     25  O   UNL     1      35.808 -18.432 -21.042  0.00  0.00    -0.468 OA
ATOM     26  C   UNL     1      37.188 -18.762 -21.188  0.00  0.00    +0.253 C 
ENDBRANCH  22  25
BRANCH  24  27
ATOM     27  O   UNL     1      35.305 -19.808 -23.403  0.00  0.00    -0.503 OA
ATOM     28  H   UNL     1      35.829 -20.084 -24.128  0.00  0.00    +0.292 HD
ENDBRANCH  24  27
ENDBRANCH   6  19
TORSDOF 4
ENDMDL
MODEL 8
REMARK VINA RESULT:      -9.0      8.752     13.703
REMARK  Name = 10125830
REMARK  4 active torsions:
REMARK  status: ('A' for Active; 'I' for Inactive)
REMARK    1  A    between atoms: C_6  and  C_19
REMARK    2  A    between atoms: C_11  and  C_14
REMARK    3  A    between atoms: C_22  and  O_25
REMARK    4  A    between atoms: C_24  and  O_27
REMARK                            x       y       z     vdW  Elec       q    Type
REMARK                         _______ _______ _______ _____ _____    ______ ____
ROOT
ATOM      1  O   UNL     1      31.624 -12.953 -22.048  0.00  0.00    -0.270 OA
ATOM      2  N   UNL     1      31.249 -10.627 -21.868  0.00  0.00    -0.280 N 
ATOM      3  C   UNL     1      33.029  -9.834 -23.088  0.00  0.00    +0.018 C 
ATOM      4  C   UNL     1      31.902  -9.483 -22.340  0.00  0.00    +0.051 C 
ATOM      5  C   UNL     1      33.076 -11.292 -23.076  0.00  0.00    +0.056 C 
ATOM      6  C   UNL     1      32.336  -7.179 -22.703  0.00  0.00    +0.001 C 
ATOM      7  C   UNL     1      31.531  -8.169 -22.132  0.00  0.00    +0.015 C 
ATOM      8  C   UNL     1      33.831  -8.860 -23.655  0.00  0.00    +0.001 C 
ATOM      9  C   UNL     1      31.908 -11.791 -22.276  0.00  0.00    +0.250 C 
ATOM     10  C   UNL     1      33.474  -7.522 -23.457  0.00  0.00    +0.000 C 
ATOM     11  C   UNL     1      33.967 -12.100 -23.654  0.00  0.00    +0.019 C 
ATOM     12  H   UNL     1      30.432 -10.614 -21.320  0.00  0.00    +0.155 HD
ENDROOT
BRANCH  11  14
ATOM     13  N   UNL     1      34.570 -14.124 -22.555  0.00  0.00    -0.312 N 
ATOM     14  C   UNL     1      34.002 -13.543 -23.635  0.00  0.00    +0.049 C 
ATOM     15  C   UNL     1      33.568 -14.479 -24.505  0.00  0.00    +0.016 C 
ATOM     16  C   UNL     1      34.505 -15.483 -22.721  0.00  0.00    +0.062 C 
ATOM     17  C   UNL     1      33.888 -15.732 -23.926  0.00  0.00    +0.017 C 
ATOM     18  H   UNL     1      34.962 -13.653 -21.784  0.00  0.00    +0.152 HD
ENDBRANCH  11  14
BRANCH   6  19
ATOM     19  C   UNL     1      31.997  -5.785 -22.517  0.00  0.00    +0.003 C 
ATOM     20  C   UNL     1      31.356  -5.083 -23.537  0.00  0.00    +0.040 C 
ATOM     21  C   UNL     1      32.311  -5.145 -21.319  0.00  0.00    +0.003 C 
ATOM     22  C   UNL     1      31.028  -3.739 -23.359  0.00  0.00    +0.172 C 
ATOM     23  C   UNL     1      31.983  -3.801 -21.140  0.00  0.00    +0.040 C 
ATOM     24  C   UNL     1      31.341  -3.098 -22.159  0.00  0.00    +0.168 C 
BRANCH  22  25
ATOM     25  O   UNL     1      30.402  -3.062 -24.362  0.00  0.00    -0.468 OA
ATOM     26  C   UNL     1      31.218  -2.582 -25.427  0.00  0.00    +0.253 C 
ENDBRANCH  22  25
BRANCH  24  27
ATOM     27  O   UNL     1      31.026  -1.786 -21.973  0.00  0.00    -0.503 OA
ATOM     28  H   UNL     1      30.734  -1.267 -22.696  0.00  0.00    +0.292 HD
ENDBRANCH  24  27
ENDBRANCH   6  19
TORSDOF 4
ENDMDL
MODEL 9
REMARK VINA RESULT:      -8.8      5.780      9.775
REMARK  Name = 10125830
REMARK  4 active torsions:
REMARK  status: ('A' for Active; 'I' for Inactive)
REMARK    1  A    between atoms: C_6  and  C_19
REMARK    2  A    between atoms: C_11  and  C_14
REMARK    3  A    between atoms: C_22  and  O_25
REMARK    4  A    between atoms: C_24  and  O_27
REMARK                            x       y       z     vdW  Elec       q    Type
REMARK                         _______ _______ _______ _____ _____    ______ ____
ROOT
ATOM      1  O   UNL     1      34.575 -16.372 -20.423  0.00  0.00    -0.270 OA
ATOM      2  N   UNL     1      33.768 -14.159 -20.600  0.00  0.00    -0.280 N 
ATOM      3  C   UNL     1      33.735 -13.921 -22.887  0.00  0.00    +0.018 C 
ATOM      4  C   UNL     1      33.478 -13.296 -21.663  0.00  0.00    +0.051 C 
ATOM      5  C   UNL     1      34.216 -15.258 -22.556  0.00  0.00    +0.056 C 
ATOM      6  C   UNL     1      32.781 -11.322 -22.778  0.00  0.00    +0.001 C 
ATOM      7  C   UNL     1      33.002 -12.003 -21.578  0.00  0.00    +0.015 C 
ATOM      8  C   UNL     1      33.519 -13.254 -24.078  0.00  0.00    +0.001 C 
ATOM      9  C   UNL     1      34.231 -15.395 -21.062  0.00  0.00    +0.250 C 
ATOM     10  C   UNL     1      33.037 -11.942 -24.016  0.00  0.00    +0.000 C 
ATOM     11  C   UNL     1      34.590 -16.235 -23.385  0.00  0.00    +0.019 C 
ATOM     12  H   UNL     1      33.660 -13.925 -19.650  0.00  0.00    +0.155 HD
ENDROOT
BRANCH  11  14
ATOM     13  N   UNL     1      36.212 -17.627 -22.336  0.00  0.00    -0.312 N 
ATOM     14  C   UNL     1      35.064 -17.556 -23.046  0.00  0.00    +0.049 C 
ATOM     15  C   UNL     1      34.583 -18.791 -23.296  0.00  0.00    +0.016 C 
ATOM     16  C   UNL     1      36.492 -18.950 -22.114  0.00  0.00    +0.062 C 
ATOM     17  C   UNL     1      35.496 -19.696 -22.701  0.00  0.00    +0.017 C 
ATOM     18  H   UNL     1      36.753 -16.862 -22.033  0.00  0.00    +0.152 HD
ENDBRANCH  11  14
BRANCH   6  19
ATOM     19  C   UNL     1      32.283  -9.964 -22.750  0.00  0.00    +0.003 C 
ATOM     20  C   UNL     1      32.225  -9.268 -21.543  0.00  0.00    +0.040 C 
ATOM     21  C   UNL     1      31.862  -9.352 -23.930  0.00  0.00    +0.003 C 
ATOM     22  C   UNL     1      31.746  -7.958 -21.516  0.00  0.00    +0.172 C 
ATOM     23  C   UNL     1      31.384  -8.042 -23.904  0.00  0.00    +0.040 C 
ATOM     24  C   UNL     1      31.326  -7.345 -22.697  0.00  0.00    +0.168 C 
BRANCH  22  25
ATOM     25  O   UNL     1      31.693  -7.288 -20.331  0.00  0.00    -0.468 OA
ATOM     26  C   UNL     1      32.930  -7.064 -19.657  0.00  0.00    +0.253 C 
ENDBRANCH  22  25
BRANCH  24  27
ATOM     27  O   UNL     1      30.856  -6.066 -22.683  0.00  0.00    -0.503 OA
ATOM     28  H   UNL     1      31.368  -5.376 -23.056  0.00  0.00    +0.292 HD
ENDBRANCH  24  27
ENDBRANCH   6  19
TORSDOF 4
ENDMDL
