MODEL 1
REMARK VINA RESULT:     -12.4      0.000      0.000
REMARK  Name = 3488
REMARK  8 active torsions:
REMARK  status: ('A' for Active; 'I' for Inactive)
REMARK    1  A    between atoms: C_1  and  S_7
REMARK    2  A    between atoms: C_2  and  C_22
REMARK    3  A    between atoms: S_7  and  N_12
REMARK    4  A    between atoms: N_11  and  C_16
REMARK    5  A    between atoms: C_22  and  C_23
REMARK    6  A    between atoms: C_23  and  N_25
REMARK    7  A    between atoms: C_26  and  C_29
REMARK    8  A    between atoms: C_30  and  O_35
REMARK                            x       y       z     vdW  Elec       q    Type
REMARK                         _______ _______ _______ _____ _____    ______ ____
ROOT
ATOM      1  C   UNL     1      34.355 -22.175 -18.607  0.00  0.00    +0.125 C 
ATOM      2  C   UNL     1      35.618 -20.366 -20.279  0.00  0.00    -0.020 C 
ATOM      3  C   UNL     1      33.596 -21.429 -19.491  0.00  0.00    +0.020 C 
ATOM      4  C   UNL     1      35.730 -22.039 -18.538  0.00  0.00    +0.020 C 
ATOM      5  C   UNL     1      34.233 -20.517 -20.334  0.00  0.00    -0.003 C 
ATOM      6  C   UNL     1      36.368 -21.128 -19.381  0.00  0.00    -0.003 C 
ENDROOT
BRANCH   1   7
ATOM      7  S   UNL     1      33.548 -23.330 -17.539  0.00  0.00    +0.077 S 
ATOM      8  O   UNL     1      33.492 -24.610 -18.219  0.00  0.00    -0.150 OA
ATOM      9  O   UNL     1      32.334 -22.691 -17.070  0.00  0.00    -0.150 OA
BRANCH   7  12
ATOM     10  O   UNL     1      33.474 -24.829 -14.819  0.00  0.00    -0.251 OA
ATOM     11  N   UNL     1      35.559 -24.058 -14.183  0.00  0.00    -0.289 N 
ATOM     12  N   UNL     1      34.670 -23.424 -16.251  0.00  0.00    -0.169 N 
ATOM     13  C   UNL     1      34.484 -24.168 -15.044  0.00  0.00    +0.319 C 
ATOM     14  H   UNL     1      36.325 -23.502 -14.455  0.00  0.00    +0.151 HD
ATOM     15  H   UNL     1      35.513 -22.924 -16.350  0.00  0.00    +0.178 HD
BRANCH  11  16
ATOM     16  C   UNL     1      35.610 -24.723 -12.900  0.00  0.00    +0.073 C 
ATOM     17  C   UNL     1      35.809 -23.714 -11.764  0.00  0.00    +0.020 C 
ATOM     18  C   UNL     1      36.698 -25.801 -12.881  0.00  0.00    +0.020 C 
ATOM     19  C   UNL     1      37.219 -23.126 -11.744  0.00  0.00    +0.002 C 
ATOM     20  C   UNL     1      38.108 -25.210 -12.859  0.00  0.00    +0.002 C 
ATOM     21  C   UNL     1      38.285 -24.218 -11.714  0.00  0.00    +0.000 C 
ENDBRANCH  11  16
ENDBRANCH   7  12
ENDBRANCH   1   7
BRANCH   2  22
ATOM     22  C   UNL     1      36.299 -19.391 -21.179  0.00  0.00    +0.048 C 
BRANCH  22  23
ATOM     23  C   UNL     1      35.574 -19.179 -22.514  0.00  0.00    +0.094 C 
BRANCH  23  25
ATOM     24  O   UNL     1      34.151 -18.111 -24.766  0.00  0.00    -0.270 OA
ATOM     25  N   UNL     1      35.189 -17.809 -22.714  0.00  0.00    -0.300 N 
ATOM     26  C   UNL     1      34.498 -17.381 -23.842  0.00  0.00    +0.249 C 
ATOM     27  H   UNL     1      35.424 -17.145 -22.025  0.00  0.00    +0.150 HD
BRANCH  26  29
ATOM     28 CL   UNL     1      32.832 -13.396 -26.661  0.00  0.00    -0.082 Cl
ATOM     29  C   UNL     1      34.198 -15.927 -23.912  0.00  0.00    +0.088 C 
ATOM     30  C   UNL     1      34.401 -15.130 -22.804  0.00  0.00    +0.143 C 
ATOM     31  C   UNL     1      33.719 -15.420 -25.104  0.00  0.00    +0.019 C 
ATOM     32  C   UNL     1      34.114 -13.768 -22.890  0.00  0.00    +0.038 C 
ATOM     33  C   UNL     1      33.430 -14.058 -25.189  0.00  0.00    +0.058 C 
ATOM     34  C   UNL     1      33.629 -13.232 -24.083  0.00  0.00    +0.015 C 
BRANCH  30  35
ATOM     35  O   UNL     1      34.874 -15.635 -21.629  0.00  0.00    -0.471 OA
ATOM     36  C   UNL     1      34.378 -15.050 -20.428  0.00  0.00    +0.252 C 
ENDBRANCH  30  35
ENDBRANCH  26  29
ENDBRANCH  23  25
ENDBRANCH  22  23
ENDBRANCH   2  22
TORSDOF 8
ENDMDL
MODEL 2
REMARK VINA RESULT:     -12.0      0.876      1.840
REMARK  Name = 3488
REMARK  8 active torsions:
REMARK  status: ('A' for Active; 'I' for Inactive)
REMARK    1  A    between atoms: C_1  and  S_7
REMARK    2  A    between atoms: C_2  and  C_22
REMARK    3  A    between atoms: S_7  and  N_12
REMARK    4  A    between atoms: N_11  and  C_16
REMARK    5  A    between atoms: C_22  and  C_23
REMARK    6  A    between atoms: C_23  and  N_25
REMARK    7  A    between atoms: C_26  and  C_29
REMARK    8  A    between atoms: C_30  and  O_35
REMARK                            x       y       z     vdW  Elec       q    Type
REMARK                         _______ _______ _______ _____ _____    ______ ____
ROOT
ATOM      1  C   UNL     1      34.205 -22.201 -18.673  0.00  0.00    +0.125 C 
ATOM      2  C   UNL     1      35.443 -20.470 -20.444  0.00  0.00    -0.020 C 
ATOM      3  C   UNL     1      33.426 -21.406 -19.496  0.00  0.00    +0.020 C 
ATOM      4  C   UNL     1      35.587 -22.151 -18.713  0.00  0.00    +0.020 C 
ATOM      5  C   UNL     1      34.050 -20.534 -20.389  0.00  0.00    -0.003 C 
ATOM      6  C   UNL     1      36.212 -21.280 -19.606  0.00  0.00    -0.003 C 
ENDROOT
BRANCH   1   7
ATOM      7  S   UNL     1      33.414 -23.306 -17.541  0.00  0.00    +0.077 S 
ATOM      8  O   UNL     1      33.425 -24.633 -18.126  0.00  0.00    -0.150 OA
ATOM      9  O   UNL     1      32.164 -22.684 -17.152  0.00  0.00    -0.150 OA
BRANCH   7  12
ATOM     10  O   UNL     1      33.449 -24.796 -14.816  0.00  0.00    -0.251 OA
ATOM     11  N   UNL     1      35.406 -23.776 -14.129  0.00  0.00    -0.289 N 
ATOM     12  N   UNL     1      34.503 -23.259 -16.224  0.00  0.00    -0.169 N 
ATOM     13  C   UNL     1      34.376 -24.018 -15.018  0.00  0.00    +0.319 C 
ATOM     14  H   UNL     1      36.105 -23.131 -14.383  0.00  0.00    +0.151 HD
ATOM     15  H   UNL     1      35.281 -22.661 -16.303  0.00  0.00    +0.178 HD
BRANCH  11  16
ATOM     16  C   UNL     1      35.503 -24.428 -12.841  0.00  0.00    +0.073 C 
ATOM     17  C   UNL     1      36.038 -23.464 -11.776  0.00  0.00    +0.020 C 
ATOM     18  C   UNL     1      36.361 -25.693 -12.927  0.00  0.00    +0.020 C 
ATOM     19  C   UNL     1      37.524 -23.157 -11.960  0.00  0.00    +0.002 C 
ATOM     20  C   UNL     1      37.847 -25.382 -13.109  0.00  0.00    +0.002 C 
ATOM     21  C   UNL     1      38.359 -24.432 -12.031  0.00  0.00    +0.000 C 
ENDBRANCH  11  16
ENDBRANCH   7  12
ENDBRANCH   1   7
BRANCH   2  22
ATOM     22  C   UNL     1      36.110 -19.537 -21.397  0.00  0.00    +0.048 C 
BRANCH  22  23
ATOM     23  C   UNL     1      36.064 -18.069 -20.953  0.00  0.00    +0.094 C 
BRANCH  23  25
ATOM     24  O   UNL     1      34.655 -15.601 -20.549  0.00  0.00    -0.270 OA
ATOM     25  N   UNL     1      35.535 -17.207 -21.974  0.00  0.00    -0.300 N 
ATOM     26  C   UNL     1      34.863 -16.025 -21.683  0.00  0.00    +0.249 C 
ATOM     27  H   UNL     1      35.651 -17.463 -22.918  0.00  0.00    +0.150 HD
BRANCH  26  29
ATOM     28 CL   UNL     1      33.093 -11.547 -23.533  0.00  0.00    -0.082 Cl
ATOM     29  C   UNL     1      34.353 -15.259 -22.850  0.00  0.00    +0.088 C 
ATOM     30  C   UNL     1      34.235 -15.877 -24.078  0.00  0.00    +0.143 C 
ATOM     31  C   UNL     1      34.010 -13.936 -22.657  0.00  0.00    +0.019 C 
ATOM     32  C   UNL     1      33.754 -15.142 -25.160  0.00  0.00    +0.038 C 
ATOM     33  C   UNL     1      33.530 -13.200 -23.741  0.00  0.00    +0.058 C 
ATOM     34  C   UNL     1      33.400 -13.803 -24.992  0.00  0.00    +0.015 C 
BRANCH  30  35
ATOM     35  O   UNL     1      34.574 -17.185 -24.263  0.00  0.00    -0.471 OA
ATOM     36  C   UNL     1      33.553 -18.057 -24.742  0.00  0.00    +0.252 C 
ENDBRANCH  30  35
ENDBRANCH  26  29
ENDBRANCH  23  25
ENDBRANCH  22  23
ENDBRANCH   2  22
TORSDOF 8
ENDMDL
MODEL 3
REMARK VINA RESULT:     -11.6      6.653     10.485
REMARK  Name = 3488
REMARK  8 active torsions:
REMARK  status: ('A' for Active; 'I' for Inactive)
REMARK    1  A    between atoms: C_1  and  S_7
REMARK    2  A    between atoms: C_2  and  C_22
REMARK    3  A    between atoms: S_7  and  N_12
REMARK    4  A    between atoms: N_11  and  C_16
REMARK    5  A    between atoms: C_22  and  C_23
REMARK    6  A    between atoms: C_23  and  N_25
REMARK    7  A    between atoms: C_26  and  C_29
REMARK    8  A    between atoms: C_30  and  O_35
REMARK                            x       y       z     vdW  Elec       q    Type
REMARK                         _______ _______ _______ _____ _____    ______ ____
ROOT
ATOM      1  C   UNL     1      32.859 -12.961 -22.544  0.00  0.00    +0.125 C 
ATOM      2  C   UNL     1      31.696 -11.475 -20.519  0.00  0.00    -0.020 C 
ATOM      3  C   UNL     1      32.742 -13.515 -21.282  0.00  0.00    +0.020 C 
ATOM      4  C   UNL     1      32.408 -11.682 -22.819  0.00  0.00    +0.020 C 
ATOM      5  C   UNL     1      32.156 -12.766 -20.261  0.00  0.00    -0.003 C 
ATOM      6  C   UNL     1      31.821 -10.933 -21.799  0.00  0.00    -0.003 C 
ENDROOT
BRANCH   1   7
ATOM      7  S   UNL     1      33.602 -13.910 -23.838  0.00  0.00    +0.077 S 
ATOM      8  O   UNL     1      34.651 -13.109 -24.439  0.00  0.00    -0.150 OA
ATOM      9  O   UNL     1      32.520 -14.434 -24.648  0.00  0.00    -0.150 OA
BRANCH   7  12
ATOM     10  O   UNL     1      34.724 -16.678 -24.692  0.00  0.00    -0.251 OA
ATOM     11  N   UNL     1      35.301 -17.262 -22.530  0.00  0.00    -0.289 N 
ATOM     12  N   UNL     1      34.307 -15.186 -22.944  0.00  0.00    -0.169 N 
ATOM     13  C   UNL     1      34.781 -16.419 -23.493  0.00  0.00    +0.319 C 
ATOM     14  H   UNL     1      35.301 -16.963 -21.593  0.00  0.00    +0.151 HD
ATOM     15  H   UNL     1      34.395 -15.060 -21.971  0.00  0.00    +0.178 HD
BRANCH  11  16
ATOM     16  C   UNL     1      35.847 -18.566 -22.839  0.00  0.00    +0.073 C 
ATOM     17  C   UNL     1      34.772 -19.653 -22.731  0.00  0.00    +0.020 C 
ATOM     18  C   UNL     1      37.051 -18.884 -21.948  0.00  0.00    +0.020 C 
ATOM     19  C   UNL     1      34.373 -19.937 -21.283  0.00  0.00    +0.002 C 
ATOM     20  C   UNL     1      36.648 -19.171 -20.501  0.00  0.00    +0.002 C 
ATOM     21  C   UNL     1      35.587 -20.263 -20.418  0.00  0.00    +0.000 C 
ENDBRANCH  11  16
ENDBRANCH   7  12
ENDBRANCH   1   7
BRANCH   2  22
ATOM     22  C   UNL     1      31.070 -10.673 -19.428  0.00  0.00    +0.048 C 
BRANCH  22  23
ATOM     23  C   UNL     1      31.861  -9.411 -19.063  0.00  0.00    +0.094 C 
BRANCH  23  25
ATOM     24  O   UNL     1      33.339  -6.951 -19.110  0.00  0.00    -0.270 OA
ATOM     25  N   UNL     1      31.976  -8.500 -20.169  0.00  0.00    -0.300 N 
ATOM     26  C   UNL     1      32.717  -7.327 -20.101  0.00  0.00    +0.249 C 
ATOM     27  H   UNL     1      31.510  -8.715 -21.010  0.00  0.00    +0.150 HD
BRANCH  26  29
ATOM     28 CL   UNL     1      31.088  -3.019 -22.423  0.00  0.00    -0.082 Cl
ATOM     29  C   UNL     1      32.714  -6.479 -21.321  0.00  0.00    +0.088 C 
ATOM     30  C   UNL     1      33.420  -6.880 -22.437  0.00  0.00    +0.143 C 
ATOM     31  C   UNL     1      31.993  -5.302 -21.292  0.00  0.00    +0.019 C 
ATOM     32  C   UNL     1      33.405  -6.071 -23.573  0.00  0.00    +0.038 C 
ATOM     33  C   UNL     1      31.979  -4.492 -22.428  0.00  0.00    +0.058 C 
ATOM     34  C   UNL     1      32.684  -4.877 -23.568  0.00  0.00    +0.015 C 
BRANCH  30  35
ATOM     35  O   UNL     1      34.131  -8.043 -22.461  0.00  0.00    -0.471 OA
ATOM     36  C   UNL     1      35.105  -8.184 -23.493  0.00  0.00    +0.252 C 
ENDBRANCH  30  35
ENDBRANCH  26  29
ENDBRANCH  23  25
ENDBRANCH  22  23
ENDBRANCH   2  22
TORSDOF 8
ENDMDL
MODEL 4
REMARK VINA RESULT:     -11.5      3.535      4.756
REMARK  Name = 3488
REMARK  8 active torsions:
REMARK  status: ('A' for Active; 'I' for Inactive)
REMARK    1  A    between atoms: C_1  and  S_7
REMARK    2  A    between atoms: C_2  and  C_22
REMARK    3  A    between atoms: S_7  and  N_12
REMARK    4  A    between atoms: N_11  and  C_16
REMARK    5  A    between atoms: C_22  and  C_23
REMARK    6  A    between atoms: C_23  and  N_25
REMARK    7  A    between atoms: C_26  and  C_29
REMARK    8  A    between atoms: C_30  and  O_35
REMARK                            x       y       z     vdW  Elec       q    Type
REMARK                         _______ _______ _______ _____ _____    ______ ____
ROOT
ATOM      1  C   UNL     1      34.360 -21.758 -19.515  0.00  0.00    +0.125 C 
ATOM      2  C   UNL     1      34.751 -19.648 -21.265  0.00  0.00    -0.020 C 
ATOM      3  C   UNL     1      33.260 -21.090 -20.024  0.00  0.00    +0.020 C 
ATOM      4  C   UNL     1      35.651 -21.397 -19.859  0.00  0.00    +0.020 C 
ATOM      5  C   UNL     1      33.457 -20.027 -20.906  0.00  0.00    -0.003 C 
ATOM      6  C   UNL     1      35.849 -20.335 -20.742  0.00  0.00    -0.003 C 
ENDROOT
BRANCH   1   7
ATOM      7  S   UNL     1      34.110 -23.104 -18.396  0.00  0.00    +0.077 S 
ATOM      8  O   UNL     1      35.097 -23.001 -17.339  0.00  0.00    -0.150 OA
ATOM      9  O   UNL     1      34.017 -24.306 -19.201  0.00  0.00    -0.150 OA
BRANCH   7  12
ATOM     10  O   UNL     1      32.746 -23.769 -15.686  0.00  0.00    -0.251 OA
ATOM     11  N   UNL     1      30.793 -22.664 -16.244  0.00  0.00    -0.289 N 
ATOM     12  N   UNL     1      32.566 -22.725 -17.768  0.00  0.00    -0.169 N 
ATOM     13  C   UNL     1      32.078 -23.113 -16.480  0.00  0.00    +0.319 C 
ATOM     14  H   UNL     1      30.339 -22.144 -16.945  0.00  0.00    +0.151 HD
ATOM     15  H   UNL     1      31.963 -22.196 -18.340  0.00  0.00    +0.178 HD
BRANCH  11  16
ATOM     16  C   UNL     1      30.084 -22.924 -15.010  0.00  0.00    +0.073 C 
ATOM     17  C   UNL     1      30.348 -24.350 -14.513  0.00  0.00    +0.020 C 
ATOM     18  C   UNL     1      28.584 -22.661 -15.170  0.00  0.00    +0.020 C 
ATOM     19  C   UNL     1      29.654 -25.406 -15.373  0.00  0.00    +0.002 C 
ATOM     20  C   UNL     1      27.892 -23.720 -16.029  0.00  0.00    +0.002 C 
ATOM     21  C   UNL     1      28.159 -25.129 -15.508  0.00  0.00    +0.000 C 
ENDBRANCH  11  16
ENDBRANCH   7  12
ENDBRANCH   1   7
BRANCH   2  22
ATOM     22  C   UNL     1      34.963 -18.512 -22.207  0.00  0.00    +0.048 C 
BRANCH  22  23
ATOM     23  C   UNL     1      35.548 -17.262 -21.538  0.00  0.00    +0.094 C 
BRANCH  23  25
ATOM     24  O   UNL     1      34.262 -15.420 -19.752  0.00  0.00    -0.270 OA
ATOM     25  N   UNL     1      34.839 -16.065 -21.903  0.00  0.00    -0.300 N 
ATOM     26  C   UNL     1      34.245 -15.230 -20.965  0.00  0.00    +0.249 C 
ATOM     27  H   UNL     1      34.771 -15.828 -22.857  0.00  0.00    +0.150 HD
BRANCH  26  29
ATOM     28 CL   UNL     1      31.249 -11.137 -20.030  0.00  0.00    -0.082 Cl
ATOM     29  C   UNL     1      33.527 -14.047 -21.505  0.00  0.00    +0.088 C 
ATOM     30  C   UNL     1      33.580 -13.769 -22.855  0.00  0.00    +0.143 C 
ATOM     31  C   UNL     1      32.820 -13.257 -20.620  0.00  0.00    +0.019 C 
ATOM     32  C   UNL     1      32.899 -12.654 -23.343  0.00  0.00    +0.038 C 
ATOM     33  C   UNL     1      32.139 -12.142 -21.108  0.00  0.00    +0.058 C 
ATOM     34  C   UNL     1      32.178 -11.840 -22.469  0.00  0.00    +0.015 C 
BRANCH  30  35
ATOM     35  O   UNL     1      34.279 -14.551 -23.726  0.00  0.00    -0.471 OA
ATOM     36  C   UNL     1      33.602 -14.966 -24.910  0.00  0.00    +0.252 C 
ENDBRANCH  30  35
ENDBRANCH  26  29
ENDBRANCH  23  25
ENDBRANCH  22  23
ENDBRANCH   2  22
TORSDOF 8
ENDMDL
MODEL 5
REMARK VINA RESULT:     -11.5      2.916      4.663
REMARK  Name = 3488
REMARK  8 active torsions:
REMARK  status: ('A' for Active; 'I' for Inactive)
REMARK    1  A    between atoms: C_1  and  S_7
REMARK    2  A    between atoms: C_2  and  C_22
REMARK    3  A    between atoms: S_7  and  N_12
REMARK    4  A    between atoms: N_11  and  C_16
REMARK    5  A    between atoms: C_22  and  C_23
REMARK    6  A    between atoms: C_23  and  N_25
REMARK    7  A    between atoms: C_26  and  C_29
REMARK    8  A    between atoms: C_30  and  O_35
REMARK                            x       y       z     vdW  Elec       q    Type
REMARK                         _______ _______ _______ _____ _____    ______ ____
ROOT
ATOM      1  C   UNL     1      35.395 -22.526 -17.222  0.00  0.00    +0.125 C 
ATOM      2  C   UNL     1      35.710 -21.221 -19.644  0.00  0.00    -0.020 C 
ATOM      3  C   UNL     1      36.613 -21.941 -17.521  0.00  0.00    +0.020 C 
ATOM      4  C   UNL     1      34.331 -22.475 -18.105  0.00  0.00    +0.020 C 
ATOM      5  C   UNL     1      36.772 -21.283 -18.741  0.00  0.00    -0.003 C 
ATOM      6  C   UNL     1      34.489 -21.817 -19.325  0.00  0.00    -0.003 C 
ENDROOT
BRANCH   1   7
ATOM      7  S   UNL     1      35.194 -23.360 -15.676  0.00  0.00    +0.077 S 
ATOM      8  O   UNL     1      35.272 -22.371 -14.618  0.00  0.00    -0.150 OA
ATOM      9  O   UNL     1      36.096 -24.494 -15.691  0.00  0.00    -0.150 OA
BRANCH   7  12
ATOM     10  O   UNL     1      32.713 -23.023 -13.838  0.00  0.00    -0.251 OA
ATOM     11  N   UNL     1      31.341 -24.250 -15.238  0.00  0.00    -0.289 N 
ATOM     12  N   UNL     1      33.584 -23.917 -15.812  0.00  0.00    -0.169 N 
ATOM     13  C   UNL     1      32.541 -23.675 -14.864  0.00  0.00    +0.319 C 
ATOM     14  H   UNL     1      31.304 -24.756 -16.081  0.00  0.00    +0.151 HD
ATOM     15  H   UNL     1      33.356 -24.449 -16.610  0.00  0.00    +0.178 HD
BRANCH  11  16
ATOM     16  C   UNL     1      30.136 -24.140 -14.445  0.00  0.00    +0.073 C 
ATOM     17  C   UNL     1      29.176 -25.297 -14.740  0.00  0.00    +0.020 C 
ATOM     18  C   UNL     1      29.456 -22.785 -14.660  0.00  0.00    +0.020 C 
ATOM     19  C   UNL     1      28.524 -25.179 -16.118  0.00  0.00    +0.002 C 
ATOM     20  C   UNL     1      28.803 -22.670 -16.038  0.00  0.00    +0.002 C 
ATOM     21  C   UNL     1      27.843 -23.825 -16.305  0.00  0.00    +0.000 C 
ENDBRANCH  11  16
ENDBRANCH   7  12
ENDBRANCH   1   7
BRANCH   2  22
ATOM     22  C   UNL     1      35.880 -20.519 -20.948  0.00  0.00    +0.048 C 
BRANCH  22  23
ATOM     23  C   UNL     1      36.470 -19.110 -20.814  0.00  0.00    +0.094 C 
BRANCH  23  25
ATOM     24  O   UNL     1      35.000 -16.696 -20.314  0.00  0.00    -0.270 OA
ATOM     25  N   UNL     1      35.949 -18.203 -21.800  0.00  0.00    -0.300 N 
ATOM     26  C   UNL     1      35.246 -17.053 -21.463  0.00  0.00    +0.249 C 
ATOM     27  H   UNL     1      36.095 -18.405 -22.753  0.00  0.00    +0.150 HD
BRANCH  26  29
ATOM     28 CL   UNL     1      33.739 -12.430 -23.188  0.00  0.00    -0.082 Cl
ATOM     29  C   UNL     1      34.749 -16.234 -22.600  0.00  0.00    +0.088 C 
ATOM     30  C   UNL     1      34.539 -16.823 -23.830  0.00  0.00    +0.143 C 
ATOM     31  C   UNL     1      34.511 -14.892 -22.378  0.00  0.00    +0.019 C 
ATOM     32  C   UNL     1      34.073 -16.038 -24.884  0.00  0.00    +0.038 C 
ATOM     33  C   UNL     1      34.045 -14.107 -23.432  0.00  0.00    +0.058 C 
ATOM     34  C   UNL     1      33.825 -14.680 -24.685  0.00  0.00    +0.015 C 
BRANCH  30  35
ATOM     35  O   UNL     1      34.775 -18.149 -24.044  0.00  0.00    -0.471 OA
ATOM     36  C   UNL     1      33.662 -18.948 -24.437  0.00  0.00    +0.252 C 
ENDBRANCH  30  35
ENDBRANCH  26  29
ENDBRANCH  23  25
ENDBRANCH  22  23
ENDBRANCH   2  22
TORSDOF 8
ENDMDL
MODEL 6
REMARK VINA RESULT:     -11.3      3.933     11.544
REMARK  Name = 3488
REMARK  8 active torsions:
REMARK  status: ('A' for Active; 'I' for Inactive)
REMARK    1  A    between atoms: C_1  and  S_7
REMARK    2  A    between atoms: C_2  and  C_22
REMARK    3  A    between atoms: S_7  and  N_12
REMARK    4  A    between atoms: N_11  and  C_16
REMARK    5  A    between atoms: C_22  and  C_23
REMARK    6  A    between atoms: C_23  and  N_25
REMARK    7  A    between atoms: C_26  and  C_29
REMARK    8  A    between atoms: C_30  and  O_35
REMARK                            x       y       z     vdW  Elec       q    Type
REMARK                         _______ _______ _______ _____ _____    ______ ____
ROOT
ATOM      1  C   UNL     1      34.977 -20.373 -20.516  0.00  0.00    +0.125 C 
ATOM      2  C   UNL     1      34.115 -22.341 -18.769  0.00  0.00    -0.020 C 
ATOM      3  C   UNL     1      35.914 -21.136 -19.842  0.00  0.00    +0.020 C 
ATOM      4  C   UNL     1      33.618 -20.570 -20.338  0.00  0.00    +0.020 C 
ATOM      5  C   UNL     1      35.480 -22.128 -18.961  0.00  0.00    -0.003 C 
ATOM      6  C   UNL     1      33.184 -21.563 -19.458  0.00  0.00    -0.003 C 
ENDROOT
BRANCH   1   7
ATOM      7  S   UNL     1      35.527 -19.117 -21.632  0.00  0.00    +0.077 S 
ATOM      8  O   UNL     1      34.881 -19.337 -22.912  0.00  0.00    -0.150 OA
ATOM      9  O   UNL     1      36.972 -19.074 -21.534  0.00  0.00    -0.150 OA
BRANCH   7  12
ATOM     10  O   UNL     1      35.709 -16.104 -22.363  0.00  0.00    -0.251 OA
ATOM     11  N   UNL     1      34.401 -15.451 -20.572  0.00  0.00    -0.289 N 
ATOM     12  N   UNL     1      34.870 -17.719 -20.900  0.00  0.00    -0.169 N 
ATOM     13  C   UNL     1      35.049 -16.378 -21.365  0.00  0.00    +0.319 C 
ATOM     14  H   UNL     1      33.896 -15.771 -19.790  0.00  0.00    +0.151 HD
ATOM     15  H   UNL     1      34.322 -17.848 -20.091  0.00  0.00    +0.178 HD
BRANCH  11  16
ATOM     16  C   UNL     1      34.429 -14.030 -20.841  0.00  0.00    +0.073 C 
ATOM     17  C   UNL     1      33.297 -13.307 -20.103  0.00  0.00    +0.020 C 
ATOM     18  C   UNL     1      34.377 -13.752 -22.346  0.00  0.00    +0.020 C 
ATOM     19  C   UNL     1      31.924 -13.601 -20.708  0.00  0.00    +0.002 C 
ATOM     20  C   UNL     1      33.003 -14.045 -22.948  0.00  0.00    +0.002 C 
ATOM     21  C   UNL     1      31.894 -13.306 -22.205  0.00  0.00    +0.000 C 
ENDBRANCH  11  16
ENDBRANCH   7  12
ENDBRANCH   1   7
BRANCH   2  22
ATOM     22  C   UNL     1      33.650 -23.400 -17.827  0.00  0.00    +0.048 C 
BRANCH  22  23
ATOM     23  C   UNL     1      33.711 -22.979 -16.353  0.00  0.00    +0.094 C 
BRANCH  23  25
ATOM     24  O   UNL     1      36.389 -22.281 -15.591  0.00  0.00    -0.270 OA
ATOM     25  N   UNL     1      34.625 -23.787 -15.593  0.00  0.00    -0.300 N 
ATOM     26  C   UNL     1      35.909 -23.365 -15.269  0.00  0.00    +0.249 C 
ATOM     27  H   UNL     1      34.331 -24.677 -15.289  0.00  0.00    +0.150 HD
BRANCH  26  29
ATOM     28 CL   UNL     1      40.411 -25.837 -14.790  0.00  0.00    -0.082 Cl
ATOM     29  C   UNL     1      36.740 -24.328 -14.501  0.00  0.00    +0.088 C 
ATOM     30  C   UNL     1      36.226 -24.929 -13.371  0.00  0.00    +0.143 C 
ATOM     31  C   UNL     1      38.018 -24.589 -14.956  0.00  0.00    +0.019 C 
ATOM     32  C   UNL     1      37.022 -25.830 -12.664  0.00  0.00    +0.038 C 
ATOM     33  C   UNL     1      38.814 -25.489 -14.248  0.00  0.00    +0.058 C 
ATOM     34  C   UNL     1      38.316 -26.110 -13.103  0.00  0.00    +0.015 C 
BRANCH  30  35
ATOM     35  O   UNL     1      34.964 -24.668 -12.925  0.00  0.00    -0.471 OA
ATOM     36  C   UNL     1      34.841 -24.124 -11.613  0.00  0.00    +0.252 C 
ENDBRANCH  30  35
ENDBRANCH  26  29
ENDBRANCH  23  25
ENDBRANCH  22  23
ENDBRANCH   2  22
TORSDOF 8
ENDMDL
MODEL 7
REMARK VINA RESULT:     -11.2      3.147      5.084
REMARK  Name = 3488
REMARK  8 active torsions:
REMARK  status: ('A' for Active; 'I' for Inactive)
REMARK    1  A    between atoms: C_1  and  S_7
REMARK    2  A    between atoms: C_2  and  C_22
REMARK    3  A    between atoms: S_7  and  N_12
REMARK    4  A    between atoms: N_11  and  C_16
REMARK    5  A    between atoms: C_22  and  C_23
REMARK    6  A    between atoms: C_23  and  N_25
REMARK    7  A    between atoms: C_26  and  C_29
REMARK    8  A    between atoms: C_30  and  O_35
REMARK                            x       y       z     vdW  Elec       q    Type
REMARK                         _______ _______ _______ _____ _____    ______ ____
ROOT
ATOM      1  C   UNL     1      36.275 -23.724 -15.157  0.00  0.00    +0.125 C 
ATOM      2  C   UNL     1      36.476 -22.031 -17.339  0.00  0.00    -0.020 C 
ATOM      3  C   UNL     1      37.480 -23.093 -15.414  0.00  0.00    +0.020 C 
ATOM      4  C   UNL     1      35.168 -23.529 -15.964  0.00  0.00    +0.020 C 
ATOM      5  C   UNL     1      37.581 -22.240 -16.513  0.00  0.00    -0.003 C 
ATOM      6  C   UNL     1      35.268 -22.675 -17.063  0.00  0.00    -0.003 C 
ENDROOT
BRANCH   1   7
ATOM      7  S   UNL     1      36.147 -24.806 -13.764  0.00  0.00    +0.077 S 
ATOM      8  O   UNL     1      36.225 -24.001 -12.560  0.00  0.00    -0.150 OA
ATOM      9  O   UNL     1      37.084 -25.889 -13.987  0.00  0.00    -0.150 OA
BRANCH   7  12
ATOM     10  O   UNL     1      33.436 -23.877 -12.566  0.00  0.00    -0.251 OA
ATOM     11  N   UNL     1      32.236 -25.526 -13.655  0.00  0.00    -0.289 N 
ATOM     12  N   UNL     1      34.552 -25.392 -13.950  0.00  0.00    -0.169 N 
ATOM     13  C   UNL     1      33.390 -24.846 -13.318  0.00  0.00    +0.319 C 
ATOM     14  H   UNL     1      32.303 -26.294 -14.267  0.00  0.00    +0.151 HD
ATOM     15  H   UNL     1      34.423 -26.169 -14.542  0.00  0.00    +0.178 HD
BRANCH  11  16
ATOM     16  C   UNL     1      30.932 -25.161 -13.147  0.00  0.00    +0.073 C 
ATOM     17  C   UNL     1      29.817 -25.832 -13.957  0.00  0.00    +0.020 C 
ATOM     18  C   UNL     1      30.758 -23.639 -13.118  0.00  0.00    +0.020 C 
ATOM     19  C   UNL     1      29.667 -25.231 -15.354  0.00  0.00    +0.002 C 
ATOM     20  C   UNL     1      30.606 -23.041 -14.517  0.00  0.00    +0.002 C 
ATOM     21  C   UNL     1      29.484 -23.717 -15.300  0.00  0.00    +0.000 C 
ENDBRANCH  11  16
ENDBRANCH   7  12
ENDBRANCH   1   7
BRANCH   2  22
ATOM     22  C   UNL     1      36.583 -21.120 -18.514  0.00  0.00    +0.048 C 
BRANCH  22  23
ATOM     23  C   UNL     1      35.621 -21.476 -19.655  0.00  0.00    +0.094 C 
BRANCH  23  25
ATOM     24  O   UNL     1      37.253 -19.196 -20.270  0.00  0.00    -0.270 OA
ATOM     25  N   UNL     1      35.232 -20.323 -20.420  0.00  0.00    -0.300 N 
ATOM     26  C   UNL     1      36.093 -19.261 -20.669  0.00  0.00    +0.249 C 
ATOM     27  H   UNL     1      34.316 -20.282 -20.783  0.00  0.00    +0.150 HD
BRANCH  26  29
ATOM     28 CL   UNL     1      34.504 -14.354 -20.735  0.00  0.00    -0.082 Cl
ATOM     29  C   UNL     1      35.530 -18.131 -21.452  0.00  0.00    +0.088 C 
ATOM     30  C   UNL     1      35.241 -18.302 -22.790  0.00  0.00    +0.143 C 
ATOM     31  C   UNL     1      35.314 -16.933 -20.800  0.00  0.00    +0.019 C 
ATOM     32  C   UNL     1      34.713 -17.229 -23.509  0.00  0.00    +0.038 C 
ATOM     33  C   UNL     1      34.786 -15.861 -21.519  0.00  0.00    +0.058 C 
ATOM     34  C   UNL     1      34.485 -16.009 -22.873  0.00  0.00    +0.015 C 
BRANCH  30  35
ATOM     35  O   UNL     1      35.456 -19.486 -23.430  0.00  0.00    -0.471 OA
ATOM     36  C   UNL     1      34.432 -19.940 -24.312  0.00  0.00    +0.252 C 
ENDBRANCH  30  35
ENDBRANCH  26  29
ENDBRANCH  23  25
ENDBRANCH  22  23
ENDBRANCH   2  22
TORSDOF 8
ENDMDL
MODEL 8
REMARK VINA RESULT:     -11.1      6.481     10.469
REMARK  Name = 3488
REMARK  8 active torsions:
REMARK  status: ('A' for Active; 'I' for Inactive)
REMARK    1  A    between atoms: C_1  and  S_7
REMARK    2  A    between atoms: C_2  and  C_22
REMARK    3  A    between atoms: S_7  and  N_12
REMARK    4  A    between atoms: N_11  and  C_16
REMARK    5  A    between atoms: C_22  and  C_23
REMARK    6  A    between atoms: C_23  and  N_25
REMARK    7  A    between atoms: C_26  and  C_29
REMARK    8  A    between atoms: C_30  and  O_35
REMARK                            x       y       z     vdW  Elec       q    Type
REMARK                         _______ _______ _______ _____ _____    ______ ____
ROOT
ATOM      1  C   UNL     1      32.820 -12.826 -22.358  0.00  0.00    +0.125 C 
ATOM      2  C   UNL     1      31.661 -11.363 -20.314  0.00  0.00    -0.020 C 
ATOM      3  C   UNL     1      32.813 -13.346 -21.076  0.00  0.00    +0.020 C 
ATOM      4  C   UNL     1      32.261 -11.593 -22.644  0.00  0.00    +0.020 C 
ATOM      5  C   UNL     1      32.229 -12.608 -20.045  0.00  0.00    -0.003 C 
ATOM      6  C   UNL     1      31.676 -10.855 -21.614  0.00  0.00    -0.003 C 
ENDROOT
BRANCH   1   7
ATOM      7  S   UNL     1      33.560 -13.761 -23.664  0.00  0.00    +0.077 S 
ATOM      8  O   UNL     1      34.670 -12.993 -24.195  0.00  0.00    -0.150 OA
ATOM      9  O   UNL     1      32.483 -14.193 -24.533  0.00  0.00    -0.150 OA
BRANCH   7  12
ATOM     10  O   UNL     1      34.832 -16.434 -24.603  0.00  0.00    -0.251 OA
ATOM     11  N   UNL     1      35.133 -17.206 -22.445  0.00  0.00    -0.289 N 
ATOM     12  N   UNL     1      34.165 -15.107 -22.801  0.00  0.00    -0.169 N 
ATOM     13  C   UNL     1      34.728 -16.283 -23.390  0.00  0.00    +0.319 C 
ATOM     14  H   UNL     1      35.005 -16.992 -21.492  0.00  0.00    +0.151 HD
ATOM     15  H   UNL     1      34.123 -15.068 -21.818  0.00  0.00    +0.178 HD
BRANCH  11  16
ATOM     16  C   UNL     1      35.737 -18.473 -22.792  0.00  0.00    +0.073 C 
ATOM     17  C   UNL     1      34.708 -19.608 -22.735  0.00  0.00    +0.020 C 
ATOM     18  C   UNL     1      36.944 -18.772 -21.898  0.00  0.00    +0.020 C 
ATOM     19  C   UNL     1      34.306 -19.960 -21.304  0.00  0.00    +0.002 C 
ATOM     20  C   UNL     1      36.538 -19.127 -20.467  0.00  0.00    +0.002 C 
ATOM     21  C   UNL     1      35.524 -20.266 -20.435  0.00  0.00    +0.000 C 
ENDBRANCH  11  16
ENDBRANCH   7  12
ENDBRANCH   1   7
BRANCH   2  22
ATOM     22  C   UNL     1      31.037 -10.574 -19.213  0.00  0.00    +0.048 C 
BRANCH  22  23
ATOM     23  C   UNL     1      31.700  -9.209 -18.985  0.00  0.00    +0.094 C 
BRANCH  23  25
ATOM     24  O   UNL     1      33.427  -6.938 -19.297  0.00  0.00    -0.270 OA
ATOM     25  N   UNL     1      32.048  -8.559 -20.219  0.00  0.00    -0.300 N 
ATOM     26  C   UNL     1      32.896  -7.459 -20.274  0.00  0.00    +0.249 C 
ATOM     27  H   UNL     1      31.669  -8.905 -21.060  0.00  0.00    +0.150 HD
BRANCH  26  29
ATOM     28 CL   UNL     1      35.405  -7.763 -24.771  0.00  0.00    -0.082 Cl
ATOM     29  C   UNL     1      33.134  -6.885 -21.623  0.00  0.00    +0.088 C 
ATOM     30  C   UNL     1      32.455  -5.749 -22.015  0.00  0.00    +0.143 C 
ATOM     31  C   UNL     1      34.042  -7.520 -22.448  0.00  0.00    +0.019 C 
ATOM     32  C   UNL     1      32.693  -5.225 -23.286  0.00  0.00    +0.038 C 
ATOM     33  C   UNL     1      34.279  -6.995 -23.719  0.00  0.00    +0.058 C 
ATOM     34  C   UNL     1      33.606  -5.848 -24.138  0.00  0.00    +0.015 C 
BRANCH  30  35
ATOM     35  O   UNL     1      31.560  -5.126 -21.198  0.00  0.00    -0.471 OA
ATOM     36  C   UNL     1      31.327  -3.739 -21.432  0.00  0.00    +0.252 C 
ENDBRANCH  30  35
ENDBRANCH  26  29
ENDBRANCH  23  25
ENDBRANCH  22  23
ENDBRANCH   2  22
TORSDOF 8
ENDMDL
MODEL 9
REMARK VINA RESULT:     -11.1      4.136     11.539
REMARK  Name = 3488
REMARK  8 active torsions:
REMARK  status: ('A' for Active; 'I' for Inactive)
REMARK    1  A    between atoms: C_1  and  S_7
REMARK    2  A    between atoms: C_2  and  C_22
REMARK    3  A    between atoms: S_7  and  N_12
REMARK    4  A    between atoms: N_11  and  C_16
REMARK    5  A    between atoms: C_22  and  C_23
REMARK    6  A    between atoms: C_23  and  N_25
REMARK    7  A    between atoms: C_26  and  C_29
REMARK    8  A    between atoms: C_30  and  O_35
REMARK                            x       y       z     vdW  Elec       q    Type
REMARK                         _______ _______ _______ _____ _____    ______ ____
ROOT
ATOM      1  C   UNL     1      34.879 -20.446 -20.481  0.00  0.00    +0.125 C 
ATOM      2  C   UNL     1      33.923 -22.388 -18.755  0.00  0.00    -0.020 C 
ATOM      3  C   UNL     1      35.776 -21.290 -19.850  0.00  0.00    +0.020 C 
ATOM      4  C   UNL     1      33.515 -20.549 -20.270  0.00  0.00    +0.020 C 
ATOM      5  C   UNL     1      35.294 -22.269 -18.980  0.00  0.00    -0.003 C 
ATOM      6  C   UNL     1      33.032 -21.529 -19.401  0.00  0.00    -0.003 C 
ENDROOT
BRANCH   1   7
ATOM      7  S   UNL     1      35.489 -19.205 -21.583  0.00  0.00    +0.077 S 
ATOM      8  O   UNL     1      34.880 -19.418 -22.882  0.00  0.00    -0.150 OA
ATOM      9  O   UNL     1      36.931 -19.190 -21.439  0.00  0.00    -0.150 OA
BRANCH   7  12
ATOM     10  O   UNL     1      35.729 -16.201 -22.336  0.00  0.00    -0.251 OA
ATOM     11  N   UNL     1      34.393 -15.514 -20.579  0.00  0.00    -0.289 N 
ATOM     12  N   UNL     1      34.836 -17.791 -20.877  0.00  0.00    -0.169 N 
ATOM     13  C   UNL     1      35.045 -16.457 -21.350  0.00  0.00    +0.319 C 
ATOM     14  H   UNL     1      33.868 -15.820 -19.806  0.00  0.00    +0.151 HD
ATOM     15  H   UNL     1      34.269 -17.905 -20.080  0.00  0.00    +0.178 HD
BRANCH  11  16
ATOM     16  C   UNL     1      34.448 -14.096 -20.860  0.00  0.00    +0.073 C 
ATOM     17  C   UNL     1      33.329 -13.347 -20.127  0.00  0.00    +0.020 C 
ATOM     18  C   UNL     1      34.400 -13.830 -22.367  0.00  0.00    +0.020 C 
ATOM     19  C   UNL     1      31.951 -13.620 -20.729  0.00  0.00    +0.002 C 
ATOM     20  C   UNL     1      33.019 -14.102 -22.966  0.00  0.00    +0.002 C 
ATOM     21  C   UNL     1      31.925 -13.337 -22.229  0.00  0.00    +0.000 C 
ENDBRANCH  11  16
ENDBRANCH   7  12
ENDBRANCH   1   7
BRANCH   2  22
ATOM     22  C   UNL     1      33.407 -23.434 -17.825  0.00  0.00    +0.048 C 
BRANCH  22  23
ATOM     23  C   UNL     1      33.056 -22.896 -16.432  0.00  0.00    +0.094 C 
BRANCH  23  25
ATOM     24  O   UNL     1      33.114 -24.896 -14.374  0.00  0.00    -0.270 OA
ATOM     25  N   UNL     1      34.110 -23.117 -15.480  0.00  0.00    -0.300 N 
ATOM     26  C   UNL     1      34.052 -24.114 -14.514  0.00  0.00    +0.249 C 
ATOM     27  H   UNL     1      34.907 -22.538 -15.512  0.00  0.00    +0.150 HD
BRANCH  26  29
ATOM     28 CL   UNL     1      35.739 -24.550  -9.659  0.00  0.00    -0.082 Cl
ATOM     29  C   UNL     1      35.210 -24.196 -13.587  0.00  0.00    +0.088 C 
ATOM     30  C   UNL     1      36.494 -24.148 -14.088  0.00  0.00    +0.143 C 
ATOM     31  C   UNL     1      34.952 -24.318 -12.235  0.00  0.00    +0.019 C 
ATOM     32  C   UNL     1      37.568 -24.225 -13.201  0.00  0.00    +0.038 C 
ATOM     33  C   UNL     1      36.027 -24.397 -11.349  0.00  0.00    +0.058 C 
ATOM     34  C   UNL     1      37.334 -24.349 -11.832  0.00  0.00    +0.015 C 
BRANCH  30  35
ATOM     35  O   UNL     1      36.744 -24.027 -15.422  0.00  0.00    -0.471 OA
ATOM     36  C   UNL     1      37.542 -22.919 -15.833  0.00  0.00    +0.252 C 
ENDBRANCH  30  35
ENDBRANCH  26  29
ENDBRANCH  23  25
ENDBRANCH  22  23
ENDBRANCH   2  22
TORSDOF 8
ENDMDL
