MODEL 1
REMARK VINA RESULT:     -12.6      0.000      0.000
REMARK  Name = 9823454
REMARK  7 active torsions:
REMARK  status: ('A' for Active; 'I' for Inactive)
REMARK    1  A    between atoms: C_1  and  C_4
REMARK    2  A    between atoms: C_1  and  N_8
REMARK    3  A    between atoms: C_1  and  C_23
REMARK    4  A    between atoms: N_3  and  O_6
REMARK    5  A    between atoms: N_8  and  S_10
REMARK    6  A    between atoms: S_10  and  C_13
REMARK    7  A    between atoms: C_23  and  C_24
REMARK                            x       y       z     vdW  Elec       q    Type
REMARK                         _______ _______ _______ _____ _____    ______ ____
ROOT
ATOM      1  C   UNL     1      34.514 -24.375 -13.078  0.00  0.00    +0.158 C 
ENDROOT
BRANCH   1   4
ATOM      2  O   UNL     1      35.272 -24.407 -10.784  0.00  0.00    -0.272 OA
ATOM      3  N   UNL     1      36.197 -25.900 -12.282  0.00  0.00    -0.196 N 
ATOM      4  C   UNL     1      35.353 -24.880 -11.916  0.00  0.00    +0.260 C 
ATOM      5  H   UNL     1      36.227 -26.248 -13.203  0.00  0.00    +0.182 HD
BRANCH   3   6
ATOM      6  O   UNL     1      37.012 -26.414 -11.265  0.00  0.00    -0.295 OA
ATOM      7  H   UNL     1      36.456 -26.770 -10.554  0.00  0.00    +0.241 HD
ENDBRANCH   3   6
ENDBRANCH   1   4
BRANCH   1   8
ATOM      8  N   UNL     1      35.354 -23.364 -13.765  0.00  0.00    -0.172 NA
ATOM      9  H   UNL     1      34.725 -22.634 -14.097  0.00  0.00    +0.149 HD
BRANCH   8  10
ATOM     10  S   UNL     1      36.316 -23.822 -15.088  0.00  0.00    +0.061 S 
ATOM     11  O   UNL     1      36.288 -25.266 -15.228  0.00  0.00    -0.153 OA
ATOM     12  O   UNL     1      37.584 -23.122 -15.008  0.00  0.00    -0.153 OA
BRANCH  10  13
ATOM     13  C   UNL     1      35.426 -23.125 -16.445  0.00  0.00    +0.122 C 
ATOM     14  C   UNL     1      36.105 -22.357 -17.375  0.00  0.00    +0.020 C 
ATOM     15  C   UNL     1      35.412 -21.794 -18.460  0.00  0.00    +0.001 C 
ATOM     16  C   UNL     1      34.069 -23.359 -16.554  0.00  0.00    +0.020 C 
ATOM     17  C   UNL     1      34.021 -22.025 -18.586  0.00  0.00    +0.000 C 
ATOM     18  C   UNL     1      33.365 -22.809 -17.625  0.00  0.00    +0.001 C 
ATOM     19  C   UNL     1      36.069 -21.009 -19.421  0.00  0.00    +0.000 C 
ATOM     20  C   UNL     1      33.328 -21.462 -19.670  0.00  0.00    +0.000 C 
ATOM     21  C   UNL     1      35.364 -20.458 -20.493  0.00  0.00    +0.000 C 
ATOM     22  C   UNL     1      33.997 -20.685 -20.617  0.00  0.00    +0.000 C 
ENDBRANCH  10  13
ENDBRANCH   8  10
ENDBRANCH   1   8
BRANCH   1  23
ATOM     23  C   UNL     1      33.213 -23.722 -12.584  0.00  0.00    +0.053 C 
BRANCH  23  24
ATOM     24  C   UNL     1      32.020 -24.086 -13.402  0.00  0.00    -0.020 C 
ATOM     25  C   UNL     1      31.364 -23.110 -14.153  0.00  0.00    -0.004 C 
ATOM     26  C   UNL     1      30.239 -23.438 -14.928  0.00  0.00    -0.000 C 
ATOM     27  C   UNL     1      31.562 -25.400 -13.416  0.00  0.00    -0.004 C 
ATOM     28  C   UNL     1      29.774 -24.774 -14.942  0.00  0.00    -0.000 C 
ATOM     29  C   UNL     1      30.447 -25.743 -14.180  0.00  0.00    -0.000 C 
ATOM     30  C   UNL     1      29.567 -22.468 -15.689  0.00  0.00    -0.000 C 
ATOM     31  C   UNL     1      28.650 -25.102 -15.717  0.00  0.00    -0.000 C 
ATOM     32  C   UNL     1      28.452 -22.811 -16.454  0.00  0.00    -0.000 C 
ATOM     33  C   UNL     1      27.994 -24.125 -16.467  0.00  0.00    -0.000 C 
ENDBRANCH  23  24
ENDBRANCH   1  23
TORSDOF 7
ENDMDL
MODEL 2
REMARK VINA RESULT:     -12.3      1.517      6.087
REMARK  Name = 9823454
REMARK  7 active torsions:
REMARK  status: ('A' for Active; 'I' for Inactive)
REMARK    1  A    between atoms: C_1  and  C_4
REMARK    2  A    between atoms: C_1  and  N_8
REMARK    3  A    between atoms: C_1  and  C_23
REMARK    4  A    between atoms: N_3  and  O_6
REMARK    5  A    between atoms: N_8  and  S_10
REMARK    6  A    between atoms: S_10  and  C_13
REMARK    7  A    between atoms: C_23  and  C_24
REMARK                            x       y       z     vdW  Elec       q    Type
REMARK                         _______ _______ _______ _____ _____    ______ ____
ROOT
ATOM      1  C   UNL     1      35.868 -22.763 -15.159  0.00  0.00    +0.158 C 
ENDROOT
BRANCH   1   4
ATOM      2  O   UNL     1      37.540 -23.046 -13.437  0.00  0.00    -0.272 OA
ATOM      3  N   UNL     1      37.877 -24.045 -15.490  0.00  0.00    -0.196 N 
ATOM      4  C   UNL     1      37.173 -23.290 -14.585  0.00  0.00    +0.260 C 
ATOM      5  H   UNL     1      37.543 -24.215 -16.401  0.00  0.00    +0.182 HD
BRANCH   3   6
ATOM      6  O   UNL     1      39.100 -24.560 -15.038  0.00  0.00    -0.295 OA
ATOM      7  H   UNL     1      39.810 -23.933 -15.243  0.00  0.00    +0.241 HD
ENDBRANCH   3   6
ENDBRANCH   1   4
BRANCH   1   8
ATOM      8  N   UNL     1      34.867 -22.913 -14.076  0.00  0.00    -0.172 NA
ATOM      9  H   UNL     1      35.221 -22.395 -13.272  0.00  0.00    +0.149 HD
BRANCH   8  10
ATOM     10  S   UNL     1      34.452 -24.462 -13.517  0.00  0.00    +0.061 S 
ATOM     11  O   UNL     1      34.558 -24.498 -12.070  0.00  0.00    -0.153 OA
ATOM     12  O   UNL     1      35.144 -25.450 -14.323  0.00  0.00    -0.153 OA
BRANCH  10  13
ATOM     13  C   UNL     1      32.740 -24.557 -13.941  0.00  0.00    +0.122 C 
ATOM     14  C   UNL     1      32.227 -23.680 -14.882  0.00  0.00    +0.020 C 
ATOM     15  C   UNL     1      30.868 -23.742 -15.230  0.00  0.00    +0.001 C 
ATOM     16  C   UNL     1      31.944 -25.503 -13.327  0.00  0.00    +0.020 C 
ATOM     17  C   UNL     1      30.038 -24.706 -14.610  0.00  0.00    +0.000 C 
ATOM     18  C   UNL     1      30.591 -25.579 -13.661  0.00  0.00    +0.001 C 
ATOM     19  C   UNL     1      30.314 -22.867 -16.180  0.00  0.00    +0.000 C 
ATOM     20  C   UNL     1      28.678 -24.767 -14.957  0.00  0.00    +0.000 C 
ATOM     21  C   UNL     1      28.961 -22.943 -16.513  0.00  0.00    +0.000 C 
ATOM     22  C   UNL     1      28.146 -23.891 -15.903  0.00  0.00    +0.000 C 
ENDBRANCH  10  13
ENDBRANCH   8  10
ENDBRANCH   1   8
BRANCH   1  23
ATOM     23  C   UNL     1      35.432 -23.577 -16.388  0.00  0.00    +0.053 C 
BRANCH  23  24
ATOM     24  C   UNL     1      35.034 -22.728 -17.549  0.00  0.00    -0.020 C 
ATOM     25  C   UNL     1      35.990 -21.955 -18.208  0.00  0.00    -0.004 C 
ATOM     26  C   UNL     1      35.632 -21.151 -19.303  0.00  0.00    -0.000 C 
ATOM     27  C   UNL     1      33.710 -22.709 -17.974  0.00  0.00    -0.004 C 
ATOM     28  C   UNL     1      34.284 -21.132 -19.735  0.00  0.00    -0.000 C 
ATOM     29  C   UNL     1      33.336 -21.917 -19.060  0.00  0.00    -0.000 C 
ATOM     30  C   UNL     1      36.581 -20.366 -19.977  0.00  0.00    -0.000 C 
ATOM     31  C   UNL     1      33.925 -20.328 -20.829  0.00  0.00    -0.000 C 
ATOM     32  C   UNL     1      36.207 -19.573 -21.063  0.00  0.00    -0.000 C 
ATOM     33  C   UNL     1      34.882 -19.554 -21.487  0.00  0.00    -0.000 C 
ENDBRANCH  23  24
ENDBRANCH   1  23
TORSDOF 7
ENDMDL
MODEL 3
REMARK VINA RESULT:     -11.7      1.153      1.957
REMARK  Name = 9823454
REMARK  7 active torsions:
REMARK  status: ('A' for Active; 'I' for Inactive)
REMARK    1  A    between atoms: C_1  and  C_4
REMARK    2  A    between atoms: C_1  and  N_8
REMARK    3  A    between atoms: C_1  and  C_23
REMARK    4  A    between atoms: N_3  and  O_6
REMARK    5  A    between atoms: N_8  and  S_10
REMARK    6  A    between atoms: S_10  and  C_13
REMARK    7  A    between atoms: C_23  and  C_24
REMARK                            x       y       z     vdW  Elec       q    Type
REMARK                         _______ _______ _______ _____ _____    ______ ____
ROOT
ATOM      1  C   UNL     1      35.031 -25.261 -12.780  0.00  0.00    +0.158 C 
ENDROOT
BRANCH   1   4
ATOM      2  O   UNL     1      36.726 -26.167 -11.315  0.00  0.00    -0.272 OA
ATOM      3  N   UNL     1      35.573 -24.280 -10.651  0.00  0.00    -0.196 N 
ATOM      4  C   UNL     1      35.876 -25.301 -11.518  0.00  0.00    +0.260 C 
ATOM      5  H   UNL     1      34.884 -23.607 -10.856  0.00  0.00    +0.182 HD
BRANCH   3   6
ATOM      6  O   UNL     1      36.305 -24.254  -9.456  0.00  0.00    -0.295 OA
ATOM      7  H   UNL     1      35.819 -24.736  -8.769  0.00  0.00    +0.241 HD
ENDBRANCH   3   6
ENDBRANCH   1   4
BRANCH   1   8
ATOM      8  N   UNL     1      35.996 -25.228 -13.905  0.00  0.00    -0.172 NA
ATOM      9  H   UNL     1      36.549 -26.082 -13.845  0.00  0.00    +0.149 HD
BRANCH   8  10
ATOM     10  S   UNL     1      37.094 -23.940 -14.039  0.00  0.00    +0.061 S 
ATOM     11  O   UNL     1      38.434 -24.465 -14.221  0.00  0.00    -0.153 OA
ATOM     12  O   UNL     1      36.822 -22.983 -12.983  0.00  0.00    -0.153 OA
BRANCH  10  13
ATOM     13  C   UNL     1      36.593 -23.189 -15.557  0.00  0.00    +0.122 C 
ATOM     14  C   UNL     1      35.297 -23.374 -16.008  0.00  0.00    +0.020 C 
ATOM     15  C   UNL     1      34.882 -22.785 -17.213  0.00  0.00    +0.001 C 
ATOM     16  C   UNL     1      37.502 -22.430 -16.267  0.00  0.00    +0.020 C 
ATOM     17  C   UNL     1      35.802 -22.004 -17.954  0.00  0.00    +0.000 C 
ATOM     18  C   UNL     1      37.108 -21.836 -17.467  0.00  0.00    +0.001 C 
ATOM     19  C   UNL     1      33.576 -22.953 -17.700  0.00  0.00    +0.000 C 
ATOM     20  C   UNL     1      35.388 -21.415 -19.160  0.00  0.00    +0.000 C 
ATOM     21  C   UNL     1      33.181 -22.360 -18.900  0.00  0.00    +0.000 C 
ATOM     22  C   UNL     1      34.085 -21.592 -19.627  0.00  0.00    +0.000 C 
ENDBRANCH  10  13
ENDBRANCH   8  10
ENDBRANCH   1   8
BRANCH   1  23
ATOM     23  C   UNL     1      34.144 -24.005 -12.817  0.00  0.00    +0.053 C 
BRANCH  23  24
ATOM     24  C   UNL     1      32.786 -24.256 -13.380  0.00  0.00    -0.020 C 
ATOM     25  C   UNL     1      32.245 -23.376 -14.318  0.00  0.00    -0.004 C 
ATOM     26  C   UNL     1      30.968 -23.599 -14.857  0.00  0.00    -0.000 C 
ATOM     27  C   UNL     1      32.058 -25.368 -12.968  0.00  0.00    -0.004 C 
ATOM     28  C   UNL     1      30.228 -24.731 -14.438  0.00  0.00    -0.000 C 
ATOM     29  C   UNL     1      30.787 -25.605 -13.493  0.00  0.00    -0.000 C 
ATOM     30  C   UNL     1      30.409 -22.724 -15.802  0.00  0.00    -0.000 C 
ATOM     31  C   UNL     1      28.950 -24.953 -14.977  0.00  0.00    -0.000 C 
ATOM     32  C   UNL     1      29.138 -22.960 -16.328  0.00  0.00    -0.000 C 
ATOM     33  C   UNL     1      28.410 -24.072 -15.915  0.00  0.00    -0.000 C 
ENDBRANCH  23  24
ENDBRANCH   1  23
TORSDOF 7
ENDMDL
MODEL 4
REMARK VINA RESULT:     -11.2      1.965      3.251
REMARK  Name = 9823454
REMARK  7 active torsions:
REMARK  status: ('A' for Active; 'I' for Inactive)
REMARK    1  A    between atoms: C_1  and  C_4
REMARK    2  A    between atoms: C_1  and  N_8
REMARK    3  A    between atoms: C_1  and  C_23
REMARK    4  A    between atoms: N_3  and  O_6
REMARK    5  A    between atoms: N_8  and  S_10
REMARK    6  A    between atoms: S_10  and  C_13
REMARK    7  A    between atoms: C_23  and  C_24
REMARK                            x       y       z     vdW  Elec       q    Type
REMARK                         _______ _______ _______ _____ _____    ______ ____
ROOT
ATOM      1  C   UNL     1      34.461 -24.451 -15.577  0.00  0.00    +0.158 C 
ENDROOT
BRANCH   1   4
ATOM      2  O   UNL     1      36.546 -25.546 -15.030  0.00  0.00    -0.272 OA
ATOM      3  N   UNL     1      36.511 -23.245 -15.210  0.00  0.00    -0.196 N 
ATOM      4  C   UNL     1      35.944 -24.495 -15.246  0.00  0.00    +0.260 C 
ATOM      5  H   UNL     1      35.989 -22.429 -15.390  0.00  0.00    +0.182 HD
BRANCH   3   6
ATOM      6  O   UNL     1      37.877 -23.201 -14.901  0.00  0.00    -0.295 OA
ATOM      7  H   UNL     1      38.011 -22.665 -14.103  0.00  0.00    +0.241 HD
ENDBRANCH   3   6
ENDBRANCH   1   4
BRANCH   1   8
ATOM      8  N   UNL     1      34.249 -23.167 -16.287  0.00  0.00    -0.172 NA
ATOM      9  H   UNL     1      33.667 -22.588 -15.683  0.00  0.00    +0.149 HD
BRANCH   8  10
ATOM     10  S   UNL     1      33.523 -23.161 -17.822  0.00  0.00    +0.061 S 
ATOM     11  O   UNL     1      32.211 -22.549 -17.733  0.00  0.00    -0.153 OA
ATOM     12  O   UNL     1      33.677 -24.475 -18.417  0.00  0.00    -0.153 OA
BRANCH  10  13
ATOM     13  C   UNL     1      34.577 -22.062 -18.719  0.00  0.00    +0.122 C 
ATOM     14  C   UNL     1      34.038 -21.282 -19.728  0.00  0.00    +0.020 C 
ATOM     15  C   UNL     1      34.862 -20.404 -20.451  0.00  0.00    +0.001 C 
ATOM     16  C   UNL     1      35.918 -22.001 -18.397  0.00  0.00    +0.020 C 
ATOM     17  C   UNL     1      36.239 -20.329 -20.134  0.00  0.00    +0.000 C 
ATOM     18  C   UNL     1      36.751 -21.133 -19.104  0.00  0.00    +0.001 C 
ATOM     19  C   UNL     1      34.349 -19.599 -21.481  0.00  0.00    +0.000 C 
ATOM     20  C   UNL     1      37.063 -19.451 -20.857  0.00  0.00    +0.000 C 
ATOM     21  C   UNL     1      35.182 -18.732 -22.189  0.00  0.00    +0.000 C 
ATOM     22  C   UNL     1      36.536 -18.658 -21.877  0.00  0.00    +0.000 C 
ENDBRANCH  10  13
ENDBRANCH   8  10
ENDBRANCH   1   8
BRANCH   1  23
ATOM     23  C   UNL     1      33.605 -24.488 -14.300  0.00  0.00    +0.053 C 
BRANCH  23  24
ATOM     24  C   UNL     1      32.226 -23.955 -14.497  0.00  0.00    -0.020 C 
ATOM     25  C   UNL     1      31.328 -24.630 -15.325  0.00  0.00    -0.004 C 
ATOM     26  C   UNL     1      30.026 -24.141 -15.520  0.00  0.00    -0.000 C 
ATOM     27  C   UNL     1      31.835 -22.785 -13.853  0.00  0.00    -0.004 C 
ATOM     28  C   UNL     1      29.629 -22.951 -14.865  0.00  0.00    -0.000 C 
ATOM     29  C   UNL     1      30.545 -22.285 -14.036  0.00  0.00    -0.000 C 
ATOM     30  C   UNL     1      29.111 -24.808 -16.350  0.00  0.00    -0.000 C 
ATOM     31  C   UNL     1      28.327 -22.462 -15.060  0.00  0.00    -0.000 C 
ATOM     32  C   UNL     1      27.820 -24.308 -16.533  0.00  0.00    -0.000 C 
ATOM     33  C   UNL     1      27.430 -23.137 -15.890  0.00  0.00    -0.000 C 
ENDBRANCH  23  24
ENDBRANCH   1  23
TORSDOF 7
ENDMDL
MODEL 5
REMARK VINA RESULT:     -11.0      1.512      5.937
REMARK  Name = 9823454
REMARK  7 active torsions:
REMARK  status: ('A' for Active; 'I' for Inactive)
REMARK    1  A    between atoms: C_1  and  C_4
REMARK    2  A    between atoms: C_1  and  N_8
REMARK    3  A    between atoms: C_1  and  C_23
REMARK    4  A    between atoms: N_3  and  O_6
REMARK    5  A    between atoms: N_8  and  S_10
REMARK    6  A    between atoms: S_10  and  C_13
REMARK    7  A    between atoms: C_23  and  C_24
REMARK                            x       y       z     vdW  Elec       q    Type
REMARK                         _______ _______ _______ _____ _____    ______ ____
ROOT
ATOM      1  C   UNL     1      36.598 -23.336 -14.565  0.00  0.00    +0.158 C 
ENDROOT
BRANCH   1   4
ATOM      2  O   UNL     1      38.485 -24.154 -13.296  0.00  0.00    -0.272 OA
ATOM      3  N   UNL     1      37.728 -25.394 -15.091  0.00  0.00    -0.196 N 
ATOM      4  C   UNL     1      37.704 -24.323 -14.231  0.00  0.00    +0.260 C 
ATOM      5  H   UNL     1      37.082 -25.488 -15.828  0.00  0.00    +0.182 HD
BRANCH   3   6
ATOM      6  O   UNL     1      38.730 -26.346 -14.854  0.00  0.00    -0.295 OA
ATOM      7  H   UNL     1      38.521 -27.161 -15.337  0.00  0.00    +0.241 HD
ENDBRANCH   3   6
ENDBRANCH   1   4
BRANCH   1   8
ATOM      8  N   UNL     1      35.827 -23.162 -13.310  0.00  0.00    -0.172 NA
ATOM      9  H   UNL     1      36.498 -22.915 -12.584  0.00  0.00    +0.149 HD
BRANCH   8  10
ATOM     10  S   UNL     1      34.897 -24.447 -12.705  0.00  0.00    +0.061 S 
ATOM     11  O   UNL     1      34.757 -24.307 -11.268  0.00  0.00    -0.153 OA
ATOM     12  O   UNL     1      35.389 -25.688 -13.273  0.00  0.00    -0.153 OA
BRANCH  10  13
ATOM     13  C   UNL     1      33.321 -24.133 -13.439  0.00  0.00    +0.122 C 
ATOM     14  C   UNL     1      32.363 -25.134 -13.438  0.00  0.00    +0.020 C 
ATOM     15  C   UNL     1      31.106 -24.901 -14.018  0.00  0.00    +0.001 C 
ATOM     16  C   UNL     1      33.072 -22.896 -14.000  0.00  0.00    +0.020 C 
ATOM     17  C   UNL     1      30.834 -23.638 -14.598  0.00  0.00    +0.000 C 
ATOM     18  C   UNL     1      31.828 -22.647 -14.580  0.00  0.00    +0.001 C 
ATOM     19  C   UNL     1      30.112 -25.893 -14.036  0.00  0.00    +0.000 C 
ATOM     20  C   UNL     1      29.577 -23.405 -15.179  0.00  0.00    +0.000 C 
ATOM     21  C   UNL     1      28.868 -25.644 -14.617  0.00  0.00    +0.000 C 
ATOM     22  C   UNL     1      28.601 -24.403 -15.186  0.00  0.00    +0.000 C 
ENDBRANCH  10  13
ENDBRANCH   8  10
ENDBRANCH   1   8
BRANCH   1  23
ATOM     23  C   UNL     1      35.679 -23.882 -15.670  0.00  0.00    +0.053 C 
BRANCH  23  24
ATOM     24  C   UNL     1      35.593 -22.992 -16.863  0.00  0.00    -0.020 C 
ATOM     25  C   UNL     1      34.359 -22.750 -17.467  0.00  0.00    -0.004 C 
ATOM     26  C   UNL     1      34.262 -21.914 -18.591  0.00  0.00    -0.000 C 
ATOM     27  C   UNL     1      36.745 -22.402 -17.374  0.00  0.00    -0.004 C 
ATOM     28  C   UNL     1      35.435 -21.314 -19.110  0.00  0.00    -0.000 C 
ATOM     29  C   UNL     1      36.668 -21.568 -18.490  0.00  0.00    -0.000 C 
ATOM     30  C   UNL     1      33.028 -21.661 -19.211  0.00  0.00    -0.000 C 
ATOM     31  C   UNL     1      35.338 -20.478 -20.234  0.00  0.00    -0.000 C 
ATOM     32  C   UNL     1      32.950 -20.826 -20.328  0.00  0.00    -0.000 C 
ATOM     33  C   UNL     1      34.103 -20.238 -20.838  0.00  0.00    -0.000 C 
ENDBRANCH  23  24
ENDBRANCH   1  23
TORSDOF 7
ENDMDL
MODEL 6
REMARK VINA RESULT:     -10.4      8.430     11.690
REMARK  Name = 9823454
REMARK  7 active torsions:
REMARK  status: ('A' for Active; 'I' for Inactive)
REMARK    1  A    between atoms: C_1  and  C_4
REMARK    2  A    between atoms: C_1  and  N_8
REMARK    3  A    between atoms: C_1  and  C_23
REMARK    4  A    between atoms: N_3  and  O_6
REMARK    5  A    between atoms: N_8  and  S_10
REMARK    6  A    between atoms: S_10  and  C_13
REMARK    7  A    between atoms: C_23  and  C_24
REMARK                            x       y       z     vdW  Elec       q    Type
REMARK                         _______ _______ _______ _____ _____    ______ ____
ROOT
ATOM      1  C   UNL     1      34.531 -16.534 -22.863  0.00  0.00    +0.158 C 
ENDROOT
BRANCH   1   4
ATOM      2  O   UNL     1      34.229 -17.582 -25.020  0.00  0.00    -0.272 OA
ATOM      3  N   UNL     1      33.764 -15.331 -24.801  0.00  0.00    -0.196 N 
ATOM      4  C   UNL     1      34.162 -16.561 -24.337  0.00  0.00    +0.260 C 
ATOM      5  H   UNL     1      33.725 -14.539 -24.216  0.00  0.00    +0.182 HD
BRANCH   3   6
ATOM      6  O   UNL     1      33.416 -15.272 -26.157  0.00  0.00    -0.295 OA
ATOM      7  H   UNL     1      33.947 -14.590 -26.597  0.00  0.00    +0.241 HD
ENDBRANCH   3   6
ENDBRANCH   1   4
BRANCH   1   8
ATOM      8  N   UNL     1      34.590 -15.099 -22.493  0.00  0.00    -0.172 NA
ATOM      9  H   UNL     1      35.557 -14.802 -22.616  0.00  0.00    +0.149 HD
BRANCH   8  10
ATOM     10  S   UNL     1      34.117 -14.607 -20.938  0.00  0.00    +0.061 S 
ATOM     11  O   UNL     1      35.282 -14.156 -20.200  0.00  0.00    -0.153 OA
ATOM     12  O   UNL     1      33.242 -15.618 -20.375  0.00  0.00    -0.153 OA
BRANCH  10  13
ATOM     13  C   UNL     1      33.115 -13.196 -21.290  0.00  0.00    +0.122 C 
ATOM     14  C   UNL     1      33.503 -12.325 -22.295  0.00  0.00    +0.020 C 
ATOM     15  C   UNL     1      32.717 -11.198 -22.588  0.00  0.00    +0.001 C 
ATOM     16  C   UNL     1      31.964 -12.986 -20.557  0.00  0.00    +0.020 C 
ATOM     17  C   UNL     1      31.534 -10.968 -21.846  0.00  0.00    +0.000 C 
ATOM     18  C   UNL     1      31.171 -11.871 -20.835  0.00  0.00    +0.001 C 
ATOM     19  C   UNL     1      33.081 -10.295 -23.599  0.00  0.00    +0.000 C 
ATOM     20  C   UNL     1      30.749  -9.840 -22.137  0.00  0.00    +0.000 C 
ATOM     21  C   UNL     1      32.289  -9.179 -23.876  0.00  0.00    +0.000 C 
ATOM     22  C   UNL     1      31.126  -8.953 -23.147  0.00  0.00    +0.000 C 
ENDBRANCH  10  13
ENDBRANCH   8  10
ENDBRANCH   1   8
BRANCH   1  23
ATOM     23  C   UNL     1      35.900 -17.191 -22.620  0.00  0.00    +0.053 C 
BRANCH  23  24
ATOM     24  C   UNL     1      35.836 -18.375 -21.715  0.00  0.00    -0.020 C 
ATOM     25  C   UNL     1      34.605 -18.957 -21.413  0.00  0.00    -0.004 C 
ATOM     26  C   UNL     1      34.528 -20.072 -20.563  0.00  0.00    -0.000 C 
ATOM     27  C   UNL     1      37.006 -18.899 -21.173  0.00  0.00    -0.004 C 
ATOM     28  C   UNL     1      35.718 -20.604 -20.011  0.00  0.00    -0.000 C 
ATOM     29  C   UNL     1      36.949 -20.006 -20.327  0.00  0.00    -0.000 C 
ATOM     30  C   UNL     1      33.297 -20.669 -20.248  0.00  0.00    -0.000 C 
ATOM     31  C   UNL     1      35.642 -21.720 -19.161  0.00  0.00    -0.000 C 
ATOM     32  C   UNL     1      33.240 -21.778 -19.401  0.00  0.00    -0.000 C 
ATOM     33  C   UNL     1      34.410 -22.300 -18.859  0.00  0.00    -0.000 C 
ENDBRANCH  23  24
ENDBRANCH   1  23
TORSDOF 7
ENDMDL
MODEL 7
REMARK VINA RESULT:     -10.3     13.091     16.218
REMARK  Name = 9823454
REMARK  7 active torsions:
REMARK  status: ('A' for Active; 'I' for Inactive)
REMARK    1  A    between atoms: C_1  and  C_4
REMARK    2  A    between atoms: C_1  and  N_8
REMARK    3  A    between atoms: C_1  and  C_23
REMARK    4  A    between atoms: N_3  and  O_6
REMARK    5  A    between atoms: N_8  and  S_10
REMARK    6  A    between atoms: S_10  and  C_13
REMARK    7  A    between atoms: C_23  and  C_24
REMARK                            x       y       z     vdW  Elec       q    Type
REMARK                         _______ _______ _______ _____ _____    ______ ____
ROOT
ATOM      1  C   UNL     1      32.006  -9.781 -21.083  0.00  0.00    +0.158 C 
ENDROOT
BRANCH   1   4
ATOM      2  O   UNL     1      30.360 -10.389 -19.421  0.00  0.00    -0.272 OA
ATOM      3  N   UNL     1      32.510  -9.905 -18.733  0.00  0.00    -0.196 N 
ATOM      4  C   UNL     1      31.520 -10.064 -19.671  0.00  0.00    +0.260 C 
ATOM      5  H   UNL     1      33.427  -9.643 -18.980  0.00  0.00    +0.182 HD
BRANCH   3   6
ATOM      6  O   UNL     1      32.136 -10.139 -17.402  0.00  0.00    -0.295 OA
ATOM      7  H   UNL     1      31.338 -10.689 -17.383  0.00  0.00    +0.241 HD
ENDBRANCH   3   6
ENDBRANCH   1   4
BRANCH   1   8
ATOM      8  N   UNL     1      31.501  -8.427 -21.414  0.00  0.00    -0.172 NA
ATOM      9  H   UNL     1      31.447  -8.373 -22.431  0.00  0.00    +0.149 HD
BRANCH   8  10
ATOM     10  S   UNL     1      32.355  -7.055 -20.893  0.00  0.00    +0.061 S 
ATOM     11  O   UNL     1      33.239  -7.422 -19.803  0.00  0.00    -0.153 OA
ATOM     12  O   UNL     1      31.421  -5.955 -20.737  0.00  0.00    -0.153 OA
BRANCH  10  13
ATOM     13  C   UNL     1      33.352  -6.688 -22.304  0.00  0.00    +0.122 C 
ATOM     14  C   UNL     1      32.944  -5.699 -23.182  0.00  0.00    +0.020 C 
ATOM     15  C   UNL     1      33.726  -5.396 -24.309  0.00  0.00    +0.001 C 
ATOM     16  C   UNL     1      34.521  -7.396 -22.506  0.00  0.00    +0.020 C 
ATOM     17  C   UNL     1      34.927  -6.111 -24.531  0.00  0.00    +0.000 C 
ATOM     18  C   UNL     1      35.310  -7.108 -23.620  0.00  0.00    +0.001 C 
ATOM     19  C   UNL     1      33.342  -4.399 -25.221  0.00  0.00    +0.000 C 
ATOM     20  C   UNL     1      35.708  -5.809 -25.658  0.00  0.00    +0.000 C 
ATOM     21  C   UNL     1      34.130  -4.111 -26.335  0.00  0.00    +0.000 C 
ATOM     22  C   UNL     1      35.311  -4.815 -26.553  0.00  0.00    +0.000 C 
ENDBRANCH  10  13
ENDBRANCH   8  10
ENDBRANCH   1   8
BRANCH   1  23
ATOM     23  C   UNL     1      31.443 -10.806 -22.081  0.00  0.00    +0.053 C 
BRANCH  23  24
ATOM     24  C   UNL     1      32.343 -11.976 -22.297  0.00  0.00    -0.020 C 
ATOM     25  C   UNL     1      32.607 -12.857 -21.248  0.00  0.00    -0.004 C 
ATOM     26  C   UNL     1      33.451 -13.964 -21.436  0.00  0.00    -0.000 C 
ATOM     27  C   UNL     1      32.917 -12.190 -23.547  0.00  0.00    -0.004 C 
ATOM     28  C   UNL     1      34.035 -14.180 -22.707  0.00  0.00    -0.000 C 
ATOM     29  C   UNL     1      33.758 -13.284 -23.751  0.00  0.00    -0.000 C 
ATOM     30  C   UNL     1      33.728 -14.859 -20.390  0.00  0.00    -0.000 C 
ATOM     31  C   UNL     1      34.879 -15.286 -22.895  0.00  0.00    -0.000 C 
ATOM     32  C   UNL     1      34.570 -15.954 -20.595  0.00  0.00    -0.000 C 
ATOM     33  C   UNL     1      35.144 -16.166 -21.844  0.00  0.00    -0.000 C 
ENDBRANCH  23  24
ENDBRANCH   1  23
TORSDOF 7
ENDMDL
MODEL 8
REMARK VINA RESULT:     -10.2     12.983     16.675
REMARK  Name = 9823454
REMARK  7 active torsions:
REMARK  status: ('A' for Active; 'I' for Inactive)
REMARK    1  A    between atoms: C_1  and  C_4
REMARK    2  A    between atoms: C_1  and  N_8
REMARK    3  A    between atoms: C_1  and  C_23
REMARK    4  A    between atoms: N_3  and  O_6
REMARK    5  A    between atoms: N_8  and  S_10
REMARK    6  A    between atoms: S_10  and  C_13
REMARK    7  A    between atoms: C_23  and  C_24
REMARK                            x       y       z     vdW  Elec       q    Type
REMARK                         _______ _______ _______ _____ _____    ______ ____
ROOT
ATOM      1  C   UNL     1      32.277  -8.513 -20.806  0.00  0.00    +0.158 C 
ENDROOT
BRANCH   1   4
ATOM      2  O   UNL     1      31.575  -8.118 -18.527  0.00  0.00    -0.272 OA
ATOM      3  N   UNL     1      31.880 -10.294 -19.238  0.00  0.00    -0.196 N 
ATOM      4  C   UNL     1      31.869  -8.931 -19.403  0.00  0.00    +0.260 C 
ATOM      5  H   UNL     1      32.122 -10.908 -19.969  0.00  0.00    +0.182 HD
BRANCH   3   6
ATOM      6  O   UNL     1      31.523 -10.759 -17.964  0.00  0.00    -0.295 OA
ATOM      7  H   UNL     1      32.318 -10.827 -17.412  0.00  0.00    +0.241 HD
ENDBRANCH   3   6
ENDBRANCH   1   4
BRANCH   1   8
ATOM      8  N   UNL     1      32.836  -9.732 -21.438  0.00  0.00    -0.172 NA
ATOM      9  H   UNL     1      33.726  -9.465 -21.858  0.00  0.00    +0.149 HD
BRANCH   8  10
ATOM     10  S   UNL     1      31.951 -10.544 -22.637  0.00  0.00    +0.061 S 
ATOM     11  O   UNL     1      32.105  -9.852 -23.903  0.00  0.00    -0.153 OA
ATOM     12  O   UNL     1      30.626 -10.837 -22.122  0.00  0.00    -0.153 OA
BRANCH  10  13
ATOM     13  C   UNL     1      32.812 -12.083 -22.749  0.00  0.00    +0.122 C 
ATOM     14  C   UNL     1      33.052 -12.808 -21.594  0.00  0.00    +0.020 C 
ATOM     15  C   UNL     1      33.737 -14.033 -21.665  0.00  0.00    +0.001 C 
ATOM     16  C   UNL     1      33.231 -12.533 -23.985  0.00  0.00    +0.020 C 
ATOM     17  C   UNL     1      34.173 -14.509 -22.925  0.00  0.00    +0.000 C 
ATOM     18  C   UNL     1      33.912 -13.748 -24.075  0.00  0.00    +0.001 C 
ATOM     19  C   UNL     1      33.998 -14.794 -20.515  0.00  0.00    +0.000 C 
ATOM     20  C   UNL     1      34.858 -15.733 -22.996  0.00  0.00    +0.000 C 
ATOM     21  C   UNL     1      34.680 -16.008 -20.604  0.00  0.00    +0.000 C 
ATOM     22  C   UNL     1      35.108 -16.477 -21.842  0.00  0.00    +0.000 C 
ENDBRANCH  10  13
ENDBRANCH   8  10
ENDBRANCH   1   8
BRANCH   1  23
ATOM     23  C   UNL     1      33.347  -7.408 -20.769  0.00  0.00    +0.053 C 
BRANCH  23  24
ATOM     24  C   UNL     1      33.711  -6.892 -22.120  0.00  0.00    -0.020 C 
ATOM     25  C   UNL     1      32.886  -5.965 -22.759  0.00  0.00    -0.004 C 
ATOM     26  C   UNL     1      33.216  -5.469 -24.031  0.00  0.00    -0.000 C 
ATOM     27  C   UNL     1      34.874  -7.334 -22.743  0.00  0.00    -0.004 C 
ATOM     28  C   UNL     1      34.399  -5.919 -24.664  0.00  0.00    -0.000 C 
ATOM     29  C   UNL     1      35.217  -6.852 -24.006  0.00  0.00    -0.000 C 
ATOM     30  C   UNL     1      32.397  -4.537 -24.687  0.00  0.00    -0.000 C 
ATOM     31  C   UNL     1      34.728  -5.423 -25.935  0.00  0.00    -0.000 C 
ATOM     32  C   UNL     1      32.740  -4.054 -25.952  0.00  0.00    -0.000 C 
ATOM     33  C   UNL     1      33.902  -4.498 -26.574  0.00  0.00    -0.000 C 
ENDBRANCH  23  24
ENDBRANCH   1  23
TORSDOF 7
ENDMDL
MODEL 9
REMARK VINA RESULT:     -10.2     12.508     16.113
REMARK  Name = 9823454
REMARK  7 active torsions:
REMARK  status: ('A' for Active; 'I' for Inactive)
REMARK    1  A    between atoms: C_1  and  C_4
REMARK    2  A    between atoms: C_1  and  N_8
REMARK    3  A    between atoms: C_1  and  C_23
REMARK    4  A    between atoms: N_3  and  O_6
REMARK    5  A    between atoms: N_8  and  S_10
REMARK    6  A    between atoms: S_10  and  C_13
REMARK    7  A    between atoms: C_23  and  C_24
REMARK                            x       y       z     vdW  Elec       q    Type
REMARK                         _______ _______ _______ _____ _____    ______ ____
ROOT
ATOM      1  C   UNL     1      31.825  -9.228 -20.315  0.00  0.00    +0.158 C 
ENDROOT
BRANCH   1   4
ATOM      2  O   UNL     1      30.198 -10.159 -18.789  0.00  0.00    -0.272 OA
ATOM      3  N   UNL     1      32.373  -9.882 -18.066  0.00  0.00    -0.196 N 
ATOM      4  C   UNL     1      31.360  -9.809 -18.990  0.00  0.00    +0.260 C 
ATOM      5  H   UNL     1      33.291  -9.589 -18.271  0.00  0.00    +0.182 HD
BRANCH   3   6
ATOM      6  O   UNL     1      32.020 -10.399 -16.811  0.00  0.00    -0.295 OA
ATOM      7  H   UNL     1      31.141 -10.805 -16.865  0.00  0.00    +0.241 HD
ENDBRANCH   3   6
ENDBRANCH   1   4
BRANCH   1   8
ATOM      8  N   UNL     1      32.589 -10.311 -20.979  0.00  0.00    -0.172 NA
ATOM      9  H   UNL     1      33.470  -9.904 -21.289  0.00  0.00    +0.149 HD
BRANCH   8  10
ATOM     10  S   UNL     1      31.923 -11.119 -22.316  0.00  0.00    +0.061 S 
ATOM     11  O   UNL     1      32.284 -10.417 -23.533  0.00  0.00    -0.153 OA
ATOM     12  O   UNL     1      30.532 -11.422 -22.033  0.00  0.00    -0.153 OA
BRANCH  10  13
ATOM     13  C   UNL     1      32.800 -12.652 -22.291  0.00  0.00    +0.122 C 
ATOM     14  C   UNL     1      32.936 -13.373 -23.465  0.00  0.00    +0.020 C 
ATOM     15  C   UNL     1      33.630 -14.594 -23.462  0.00  0.00    +0.001 C 
ATOM     16  C   UNL     1      33.334 -13.103 -21.100  0.00  0.00    +0.020 C 
ATOM     17  C   UNL     1      34.184 -15.071 -22.250  0.00  0.00    +0.000 C 
ATOM     18  C   UNL     1      34.028 -14.314 -21.078  0.00  0.00    +0.001 C 
ATOM     19  C   UNL     1      33.786 -15.351 -24.634  0.00  0.00    +0.000 C 
ATOM     20  C   UNL     1      34.877 -16.293 -22.246  0.00  0.00    +0.000 C 
ATOM     21  C   UNL     1      34.478 -16.563 -24.612  0.00  0.00    +0.000 C 
ATOM     22  C   UNL     1      35.023 -17.032 -23.421  0.00  0.00    +0.000 C 
ENDBRANCH  10  13
ENDBRANCH   8  10
ENDBRANCH   1   8
BRANCH   1  23
ATOM     23  C   UNL     1      32.733  -8.006 -20.100  0.00  0.00    +0.053 C 
BRANCH  23  24
ATOM     24  C   UNL     1      32.877  -7.154 -21.315  0.00  0.00    -0.020 C 
ATOM     25  C   UNL     1      33.989  -7.303 -22.145  0.00  0.00    -0.004 C 
ATOM     26  C   UNL     1      34.139  -6.508 -23.293  0.00  0.00    -0.000 C 
ATOM     27  C   UNL     1      31.902  -6.210 -21.622  0.00  0.00    -0.004 C 
ATOM     28  C   UNL     1      33.146  -5.548 -23.604  0.00  0.00    -0.000 C 
ATOM     29  C   UNL     1      32.034  -5.412 -22.758  0.00  0.00    -0.000 C 
ATOM     30  C   UNL     1      35.252  -6.645 -24.138  0.00  0.00    -0.000 C 
ATOM     31  C   UNL     1      33.296  -4.753 -24.752  0.00  0.00    -0.000 C 
ATOM     32  C   UNL     1      35.384  -5.846 -25.275  0.00  0.00    -0.000 C 
ATOM     33  C   UNL     1      34.409  -4.902 -25.580  0.00  0.00    -0.000 C 
ENDBRANCH  23  24
ENDBRANCH   1  23
TORSDOF 7
ENDMDL
