MODEL 1
REMARK VINA RESULT:     -12.5      0.000      0.000
REMARK  Name = 2267
REMARK  3 active torsions:
REMARK  status: ('A' for Active; 'I' for Inactive)
REMARK    1  A    between atoms: N_2  and  C_13
REMARK    2  A    between atoms: C_6  and  C_21
REMARK    3  A    between atoms: C_21  and  C_23
REMARK                            x       y       z     vdW  Elec       q    Type
REMARK                         _______ _______ _______ _____ _____    ______ ____
ROOT
ATOM      1  O   UNL     1      33.836 -24.015 -12.832  0.00  0.00    -0.266 OA
ATOM      2  N   UNL     1      34.742 -24.021 -14.969  0.00  0.00    -0.219 N 
ATOM      3  N   UNL     1      34.579 -23.879 -16.317  0.00  0.00    -0.171 NA
ATOM      4  C   UNL     1      33.704 -23.890 -14.048  0.00  0.00    +0.276 A 
ATOM      5  C   UNL     1      32.368 -23.580 -14.590  0.00  0.00    +0.059 A 
ATOM      6  C   UNL     1      33.408 -23.607 -16.799  0.00  0.00    +0.083 A 
ATOM      7  C   UNL     1      32.208 -23.438 -15.964  0.00  0.00    +0.020 A 
ATOM      8  C   UNL     1      31.271 -23.433 -13.735  0.00  0.00    +0.005 C 
ATOM      9  C   UNL     1      30.948 -23.146 -16.495  0.00  0.00    +0.001 C 
ATOM     10  C   UNL     1      30.014 -23.142 -14.265  0.00  0.00    +0.000 C 
ATOM     11  C   UNL     1      29.853 -22.999 -15.641  0.00  0.00    +0.000 C 
ENDROOT
BRANCH   2  13
ATOM     12  N   UNL     1      38.786 -25.520 -14.037  0.00  0.00    +0.386 N 
ATOM     13  C   UNL     1      36.095 -24.325 -14.550  0.00  0.00    +0.106 C 
ATOM     14  C   UNL     1      36.349 -23.676 -13.186  0.00  0.00    +0.022 C 
ATOM     15  C   UNL     1      36.285 -25.844 -14.496  0.00  0.00    +0.002 C 
ATOM     16  C   UNL     1      37.797 -23.707 -12.704  0.00  0.00    -0.021 C 
ATOM     17  C   UNL     1      37.732 -26.317 -14.674  0.00  0.00    -0.075 C 
ATOM     18  C   UNL     1      38.467 -25.082 -12.678  0.00  0.00    -0.077 C 
ATOM     19  C   UNL     1      40.055 -26.249 -14.080  0.00  0.00    -0.101 C 
ATOM     20  H   UNL     1      38.865 -24.660 -14.579  0.00  0.00    -0.080 HD
ENDBRANCH   2  13
BRANCH   6  21
ATOM     21  C   UNL     1      33.290 -23.463 -18.298  0.00  0.00    +0.074 C 
BRANCH  21  23
ATOM     22 CL   UNL     1      37.180 -19.372 -20.336  0.00  0.00    -0.082 Cl
ATOM     23  C   UNL     1      34.259 -22.443 -18.805  0.00  0.00    -0.016 C 
ATOM     24  C   UNL     1      33.853 -21.515 -19.762  0.00  0.00    -0.003 C 
ATOM     25  C   UNL     1      35.565 -22.425 -18.320  0.00  0.00    -0.003 C 
ATOM     26  C   UNL     1      34.756 -20.564 -20.235  0.00  0.00    +0.011 C 
ATOM     27  C   UNL     1      36.469 -21.475 -18.794  0.00  0.00    +0.011 C 
ATOM     28  C   UNL     1      36.065 -20.544 -19.752  0.00  0.00    +0.058 C 
ENDBRANCH  21  23
ENDBRANCH   6  21
TORSDOF 3
ENDMDL
MODEL 2
REMARK VINA RESULT:     -12.4      2.869      6.588
REMARK  Name = 2267
REMARK  3 active torsions:
REMARK  status: ('A' for Active; 'I' for Inactive)
REMARK    1  A    between atoms: N_2  and  C_13
REMARK    2  A    between atoms: C_6  and  C_21
REMARK    3  A    between atoms: C_21  and  C_23
REMARK                            x       y       z     vdW  Elec       q    Type
REMARK                         _______ _______ _______ _____ _____    ______ ____
ROOT
ATOM      1  O   UNL     1      32.325 -22.766 -18.323  0.00  0.00    -0.266 OA
ATOM      2  N   UNL     1      33.790 -23.304 -16.605  0.00  0.00    -0.219 N 
ATOM      3  N   UNL     1      35.042 -23.247 -16.064  0.00  0.00    -0.171 NA
ATOM      4  C   UNL     1      33.448 -22.723 -17.824  0.00  0.00    +0.276 A 
ATOM      5  C   UNL     1      34.520 -22.015 -18.548  0.00  0.00    +0.059 A 
ATOM      6  C   UNL     1      35.988 -22.626 -16.696  0.00  0.00    +0.083 A 
ATOM      7  C   UNL     1      35.794 -21.961 -17.994  0.00  0.00    +0.020 A 
ATOM      8  C   UNL     1      34.263 -21.404 -19.780  0.00  0.00    +0.005 C 
ATOM      9  C   UNL     1      36.822 -21.295 -18.668  0.00  0.00    +0.001 C 
ATOM     10  C   UNL     1      35.288 -20.739 -20.452  0.00  0.00    +0.000 C 
ATOM     11  C   UNL     1      36.565 -20.686 -19.897  0.00  0.00    +0.000 C 
ENDROOT
BRANCH   2  13
ATOM     12  N   UNL     1      30.367 -25.189 -14.555  0.00  0.00    +0.386 N 
ATOM     13  C   UNL     1      32.818 -24.026 -15.809  0.00  0.00    +0.106 C 
ATOM     14  C   UNL     1      33.393 -24.247 -14.406  0.00  0.00    +0.022 C 
ATOM     15  C   UNL     1      31.506 -23.237 -15.763  0.00  0.00    +0.002 C 
ATOM     16  C   UNL     1      32.593 -25.189 -13.510  0.00  0.00    -0.021 C 
ATOM     17  C   UNL     1      30.254 -24.085 -15.514  0.00  0.00    -0.075 C 
ATOM     18  C   UNL     1      31.109 -24.854 -13.340  0.00  0.00    -0.077 C 
ATOM     19  C   UNL     1      29.037 -25.714 -14.242  0.00  0.00    -0.101 C 
ATOM     20  H   UNL     1      30.923 -25.913 -15.011  0.00  0.00    -0.080 HD
ENDBRANCH   2  13
BRANCH   6  21
ATOM     21  C   UNL     1      37.353 -22.598 -16.049  0.00  0.00    +0.074 C 
BRANCH  21  23
ATOM     22 CL   UNL     1      37.564 -26.386 -11.398  0.00  0.00    -0.082 Cl
ATOM     23  C   UNL     1      37.405 -23.542 -14.890  0.00  0.00    -0.016 C 
ATOM     24  C   UNL     1      36.861 -23.166 -13.664  0.00  0.00    -0.003 C 
ATOM     25  C   UNL     1      37.998 -24.794 -15.041  0.00  0.00    -0.003 C 
ATOM     26  C   UNL     1      36.910 -24.046 -12.584  0.00  0.00    +0.011 C 
ATOM     27  C   UNL     1      38.047 -25.674 -13.960  0.00  0.00    +0.011 C 
ATOM     28  C   UNL     1      37.503 -25.300 -12.731  0.00  0.00    +0.058 C 
ENDBRANCH  21  23
ENDBRANCH   6  21
TORSDOF 3
ENDMDL
MODEL 3
REMARK VINA RESULT:     -10.7      2.885      5.306
REMARK  Name = 2267
REMARK  3 active torsions:
REMARK  status: ('A' for Active; 'I' for Inactive)
REMARK    1  A    between atoms: N_2  and  C_13
REMARK    2  A    between atoms: C_6  and  C_21
REMARK    3  A    between atoms: C_21  and  C_23
REMARK                            x       y       z     vdW  Elec       q    Type
REMARK                         _______ _______ _______ _____ _____    ______ ____
ROOT
ATOM      1  O   UNL     1      37.557 -22.381 -16.867  0.00  0.00    -0.266 OA
ATOM      2  N   UNL     1      35.574 -23.178 -15.963  0.00  0.00    -0.219 N 
ATOM      3  N   UNL     1      34.220 -23.335 -16.049  0.00  0.00    -0.171 NA
ATOM      4  C   UNL     1      36.339 -22.529 -16.931  0.00  0.00    +0.276 A 
ATOM      5  C   UNL     1      35.617 -21.993 -18.100  0.00  0.00    +0.059 A 
ATOM      6  C   UNL     1      33.581 -22.866 -17.073  0.00  0.00    +0.083 A 
ATOM      7  C   UNL     1      34.239 -22.154 -18.182  0.00  0.00    +0.020 A 
ATOM      8  C   UNL     1      36.309 -21.326 -19.117  0.00  0.00    +0.005 C 
ATOM      9  C   UNL     1      33.539 -21.650 -19.283  0.00  0.00    +0.001 C 
ATOM     10  C   UNL     1      35.611 -20.824 -20.215  0.00  0.00    +0.000 C 
ATOM     11  C   UNL     1      34.229 -20.986 -20.297  0.00  0.00    +0.000 C 
ENDROOT
BRANCH   2  13
ATOM     12  N   UNL     1      37.685 -25.347 -12.753  0.00  0.00    +0.386 N 
ATOM     13  C   UNL     1      36.176 -23.743 -14.773  0.00  0.00    +0.106 C 
ATOM     14  C   UNL     1      35.239 -23.506 -13.584  0.00  0.00    +0.022 C 
ATOM     15  C   UNL     1      36.443 -25.234 -14.992  0.00  0.00    +0.002 C 
ATOM     16  C   UNL     1      35.822 -23.836 -12.212  0.00  0.00    -0.021 C 
ATOM     17  C   UNL     1      37.575 -25.817 -14.138  0.00  0.00    -0.075 C 
ATOM     18  C   UNL     1      36.405 -25.242 -12.052  0.00  0.00    -0.077 C 
ATOM     19  C   UNL     1      38.630 -26.189 -12.016  0.00  0.00    -0.101 C 
ATOM     20  H   UNL     1      38.038 -24.392 -12.799  0.00  0.00    -0.080 HD
ENDBRANCH   2  13
BRANCH   6  21
ATOM     21  C   UNL     1      32.085 -23.070 -17.112  0.00  0.00    +0.074 C 
BRANCH  21  23
ATOM     22 CL   UNL     1      30.103 -25.164 -11.849  0.00  0.00    -0.082 Cl
ATOM     23  C   UNL     1      31.592 -23.592 -15.800  0.00  0.00    -0.016 C 
ATOM     24  C   UNL     1      30.841 -24.764 -15.759  0.00  0.00    -0.003 C 
ATOM     25  C   UNL     1      31.884 -22.903 -14.625  0.00  0.00    -0.003 C 
ATOM     26  C   UNL     1      30.381 -25.252 -14.536  0.00  0.00    +0.011 C 
ATOM     27  C   UNL     1      31.423 -23.390 -13.402  0.00  0.00    +0.011 C 
ATOM     28  C   UNL     1      30.671 -24.564 -13.357  0.00  0.00    +0.058 C 
ENDBRANCH  21  23
ENDBRANCH   6  21
TORSDOF 3
ENDMDL
MODEL 4
REMARK VINA RESULT:     -10.5     10.916     14.124
REMARK  Name = 2267
REMARK  3 active torsions:
REMARK  status: ('A' for Active; 'I' for Inactive)
REMARK    1  A    between atoms: N_2  and  C_13
REMARK    2  A    between atoms: C_6  and  C_21
REMARK    3  A    between atoms: C_21  and  C_23
REMARK                            x       y       z     vdW  Elec       q    Type
REMARK                         _______ _______ _______ _____ _____    ______ ____
ROOT
ATOM      1  O   UNL     1      33.008 -13.592 -19.889  0.00  0.00    -0.266 OA
ATOM      2  N   UNL     1      32.619 -12.830 -22.046  0.00  0.00    -0.219 N 
ATOM      3  N   UNL     1      32.190 -11.844 -22.888  0.00  0.00    -0.171 NA
ATOM      4  C   UNL     1      32.624 -12.713 -20.658  0.00  0.00    +0.276 A 
ATOM      5  C   UNL     1      32.132 -11.442 -20.096  0.00  0.00    +0.059 A 
ATOM      6  C   UNL     1      31.757 -10.725 -22.399  0.00  0.00    +0.083 A 
ATOM      7  C   UNL     1      31.694 -10.441 -20.956  0.00  0.00    +0.020 A 
ATOM      8  C   UNL     1      32.101 -11.241 -18.711  0.00  0.00    +0.005 C 
ATOM      9  C   UNL     1      31.223  -9.230 -20.439  0.00  0.00    +0.001 C 
ATOM     10  C   UNL     1      31.631 -10.033 -18.196  0.00  0.00    +0.000 C 
ATOM     11  C   UNL     1      31.193  -9.031 -19.059  0.00  0.00    +0.000 C 
ENDROOT
BRANCH   2  13
ATOM     12  N   UNL     1      34.377 -16.606 -23.503  0.00  0.00    +0.386 N 
ATOM     13  C   UNL     1      33.079 -14.034 -22.708  0.00  0.00    +0.106 C 
ATOM     14  C   UNL     1      33.109 -13.788 -24.220  0.00  0.00    +0.022 C 
ATOM     15  C   UNL     1      34.461 -14.418 -22.171  0.00  0.00    +0.002 C 
ATOM     16  C   UNL     1      33.353 -15.024 -25.082  0.00  0.00    -0.021 C 
ATOM     17  C   UNL     1      34.804 -15.907 -22.286  0.00  0.00    -0.075 C 
ATOM     18  C   UNL     1      34.594 -15.849 -24.736  0.00  0.00    -0.077 C 
ATOM     19  C   UNL     1      35.010 -17.925 -23.567  0.00  0.00    -0.101 C 
ATOM     20  H   UNL     1      33.365 -16.713 -23.435  0.00  0.00    -0.080 HD
ENDBRANCH   2  13
BRANCH   6  21
ATOM     21  C   UNL     1      31.294  -9.672 -23.379  0.00  0.00    +0.074 C 
BRANCH  21  23
ATOM     22 CL   UNL     1      35.820  -6.005 -24.824  0.00  0.00    -0.082 Cl
ATOM     23  C   UNL     1      32.422  -8.758 -23.738  0.00  0.00    -0.016 C 
ATOM     24  C   UNL     1      32.180  -7.634 -24.525  0.00  0.00    -0.003 C 
ATOM     25  C   UNL     1      33.710  -9.035 -23.286  0.00  0.00    -0.003 C 
ATOM     26  C   UNL     1      33.231  -6.782 -24.860  0.00  0.00    +0.011 C 
ATOM     27  C   UNL     1      34.762  -8.183 -23.622  0.00  0.00    +0.011 C 
ATOM     28  C   UNL     1      34.523  -7.056 -24.409  0.00  0.00    +0.058 C 
ENDBRANCH  21  23
ENDBRANCH   6  21
TORSDOF 3
ENDMDL
MODEL 5
REMARK VINA RESULT:     -10.4      1.931      5.759
REMARK  Name = 2267
REMARK  3 active torsions:
REMARK  status: ('A' for Active; 'I' for Inactive)
REMARK    1  A    between atoms: N_2  and  C_13
REMARK    2  A    between atoms: C_6  and  C_21
REMARK    3  A    between atoms: C_21  and  C_23
REMARK                            x       y       z     vdW  Elec       q    Type
REMARK                         _______ _______ _______ _____ _____    ______ ____
ROOT
ATOM      1  O   UNL     1      32.717 -24.602 -12.399  0.00  0.00    -0.266 OA
ATOM      2  N   UNL     1      33.166 -24.093 -14.618  0.00  0.00    -0.219 N 
ATOM      3  N   UNL     1      34.060 -23.740 -15.588  0.00  0.00    -0.171 NA
ATOM      4  C   UNL     1      33.511 -24.285 -13.282  0.00  0.00    +0.276 A 
ATOM      5  C   UNL     1      34.928 -24.088 -12.926  0.00  0.00    +0.059 A 
ATOM      6  C   UNL     1      35.307 -23.566 -15.281  0.00  0.00    +0.083 A 
ATOM      7  C   UNL     1      35.835 -23.728 -13.916  0.00  0.00    +0.020 A 
ATOM      8  C   UNL     1      35.360 -24.259 -11.606  0.00  0.00    +0.005 C 
ATOM      9  C   UNL     1      37.183 -23.536 -13.595  0.00  0.00    +0.001 C 
ATOM     10  C   UNL     1      36.704 -24.068 -11.286  0.00  0.00    +0.000 C 
ATOM     11  C   UNL     1      37.613 -23.707 -12.279  0.00  0.00    +0.000 C 
ENDROOT
BRANCH   2  13
ATOM     12  N   UNL     1      29.038 -23.936 -16.168  0.00  0.00    +0.386 N 
ATOM     13  C   UNL     1      31.803 -24.257 -15.082  0.00  0.00    +0.106 C 
ATOM     14  C   UNL     1      31.136 -25.374 -14.273  0.00  0.00    +0.022 C 
ATOM     15  C   UNL     1      31.051 -22.931 -14.940  0.00  0.00    +0.002 C 
ATOM     16  C   UNL     1      29.772 -25.831 -14.784  0.00  0.00    -0.021 C 
ATOM     17  C   UNL     1      29.869 -22.757 -15.900  0.00  0.00    -0.075 C 
ATOM     18  C   UNL     1      28.726 -24.732 -14.980  0.00  0.00    -0.077 C 
ATOM     19  C   UNL     1      27.821 -23.536 -16.877  0.00  0.00    -0.101 C 
ATOM     20  H   UNL     1      29.593 -24.553 -16.759  0.00  0.00    -0.080 HD
ENDBRANCH   2  13
BRANCH   6  21
ATOM     21  C   UNL     1      36.249 -23.176 -16.395  0.00  0.00    +0.074 C 
BRANCH  21  23
ATOM     22 CL   UNL     1      33.241 -20.535 -20.868  0.00  0.00    -0.082 Cl
ATOM     23  C   UNL     1      35.500 -22.519 -17.510  0.00  0.00    -0.016 C 
ATOM     24  C   UNL     1      36.166 -21.661 -18.382  0.00  0.00    -0.003 C 
ATOM     25  C   UNL     1      34.138 -22.766 -17.672  0.00  0.00    -0.003 C 
ATOM     26  C   UNL     1      35.467 -21.047 -19.421  0.00  0.00    +0.011 C 
ATOM     27  C   UNL     1      33.440 -22.152 -18.711  0.00  0.00    +0.011 C 
ATOM     28  C   UNL     1      34.104 -21.293 -19.586  0.00  0.00    +0.058 C 
ENDBRANCH  21  23
ENDBRANCH   6  21
TORSDOF 3
ENDMDL
MODEL 6
REMARK VINA RESULT:     -10.1     13.066     16.779
REMARK  Name = 2267
REMARK  3 active torsions:
REMARK  status: ('A' for Active; 'I' for Inactive)
REMARK    1  A    between atoms: N_2  and  C_13
REMARK    2  A    between atoms: C_6  and  C_21
REMARK    3  A    between atoms: C_21  and  C_23
REMARK                            x       y       z     vdW  Elec       q    Type
REMARK                         _______ _______ _______ _____ _____    ______ ____
ROOT
ATOM      1  O   UNL     1      33.136  -6.430 -21.015  0.00  0.00    -0.266 OA
ATOM      2  N   UNL     1      32.902  -7.949 -22.754  0.00  0.00    -0.219 N 
ATOM      3  N   UNL     1      32.509  -9.179 -23.199  0.00  0.00    -0.171 NA
ATOM      4  C   UNL     1      32.786  -7.533 -21.429  0.00  0.00    +0.276 A 
ATOM      5  C   UNL     1      32.203  -8.497 -20.478  0.00  0.00    +0.059 A 
ATOM      6  C   UNL     1      31.996 -10.030 -22.368  0.00  0.00    +0.083 A 
ATOM      7  C   UNL     1      31.806  -9.748 -20.935  0.00  0.00    +0.020 A 
ATOM      8  C   UNL     1      32.052  -8.161 -19.128  0.00  0.00    +0.005 C 
ATOM      9  C   UNL     1      31.253 -10.675 -20.046  0.00  0.00    +0.001 C 
ATOM     10  C   UNL     1      31.500  -9.086 -18.242  0.00  0.00    +0.000 C 
ATOM     11  C   UNL     1      31.102 -10.340 -18.700  0.00  0.00    +0.000 C 
ENDROOT
BRANCH   2  13
ATOM     12  N   UNL     1      34.001  -5.024 -25.870  0.00  0.00    +0.386 N 
ATOM     13  C   UNL     1      33.461  -7.086 -23.775  0.00  0.00    +0.106 C 
ATOM     14  C   UNL     1      34.515  -7.869 -24.563  0.00  0.00    +0.022 C 
ATOM     15  C   UNL     1      32.340  -6.574 -24.684  0.00  0.00    +0.002 C 
ATOM     16  C   UNL     1      35.363  -7.042 -25.527  0.00  0.00    -0.021 C 
ATOM     17  C   UNL     1      32.635  -5.242 -25.381  0.00  0.00    -0.075 C 
ATOM     18  C   UNL     1      34.592  -6.186 -26.534  0.00  0.00    -0.077 C 
ATOM     19  C   UNL     1      34.038  -3.841 -26.731  0.00  0.00    -0.101 C 
ATOM     20  H   UNL     1      34.582  -4.869 -25.047  0.00  0.00    -0.080 HD
ENDBRANCH   2  13
BRANCH   6  21
ATOM     21  C   UNL     1      31.581 -11.374 -22.917  0.00  0.00    +0.074 C 
BRANCH  21  23
ATOM     22 CL   UNL     1      34.816 -15.767 -20.414  0.00  0.00    -0.082 Cl
ATOM     23  C   UNL     1      32.387 -12.468 -22.292  0.00  0.00    -0.016 C 
ATOM     24  C   UNL     1      33.617 -12.823 -22.842  0.00  0.00    -0.003 C 
ATOM     25  C   UNL     1      31.905 -13.128 -21.165  0.00  0.00    -0.003 C 
ATOM     26  C   UNL     1      34.369 -13.844 -22.261  0.00  0.00    +0.011 C 
ATOM     27  C   UNL     1      32.657 -14.149 -20.584  0.00  0.00    +0.011 C 
ATOM     28  C   UNL     1      33.889 -14.507 -21.131  0.00  0.00    +0.058 C 
ENDBRANCH  21  23
ENDBRANCH   6  21
TORSDOF 3
ENDMDL
MODEL 7
REMARK VINA RESULT:     -10.0     11.937     15.278
REMARK  Name = 2267
REMARK  3 active torsions:
REMARK  status: ('A' for Active; 'I' for Inactive)
REMARK    1  A    between atoms: N_2  and  C_13
REMARK    2  A    between atoms: C_6  and  C_21
REMARK    3  A    between atoms: C_21  and  C_23
REMARK                            x       y       z     vdW  Elec       q    Type
REMARK                         _______ _______ _______ _____ _____    ______ ____
ROOT
ATOM      1  O   UNL     1      31.591 -12.896 -20.975  0.00  0.00    -0.266 OA
ATOM      2  N   UNL     1      32.991 -12.092 -22.641  0.00  0.00    -0.219 N 
ATOM      3  N   UNL     1      33.656 -11.048 -23.219  0.00  0.00    -0.171 NA
ATOM      4  C   UNL     1      32.195 -11.966 -21.505  0.00  0.00    +0.276 A 
ATOM      5  C   UNL     1      32.082 -10.618 -20.917  0.00  0.00    +0.059 A 
ATOM      6  C   UNL     1      33.560  -9.862 -22.707  0.00  0.00    +0.083 A 
ATOM      7  C   UNL     1      32.759  -9.559 -21.509  0.00  0.00    +0.020 A 
ATOM      8  C   UNL     1      31.301 -10.403 -19.776  0.00  0.00    +0.005 C 
ATOM      9  C   UNL     1      32.662  -8.274 -20.966  0.00  0.00    +0.001 C 
ATOM     10  C   UNL     1      31.204  -9.122 -19.234  0.00  0.00    +0.000 C 
ATOM     11  C   UNL     1      31.883  -8.061 -19.828  0.00  0.00    +0.000 C 
ENDROOT
BRANCH   2  13
ATOM     12  N   UNL     1      33.875 -16.160 -24.102  0.00  0.00    +0.386 N 
ATOM     13  C   UNL     1      33.173 -13.367 -23.304  0.00  0.00    +0.106 C 
ATOM     14  C   UNL     1      33.244 -13.134 -24.816  0.00  0.00    +0.022 C 
ATOM     15  C   UNL     1      34.443 -14.042 -22.777  0.00  0.00    +0.002 C 
ATOM     16  C   UNL     1      33.206 -14.395 -25.677  0.00  0.00    -0.021 C 
ATOM     17  C   UNL     1      34.454 -15.570 -22.891  0.00  0.00    -0.075 C 
ATOM     18  C   UNL     1      34.241 -15.470 -25.339  0.00  0.00    -0.077 C 
ATOM     19  C   UNL     1      34.206 -17.585 -24.168  0.00  0.00    -0.101 C 
ATOM     20  H   UNL     1      32.865 -16.045 -24.026  0.00  0.00    -0.080 HD
ENDBRANCH   2  13
BRANCH   6  21
ATOM     21  C   UNL     1      34.317  -8.747 -23.390  0.00  0.00    +0.074 C 
BRANCH  21  23
ATOM     22 CL   UNL     1      30.672  -4.114 -24.515  0.00  0.00    -0.082 Cl
ATOM     23  C   UNL     1      33.409  -7.592 -23.672  0.00  0.00    -0.016 C 
ATOM     24  C   UNL     1      33.792  -6.304 -23.305  0.00  0.00    -0.003 C 
ATOM     25  C   UNL     1      32.183  -7.810 -24.297  0.00  0.00    -0.003 C 
ATOM     26  C   UNL     1      32.945  -5.227 -23.567  0.00  0.00    +0.011 C 
ATOM     27  C   UNL     1      31.336  -6.733 -24.558  0.00  0.00    +0.011 C 
ATOM     28  C   UNL     1      31.717  -5.441 -24.193  0.00  0.00    +0.058 C 
ENDBRANCH  21  23
ENDBRANCH   6  21
TORSDOF 3
ENDMDL
MODEL 8
REMARK VINA RESULT:     -10.0      1.655      5.666
REMARK  Name = 2267
REMARK  3 active torsions:
REMARK  status: ('A' for Active; 'I' for Inactive)
REMARK    1  A    between atoms: N_2  and  C_13
REMARK    2  A    between atoms: C_6  and  C_21
REMARK    3  A    between atoms: C_21  and  C_23
REMARK                            x       y       z     vdW  Elec       q    Type
REMARK                         _______ _______ _______ _____ _____    ______ ____
ROOT
ATOM      1  O   UNL     1      34.801 -26.274 -14.038  0.00  0.00    -0.266 OA
ATOM      2  N   UNL     1      34.680 -24.171 -15.012  0.00  0.00    -0.219 N 
ATOM      3  N   UNL     1      35.309 -23.083 -15.547  0.00  0.00    -0.171 NA
ATOM      4  C   UNL     1      35.353 -25.289 -14.523  0.00  0.00    +0.276 A 
ATOM      5  C   UNL     1      36.826 -25.266 -14.602  0.00  0.00    +0.059 A 
ATOM      6  C   UNL     1      36.602 -23.058 -15.619  0.00  0.00    +0.083 A 
ATOM      7  C   UNL     1      37.461 -24.157 -15.147  0.00  0.00    +0.020 A 
ATOM      8  C   UNL     1      37.579 -26.348 -14.132  0.00  0.00    +0.005 C 
ATOM      9  C   UNL     1      38.857 -24.119 -15.228  0.00  0.00    +0.001 C 
ATOM     10  C   UNL     1      38.971 -26.310 -14.213  0.00  0.00    +0.000 C 
ATOM     11  C   UNL     1      39.607 -25.198 -14.759  0.00  0.00    +0.000 C 
ENDROOT
BRANCH   2  13
ATOM     12  N   UNL     1      30.330 -23.678 -15.559  0.00  0.00    +0.386 N 
ATOM     13  C   UNL     1      33.235 -24.082 -14.984  0.00  0.00    +0.106 C 
ATOM     14  C   UNL     1      32.784 -23.780 -13.551  0.00  0.00    +0.022 C 
ATOM     15  C   UNL     1      32.769 -23.001 -15.962  0.00  0.00    +0.002 C 
ATOM     16  C   UNL     1      31.282 -23.878 -13.301  0.00  0.00    -0.021 C 
ATOM     17  C   UNL     1      31.345 -23.188 -16.498  0.00  0.00    -0.075 C 
ATOM     18  C   UNL     1      30.390 -23.058 -14.235  0.00  0.00    -0.077 C 
ATOM     19  C   UNL     1      28.998 -23.543 -16.152  0.00  0.00    -0.101 C 
ATOM     20  H   UNL     1      30.537 -24.663 -15.397  0.00  0.00    -0.080 HD
ENDBRANCH   2  13
BRANCH   6  21
ATOM     21  C   UNL     1      37.241 -21.829 -16.221  0.00  0.00    +0.074 C 
BRANCH  21  23
ATOM     22 CL   UNL     1      34.839 -20.614 -21.585  0.00  0.00    -0.082 Cl
ATOM     23  C   UNL     1      36.643 -21.527 -17.558  0.00  0.00    -0.016 C 
ATOM     24  C   UNL     1      37.230 -20.567 -18.379  0.00  0.00    -0.003 C 
ATOM     25  C   UNL     1      35.501 -22.206 -17.976  0.00  0.00    -0.003 C 
ATOM     26  C   UNL     1      36.672 -20.285 -19.626  0.00  0.00    +0.011 C 
ATOM     27  C   UNL     1      34.942 -21.923 -19.222  0.00  0.00    +0.011 C 
ATOM     28  C   UNL     1      35.528 -20.962 -20.048  0.00  0.00    +0.058 C 
ENDBRANCH  21  23
ENDBRANCH   6  21
TORSDOF 3
ENDMDL
MODEL 9
REMARK VINA RESULT:      -9.7      2.947      7.293
REMARK  Name = 2267
REMARK  3 active torsions:
REMARK  status: ('A' for Active; 'I' for Inactive)
REMARK    1  A    between atoms: N_2  and  C_13
REMARK    2  A    between atoms: C_6  and  C_21
REMARK    3  A    between atoms: C_21  and  C_23
REMARK                            x       y       z     vdW  Elec       q    Type
REMARK                         _______ _______ _______ _____ _____    ______ ____
ROOT
ATOM      1  O   UNL     1      33.111 -22.803 -17.860  0.00  0.00    -0.266 OA
ATOM      2  N   UNL     1      32.954 -23.726 -15.736  0.00  0.00    -0.219 N 
ATOM      3  N   UNL     1      33.543 -24.058 -14.550  0.00  0.00    -0.171 NA
ATOM      4  C   UNL     1      33.628 -23.107 -16.787  0.00  0.00    +0.276 A 
ATOM      5  C   UNL     1      35.056 -22.808 -16.577  0.00  0.00    +0.059 A 
ATOM      6  C   UNL     1      34.797 -23.797 -14.359  0.00  0.00    +0.083 A 
ATOM      7  C   UNL     1      35.652 -23.149 -15.368  0.00  0.00    +0.020 A 
ATOM      8  C   UNL     1      35.809 -22.190 -17.581  0.00  0.00    +0.005 C 
ATOM      9  C   UNL     1      37.006 -22.874 -15.152  0.00  0.00    +0.001 C 
ATOM     10  C   UNL     1      37.159 -21.915 -17.366  0.00  0.00    +0.000 C 
ATOM     11  C   UNL     1      37.756 -22.257 -16.154  0.00  0.00    +0.000 C 
ENDROOT
BRANCH   2  13
ATOM     12  N   UNL     1      28.593 -24.144 -16.266  0.00  0.00    +0.386 N 
ATOM     13  C   UNL     1      31.549 -24.068 -15.832  0.00  0.00    +0.106 C 
ATOM     14  C   UNL     1      31.208 -25.075 -14.729  0.00  0.00    +0.022 C 
ATOM     15  C   UNL     1      30.703 -22.797 -15.718  0.00  0.00    +0.002 C 
ATOM     16  C   UNL     1      29.824 -25.712 -14.827  0.00  0.00    -0.021 C 
ATOM     17  C   UNL     1      29.326 -22.878 -16.384  0.00  0.00    -0.075 C 
ATOM     18  C   UNL     1      28.644 -24.743 -14.932  0.00  0.00    -0.077 C 
ATOM     19  C   UNL     1      27.212 -23.963 -16.717  0.00  0.00    -0.101 C 
ATOM     20  H   UNL     1      29.069 -24.811 -16.872  0.00  0.00    -0.080 HD
ENDBRANCH   2  13
BRANCH   6  21
ATOM     21  C   UNL     1      35.394 -24.188 -13.028  0.00  0.00    +0.074 C 
BRANCH  21  23
ATOM     22 CL   UNL     1      40.711 -26.861 -13.810  0.00  0.00    -0.082 Cl
ATOM     23  C   UNL     1      36.718 -24.855 -13.222  0.00  0.00    -0.016 C 
ATOM     24  C   UNL     1      37.841 -24.376 -12.550  0.00  0.00    -0.003 C 
ATOM     25  C   UNL     1      36.826 -25.951 -14.076  0.00  0.00    -0.003 C 
ATOM     26  C   UNL     1      39.076 -24.997 -12.731  0.00  0.00    +0.011 C 
ATOM     27  C   UNL     1      38.061 -26.571 -14.258  0.00  0.00    +0.011 C 
ATOM     28  C   UNL     1      39.187 -26.095 -13.585  0.00  0.00    +0.058 C 
ENDBRANCH  21  23
ENDBRANCH   6  21
TORSDOF 3
ENDMDL
