MODEL 1
REMARK VINA RESULT:     -12.1      0.000      0.000
REMARK  Name = 46937052
REMARK  7 active torsions:
REMARK  status: ('A' for Active; 'I' for Inactive)
REMARK    1  A    between atoms: O_1  and  C_3
REMARK    2  A    between atoms: O_1  and  C_17
REMARK    3  A    between atoms: C_4  and  C_11
REMARK    4  A    between atoms: C_17  and  C_18
REMARK    5  A    between atoms: C_18  and  N_19
REMARK    6  A    between atoms: C_18  and  C_23
REMARK    7  A    between atoms: C_23  and  C_25
REMARK                            x       y       z     vdW  Elec       q    Type
REMARK                         _______ _______ _______ _____ _____    ______ ____
ROOT
ATOM      1  O   UNL     1      35.143 -15.214 -22.954  0.00  0.00    -0.476 OA
ENDROOT
BRANCH   1   3
ATOM      2  N   UNL     1      34.192 -18.412 -24.454  0.00  0.00    -0.239 NA
ATOM      3  C   UNL     1      34.919 -16.560 -23.081  0.00  0.00    +0.158 C 
ATOM      4  C   UNL     1      34.933 -18.792 -22.185  0.00  0.00    +0.039 C 
ATOM      5  C   UNL     1      35.169 -17.431 -22.027  0.00  0.00    +0.042 C 
ATOM      6  C   UNL     1      34.435 -17.096 -24.263  0.00  0.00    +0.136 C 
ATOM      7  C   UNL     1      34.448 -19.228 -23.408  0.00  0.00    +0.101 C 
BRANCH   4  11
ATOM      8  N   UNL     1      36.389 -19.842 -20.614  0.00  0.00    -0.264 NA
ATOM      9  N   UNL     1      35.552 -22.424 -18.089  0.00  0.00    -0.150 NA
ATOM     10  N   UNL     1      34.184 -22.931 -17.979  0.00  0.00    -0.147 NA
ATOM     11  C   UNL     1      35.190 -19.751 -21.076  0.00  0.00    +0.078 C 
ATOM     12  C   UNL     1      34.253 -21.379 -19.626  0.00  0.00    +0.040 C 
ATOM     13  C   UNL     1      35.564 -21.534 -19.044  0.00  0.00    +0.107 C 
ATOM     14  C   UNL     1      36.733 -20.756 -19.522  0.00  0.00    +0.173 C 
ATOM     15  C   UNL     1      34.010 -20.536 -20.616  0.00  0.00    +0.022 C 
ATOM     16  C   UNL     1      33.459 -22.321 -18.872  0.00  0.00    +0.123 C 
ENDBRANCH   4  11
ENDBRANCH   1   3
BRANCH   1  17
ATOM     17  C   UNL     1      34.222 -14.483 -22.155  0.00  0.00    +0.184 C 
BRANCH  17  18
ATOM     18  C   UNL     1      33.689 -13.269 -22.927  0.00  0.00    -0.017 C 
BRANCH  18  19
ATOM     19  N   UNL     1      33.625 -13.620 -24.348  0.00  0.00    +0.384 N 
ATOM     20  H   UNL     1      34.567 -13.799 -24.697  0.00  0.00    -0.089 HD
ATOM     21  H   UNL     1      33.209 -12.849 -24.871  0.00  0.00    -0.089 HD
ATOM     22  H   UNL     1      33.055 -14.458 -24.466  0.00  0.00    -0.089 HD
ENDBRANCH  18  19
BRANCH  18  23
ATOM     23  C   UNL     1      32.286 -12.816 -22.453  0.00  0.00    +0.010 C 
BRANCH  23  25
ATOM     24  N   UNL     1      32.181  -9.081 -22.581  0.00  0.00    -0.244 NA
ATOM     25  C   UNL     1      32.186 -11.387 -22.103  0.00  0.00    -0.004 C 
ATOM     26  C   UNL     1      31.990 -10.714 -20.963  0.00  0.00    +0.011 C 
ATOM     27  C   UNL     1      31.985  -9.293 -21.244  0.00  0.00    +0.080 C 
ATOM     28  C   UNL     1      32.295 -10.281 -23.067  0.00  0.00    +0.094 C 
ATOM     29  C   UNL     1      31.803 -11.225 -19.629  0.00  0.00    -0.020 C 
ATOM     30  C   UNL     1      31.806  -8.400 -20.263  0.00  0.00    +0.015 C 
ATOM     31  C   UNL     1      31.602  -8.843 -18.828  0.00  0.00    -0.020 C 
ATOM     32  C   UNL     1      31.621 -10.348 -18.626  0.00  0.00    +0.052 C 
ENDBRANCH  23  25
ENDBRANCH  18  23
ENDBRANCH  17  18
ENDBRANCH   1  17
TORSDOF 7
ENDMDL
MODEL 2
REMARK VINA RESULT:     -11.9      5.196     11.010
REMARK  Name = 46937052
REMARK  7 active torsions:
REMARK  status: ('A' for Active; 'I' for Inactive)
REMARK    1  A    between atoms: O_1  and  C_3
REMARK    2  A    between atoms: O_1  and  C_17
REMARK    3  A    between atoms: C_4  and  C_11
REMARK    4  A    between atoms: C_17  and  C_18
REMARK    5  A    between atoms: C_18  and  N_19
REMARK    6  A    between atoms: C_18  and  C_23
REMARK    7  A    between atoms: C_23  and  C_25
REMARK                            x       y       z     vdW  Elec       q    Type
REMARK                         _______ _______ _______ _____ _____    ______ ____
ROOT
ATOM      1  O   UNL     1      36.186 -22.772 -17.962  0.00  0.00    -0.476 OA
ENDROOT
BRANCH   1   3
ATOM      2  N   UNL     1      32.817 -22.044 -19.188  0.00  0.00    -0.239 NA
ATOM      3  C   UNL     1      35.173 -22.169 -18.661  0.00  0.00    +0.158 C 
ATOM      4  C   UNL     1      34.382 -20.520 -20.223  0.00  0.00    +0.039 C 
ATOM      5  C   UNL     1      35.430 -21.112 -19.527  0.00  0.00    +0.042 C 
ATOM      6  C   UNL     1      33.861 -22.594 -18.528  0.00  0.00    +0.136 C 
ATOM      7  C   UNL     1      33.105 -21.019 -20.020  0.00  0.00    +0.101 C 
BRANCH   4  11
ATOM      8  N   UNL     1      35.223 -18.340 -20.706  0.00  0.00    -0.264 NA
ATOM      9  N   UNL     1      35.124 -16.511 -23.928  0.00  0.00    -0.150 NA
ATOM     10  N   UNL     1      34.500 -17.120 -25.102  0.00  0.00    -0.147 NA
ATOM     11  C   UNL     1      34.624 -19.387 -21.157  0.00  0.00    +0.078 C 
ATOM     12  C   UNL     1      34.348 -18.566 -23.367  0.00  0.00    +0.040 C 
ATOM     13  C   UNL     1      35.022 -17.364 -22.944  0.00  0.00    +0.107 C 
ATOM     14  C   UNL     1      35.505 -17.180 -21.553  0.00  0.00    +0.173 C 
ATOM     15  C   UNL     1      34.121 -19.579 -22.547  0.00  0.00    +0.022 C 
ATOM     16  C   UNL     1      34.059 -18.296 -24.756  0.00  0.00    +0.123 C 
ENDBRANCH   4  11
ENDBRANCH   1   3
BRANCH   1  17
ATOM     17  C   UNL     1      36.304 -22.435 -16.586  0.00  0.00    +0.184 C 
BRANCH  17  18
ATOM     18  C   UNL     1      35.575 -23.469 -15.717  0.00  0.00    -0.017 C 
BRANCH  18  19
ATOM     19  N   UNL     1      36.582 -24.268 -15.014  0.00  0.00    +0.384 N 
ATOM     20  H   UNL     1      37.269 -24.614 -15.683  0.00  0.00    -0.089 HD
ATOM     21  H   UNL     1      36.128 -25.058 -14.553  0.00  0.00    -0.089 HD
ATOM     22  H   UNL     1      37.049 -23.689 -14.315  0.00  0.00    -0.089 HD
ENDBRANCH  18  19
BRANCH  18  23
ATOM     23  C   UNL     1      34.623 -22.826 -14.678  0.00  0.00    +0.010 C 
BRANCH  23  25
ATOM     24  N   UNL     1      32.469 -25.338 -12.939  0.00  0.00    -0.244 NA
ATOM     25  C   UNL     1      33.498 -23.683 -14.261  0.00  0.00    -0.004 C 
ATOM     26  C   UNL     1      32.232 -23.832 -14.670  0.00  0.00    +0.011 C 
ATOM     27  C   UNL     1      31.587 -24.848 -13.864  0.00  0.00    +0.080 C 
ATOM     28  C   UNL     1      33.558 -24.669 -13.171  0.00  0.00    +0.094 C 
ATOM     29  C   UNL     1      31.534 -23.143 -15.725  0.00  0.00    -0.020 C 
ATOM     30  C   UNL     1      30.309 -25.184 -14.076  0.00  0.00    +0.015 C 
ATOM     31  C   UNL     1      29.494 -24.515 -15.165  0.00  0.00    -0.020 C 
ATOM     32  C   UNL     1      30.248 -23.463 -15.958  0.00  0.00    +0.052 C 
ENDBRANCH  23  25
ENDBRANCH  18  23
ENDBRANCH  17  18
ENDBRANCH   1  17
TORSDOF 7
ENDMDL
MODEL 3
REMARK VINA RESULT:     -11.9      1.200      1.843
REMARK  Name = 46937052
REMARK  7 active torsions:
REMARK  status: ('A' for Active; 'I' for Inactive)
REMARK    1  A    between atoms: O_1  and  C_3
REMARK    2  A    between atoms: O_1  and  C_17
REMARK    3  A    between atoms: C_4  and  C_11
REMARK    4  A    between atoms: C_17  and  C_18
REMARK    5  A    between atoms: C_18  and  N_19
REMARK    6  A    between atoms: C_18  and  C_23
REMARK    7  A    between atoms: C_23  and  C_25
REMARK                            x       y       z     vdW  Elec       q    Type
REMARK                         _______ _______ _______ _____ _____    ______ ____
ROOT
ATOM      1  O   UNL     1      34.732 -14.591 -22.043  0.00  0.00    -0.476 OA
ENDROOT
BRANCH   1   3
ATOM      2  N   UNL     1      34.678 -17.530 -24.222  0.00  0.00    -0.239 NA
ATOM      3  C   UNL     1      34.792 -15.902 -22.438  0.00  0.00    +0.158 C 
ATOM      4  C   UNL     1      35.073 -18.240 -21.945  0.00  0.00    +0.039 C 
ATOM      5  C   UNL     1      35.016 -16.918 -21.516  0.00  0.00    +0.042 C 
ATOM      6  C   UNL     1      34.631 -16.257 -23.767  0.00  0.00    +0.136 C 
ATOM      7  C   UNL     1      34.898 -18.490 -23.297  0.00  0.00    +0.101 C 
BRANCH   4  11
ATOM      8  N   UNL     1      36.507 -19.529 -20.541  0.00  0.00    -0.264 NA
ATOM      9  N   UNL     1      35.619 -22.427 -18.406  0.00  0.00    -0.150 NA
ATOM     10  N   UNL     1      34.242 -22.918 -18.367  0.00  0.00    -0.147 NA
ATOM     11  C   UNL     1      35.310 -19.350 -20.983  0.00  0.00    +0.078 C 
ATOM     12  C   UNL     1      34.342 -21.150 -19.777  0.00  0.00    +0.040 C 
ATOM     13  C   UNL     1      35.649 -21.410 -19.226  0.00  0.00    +0.107 C 
ATOM     14  C   UNL     1      36.834 -20.595 -19.591  0.00  0.00    +0.173 C 
ATOM     15  C   UNL     1      34.115 -20.170 -20.637  0.00  0.00    +0.022 C 
ATOM     16  C   UNL     1      33.530 -22.174 -19.162  0.00  0.00    +0.123 C 
ENDBRANCH   4  11
ENDBRANCH   1   3
BRANCH   1  17
ATOM     17  C   UNL     1      33.720 -14.249 -21.106  0.00  0.00    +0.184 C 
BRANCH  17  18
ATOM     18  C   UNL     1      32.915 -13.041 -21.603  0.00  0.00    -0.017 C 
BRANCH  18  19
ATOM     19  N   UNL     1      32.332 -13.382 -22.904  0.00  0.00    +0.384 N 
ATOM     20  H   UNL     1      31.790 -12.591 -23.251  0.00  0.00    -0.089 HD
ATOM     21  H   UNL     1      31.721 -14.193 -22.801  0.00  0.00    -0.089 HD
ATOM     22  H   UNL     1      33.078 -13.599 -23.565  0.00  0.00    -0.089 HD
ENDBRANCH  18  19
BRANCH  18  23
ATOM     23  C   UNL     1      31.782 -12.625 -20.633  0.00  0.00    +0.010 C 
BRANCH  23  25
ATOM     24  N   UNL     1      32.055  -9.506 -18.592  0.00  0.00    -0.244 NA
ATOM     25  C   UNL     1      31.833 -11.220 -20.192  0.00  0.00    -0.004 C 
ATOM     26  C   UNL     1      31.729 -10.039 -20.812  0.00  0.00    +0.011 C 
ATOM     27  C   UNL     1      31.864  -8.975 -19.838  0.00  0.00    +0.080 C 
ATOM     28  C   UNL     1      32.036 -10.788 -18.800  0.00  0.00    +0.094 C 
ATOM     29  C   UNL     1      31.519  -9.766 -22.211  0.00  0.00    -0.020 C 
ATOM     30  C   UNL     1      31.796  -7.691 -20.210  0.00  0.00    +0.015 C 
ATOM     31  C   UNL     1      31.576  -7.306 -21.659  0.00  0.00    -0.020 C 
ATOM     32  C   UNL     1      31.447  -8.483 -22.610  0.00  0.00    +0.052 C 
ENDBRANCH  23  25
ENDBRANCH  18  23
ENDBRANCH  17  18
ENDBRANCH   1  17
TORSDOF 7
ENDMDL
MODEL 4
REMARK VINA RESULT:     -11.8      6.570     10.322
REMARK  Name = 46937052
REMARK  7 active torsions:
REMARK  status: ('A' for Active; 'I' for Inactive)
REMARK    1  A    between atoms: O_1  and  C_3
REMARK    2  A    between atoms: O_1  and  C_17
REMARK    3  A    between atoms: C_4  and  C_11
REMARK    4  A    between atoms: C_17  and  C_18
REMARK    5  A    between atoms: C_18  and  N_19
REMARK    6  A    between atoms: C_18  and  C_23
REMARK    7  A    between atoms: C_23  and  C_25
REMARK                            x       y       z     vdW  Elec       q    Type
REMARK                         _______ _______ _______ _____ _____    ______ ____
ROOT
ATOM      1  O   UNL     1      36.601 -23.731 -15.748  0.00  0.00    -0.476 OA
ENDROOT
BRANCH   1   3
ATOM      2  N   UNL     1      35.151 -24.177 -12.419  0.00  0.00    -0.239 NA
ATOM      3  C   UNL     1      35.664 -23.937 -14.769  0.00  0.00    +0.158 C 
ATOM      4  C   UNL     1      33.393 -24.316 -14.073  0.00  0.00    +0.039 C 
ATOM      5  C   UNL     1      34.322 -24.111 -15.087  0.00  0.00    +0.042 C 
ATOM      6  C   UNL     1      36.024 -23.978 -13.432  0.00  0.00    +0.136 C 
ATOM      7  C   UNL     1      33.855 -24.341 -12.767  0.00  0.00    +0.101 C 
BRANCH   4  11
ATOM      8  N   UNL     1      31.358 -25.551 -13.911  0.00  0.00    -0.264 NA
ATOM      9  N   UNL     1      28.058 -24.726 -15.384  0.00  0.00    -0.150 NA
ATOM     10  N   UNL     1      27.893 -23.518 -16.191  0.00  0.00    -0.147 NA
ATOM     11  C   UNL     1      31.949 -24.506 -14.379  0.00  0.00    +0.078 C 
ATOM     12  C   UNL     1      30.042 -23.633 -15.489  0.00  0.00    +0.040 C 
ATOM     13  C   UNL     1      29.304 -24.769 -14.994  0.00  0.00    +0.107 C 
ATOM     14  C   UNL     1      29.940 -25.819 -14.160  0.00  0.00    +0.173 C 
ATOM     15  C   UNL     1      31.327 -23.453 -15.230  0.00  0.00    +0.022 C 
ATOM     16  C   UNL     1      29.043 -22.909 -16.240  0.00  0.00    +0.123 C 
ENDBRANCH   4  11
ENDBRANCH   1   3
BRANCH   1  17
ATOM     17  C   UNL     1      37.288 -22.487 -15.727  0.00  0.00    +0.184 C 
BRANCH  17  18
ATOM     18  C   UNL     1      36.705 -21.534 -16.777  0.00  0.00    -0.017 C 
BRANCH  18  19
ATOM     19  N   UNL     1      37.555 -20.342 -16.838  0.00  0.00    +0.384 N 
ATOM     20  H   UNL     1      38.313 -20.430 -16.162  0.00  0.00    -0.089 HD
ATOM     21  H   UNL     1      36.998 -19.516 -16.619  0.00  0.00    -0.089 HD
ATOM     22  H   UNL     1      37.945 -20.251 -17.776  0.00  0.00    -0.089 HD
ENDBRANCH  18  19
BRANCH  18  23
ATOM     23  C   UNL     1      36.616 -22.166 -18.188  0.00  0.00    +0.010 C 
BRANCH  23  25
ATOM     24  N   UNL     1      33.687 -20.938 -20.160  0.00  0.00    -0.244 NA
ATOM     25  C   UNL     1      35.745 -21.443 -19.133  0.00  0.00    -0.004 C 
ATOM     26  C   UNL     1      35.945 -20.483 -20.044  0.00  0.00    +0.011 C 
ATOM     27  C   UNL     1      34.685 -20.163 -20.683  0.00  0.00    +0.080 C 
ATOM     28  C   UNL     1      34.298 -21.667 -19.275  0.00  0.00    +0.094 C 
ATOM     29  C   UNL     1      37.170 -19.814 -20.402  0.00  0.00    -0.020 C 
ATOM     30  C   UNL     1      34.618 -19.227 -21.638  0.00  0.00    +0.015 C 
ATOM     31  C   UNL     1      35.854 -18.471 -22.082  0.00  0.00    -0.020 C 
ATOM     32  C   UNL     1      37.128 -18.869 -21.359  0.00  0.00    +0.052 C 
ENDBRANCH  23  25
ENDBRANCH  18  23
ENDBRANCH  17  18
ENDBRANCH   1  17
TORSDOF 7
ENDMDL
MODEL 5
REMARK VINA RESULT:     -11.8      1.754      9.980
REMARK  Name = 46937052
REMARK  7 active torsions:
REMARK  status: ('A' for Active; 'I' for Inactive)
REMARK    1  A    between atoms: O_1  and  C_3
REMARK    2  A    between atoms: O_1  and  C_17
REMARK    3  A    between atoms: C_4  and  C_11
REMARK    4  A    between atoms: C_17  and  C_18
REMARK    5  A    between atoms: C_18  and  N_19
REMARK    6  A    between atoms: C_18  and  C_23
REMARK    7  A    between atoms: C_23  and  C_25
REMARK                            x       y       z     vdW  Elec       q    Type
REMARK                         _______ _______ _______ _____ _____    ______ ____
ROOT
ATOM      1  O   UNL     1      35.671 -17.432 -22.650  0.00  0.00    -0.476 OA
ENDROOT
BRANCH   1   3
ATOM      2  N   UNL     1      33.798 -15.905 -25.396  0.00  0.00    -0.239 NA
ATOM      3  C   UNL     1      34.877 -16.546 -23.330  0.00  0.00    +0.158 C 
ATOM      4  C   UNL     1      33.545 -14.545 -23.413  0.00  0.00    +0.039 C 
ATOM      5  C   UNL     1      34.349 -15.426 -22.698  0.00  0.00    +0.042 C 
ATOM      6  C   UNL     1      34.574 -16.739 -24.668  0.00  0.00    +0.136 C 
ATOM      7  C   UNL     1      33.303 -14.827 -24.748  0.00  0.00    +0.101 C 
BRANCH   4  11
ATOM      8  N   UNL     1      32.316 -13.486 -21.664  0.00  0.00    -0.264 NA
ATOM      9  N   UNL     1      31.527  -9.885 -21.278  0.00  0.00    -0.150 NA
ATOM     10  N   UNL     1      31.974  -8.921 -22.282  0.00  0.00    -0.147 NA
ATOM     11  C   UNL     1      32.965 -13.337 -22.767  0.00  0.00    +0.078 C 
ATOM     12  C   UNL     1      32.669 -10.986 -22.898  0.00  0.00    +0.040 C 
ATOM     13  C   UNL     1      31.939 -11.065 -21.657  0.00  0.00    +0.107 C 
ATOM     14  C   UNL     1      31.714 -12.354 -20.957  0.00  0.00    +0.173 C 
ATOM     15  C   UNL     1      33.186 -12.051 -23.488  0.00  0.00    +0.022 C 
ATOM     16  C   UNL     1      32.624  -9.575 -23.202  0.00  0.00    +0.123 C 
ENDBRANCH   4  11
ENDBRANCH   1   3
BRANCH   1  17
ATOM     17  C   UNL     1      35.186 -17.898 -21.398  0.00  0.00    +0.184 C 
BRANCH  17  18
ATOM     18  C   UNL     1      34.759 -19.368 -21.502  0.00  0.00    -0.017 C 
BRANCH  18  19
ATOM     19  N   UNL     1      34.866 -19.779 -22.904  0.00  0.00    +0.384 N 
ATOM     20  H   UNL     1      34.129 -20.451 -23.118  0.00  0.00    -0.089 HD
ATOM     21  H   UNL     1      35.776 -20.211 -23.063  0.00  0.00    -0.089 HD
ATOM     22  H   UNL     1      34.766 -18.962 -23.506  0.00  0.00    -0.089 HD
ENDBRANCH  18  19
BRANCH  18  23
ATOM     23  C   UNL     1      35.620 -20.314 -20.629  0.00  0.00    +0.010 C 
BRANCH  23  25
ATOM     24  N   UNL     1      32.921 -22.283 -18.952  0.00  0.00    -0.244 NA
ATOM     25  C   UNL     1      34.853 -21.163 -19.699  0.00  0.00    -0.004 C 
ATOM     26  C   UNL     1      35.141 -21.798 -18.557  0.00  0.00    +0.011 C 
ATOM     27  C   UNL     1      33.960 -22.491 -18.086  0.00  0.00    +0.080 C 
ATOM     28  C   UNL     1      33.437 -21.524 -19.871  0.00  0.00    +0.094 C 
ATOM     29  C   UNL     1      36.388 -21.846 -17.836  0.00  0.00    -0.020 C 
ATOM     30  C   UNL     1      33.988 -23.206 -16.955  0.00  0.00    +0.015 C 
ATOM     31  C   UNL     1      35.254 -23.314 -16.128  0.00  0.00    -0.020 C 
ATOM     32  C   UNL     1      36.441 -22.557 -16.695  0.00  0.00    +0.052 C 
ENDBRANCH  23  25
ENDBRANCH  18  23
ENDBRANCH  17  18
ENDBRANCH   1  17
TORSDOF 7
ENDMDL
MODEL 6
REMARK VINA RESULT:     -11.7      3.174      6.433
REMARK  Name = 46937052
REMARK  7 active torsions:
REMARK  status: ('A' for Active; 'I' for Inactive)
REMARK    1  A    between atoms: O_1  and  C_3
REMARK    2  A    between atoms: O_1  and  C_17
REMARK    3  A    between atoms: C_4  and  C_11
REMARK    4  A    between atoms: C_17  and  C_18
REMARK    5  A    between atoms: C_18  and  N_19
REMARK    6  A    between atoms: C_18  and  C_23
REMARK    7  A    between atoms: C_23  and  C_25
REMARK                            x       y       z     vdW  Elec       q    Type
REMARK                         _______ _______ _______ _____ _____    ______ ____
ROOT
ATOM      1  O   UNL     1      33.675 -20.480 -20.773  0.00  0.00    -0.476 OA
ENDROOT
BRANCH   1   3
ATOM      2  N   UNL     1      35.793 -22.372 -18.467  0.00  0.00    -0.239 NA
ATOM      3  C   UNL     1      34.040 -21.264 -19.710  0.00  0.00    +0.158 C 
ATOM      4  C   UNL     1      33.492 -22.538 -17.745  0.00  0.00    +0.039 C 
ATOM      5  C   UNL     1      33.092 -21.745 -18.815  0.00  0.00    +0.042 C 
ATOM      6  C   UNL     1      35.366 -21.603 -19.494  0.00  0.00    +0.136 C 
ATOM      7  C   UNL     1      34.843 -22.820 -17.617  0.00  0.00    +0.101 C 
BRANCH   4  11
ATOM      8  N   UNL     1      31.249 -22.898 -17.017  0.00  0.00    -0.264 NA
ATOM      9  N   UNL     1      30.088 -24.616 -13.945  0.00  0.00    -0.150 NA
ATOM     10  N   UNL     1      31.057 -25.163 -12.995  0.00  0.00    -0.147 NA
ATOM     11  C   UNL     1      32.502 -23.068 -16.769  0.00  0.00    +0.078 C 
ATOM     12  C   UNL     1      32.182 -24.214 -14.716  0.00  0.00    +0.040 C 
ATOM     13  C   UNL     1      30.761 -24.075 -14.924  0.00  0.00    +0.107 C 
ATOM     14  C   UNL     1      30.204 -23.388 -16.115  0.00  0.00    +0.173 C 
ATOM     15  C   UNL     1      33.075 -23.743 -15.571  0.00  0.00    +0.022 C 
ATOM     16  C   UNL     1      32.249 -24.918 -13.456  0.00  0.00    +0.123 C 
ENDBRANCH   4  11
ENDBRANCH   1   3
BRANCH   1  17
ATOM     17  C   UNL     1      34.704 -20.117 -21.685  0.00  0.00    +0.184 C 
BRANCH  17  18
ATOM     18  C   UNL     1      34.855 -18.591 -21.741  0.00  0.00    -0.017 C 
BRANCH  18  19
ATOM     19  N   UNL     1      35.724 -18.175 -20.637  0.00  0.00    +0.384 N 
ATOM     20  H   UNL     1      36.239 -17.337 -20.908  0.00  0.00    -0.089 HD
ATOM     21  H   UNL     1      36.382 -18.924 -20.421  0.00  0.00    -0.089 HD
ATOM     22  H   UNL     1      35.155 -17.973 -19.815  0.00  0.00    -0.089 HD
ENDBRANCH  18  19
BRANCH  18  23
ATOM     23  C   UNL     1      35.457 -18.089 -23.077  0.00  0.00    +0.010 C 
BRANCH  23  25
ATOM     24  N   UNL     1      33.459 -16.009 -25.454  0.00  0.00    -0.244 NA
ATOM     25  C   UNL     1      34.709 -16.993 -23.717  0.00  0.00    -0.004 C 
ATOM     26  C   UNL     1      34.393 -15.742 -23.362  0.00  0.00    +0.011 C 
ATOM     27  C   UNL     1      33.624 -15.125 -24.422  0.00  0.00    +0.080 C 
ATOM     28  C   UNL     1      34.081 -17.074 -25.045  0.00  0.00    +0.094 C 
ATOM     29  C   UNL     1      34.716 -15.035 -22.148  0.00  0.00    -0.020 C 
ATOM     30  C   UNL     1      33.184 -13.865 -24.309  0.00  0.00    +0.015 C 
ATOM     31  C   UNL     1      33.476 -13.043 -23.070  0.00  0.00    -0.020 C 
ATOM     32  C   UNL     1      34.286 -13.768 -22.010  0.00  0.00    +0.052 C 
ENDBRANCH  23  25
ENDBRANCH  18  23
ENDBRANCH  17  18
ENDBRANCH   1  17
TORSDOF 7
ENDMDL
MODEL 7
REMARK VINA RESULT:     -11.7      3.390      6.573
REMARK  Name = 46937052
REMARK  7 active torsions:
REMARK  status: ('A' for Active; 'I' for Inactive)
REMARK    1  A    between atoms: O_1  and  C_3
REMARK    2  A    between atoms: O_1  and  C_17
REMARK    3  A    between atoms: C_4  and  C_11
REMARK    4  A    between atoms: C_17  and  C_18
REMARK    5  A    between atoms: C_18  and  N_19
REMARK    6  A    between atoms: C_18  and  C_23
REMARK    7  A    between atoms: C_23  and  C_25
REMARK                            x       y       z     vdW  Elec       q    Type
REMARK                         _______ _______ _______ _____ _____    ______ ____
ROOT
ATOM      1  O   UNL     1      35.315 -20.906 -20.264  0.00  0.00    -0.476 OA
ENDROOT
BRANCH   1   3
ATOM      2  N   UNL     1      32.624 -22.617 -18.470  0.00  0.00    -0.239 NA
ATOM      3  C   UNL     1      34.669 -21.619 -19.288  0.00  0.00    +0.158 C 
ATOM      4  C   UNL     1      34.665 -22.786 -17.185  0.00  0.00    +0.039 C 
ATOM      5  C   UNL     1      35.346 -22.064 -18.158  0.00  0.00    +0.042 C 
ATOM      6  C   UNL     1      33.321 -21.919 -19.396  0.00  0.00    +0.136 C 
ATOM      7  C   UNL     1      33.316 -23.034 -17.387  0.00  0.00    +0.101 C 
BRANCH   4  11
ATOM      8  N   UNL     1      36.647 -23.328 -15.974  0.00  0.00    -0.264 NA
ATOM      9  N   UNL     1      36.932 -24.641 -12.519  0.00  0.00    -0.150 NA
ATOM     10  N   UNL     1      35.730 -24.901 -11.728  0.00  0.00    -0.147 NA
ATOM     11  C   UNL     1      35.360 -23.276 -15.964  0.00  0.00    +0.078 C 
ATOM     12  C   UNL     1      35.108 -24.109 -13.756  0.00  0.00    +0.040 C 
ATOM     13  C   UNL     1      36.546 -24.187 -13.681  0.00  0.00    +0.107 C 
ATOM     14  C   UNL     1      37.416 -23.794 -14.818  0.00  0.00    +0.173 C 
ATOM     15  C   UNL     1      34.475 -23.681 -14.836  0.00  0.00    +0.022 C 
ATOM     16  C   UNL     1      34.697 -24.592 -12.458  0.00  0.00    +0.123 C 
ENDBRANCH   4  11
ENDBRANCH   1   3
BRANCH   1  17
ATOM     17  C   UNL     1      34.508 -20.089 -21.101  0.00  0.00    +0.184 C 
BRANCH  17  18
ATOM     18  C   UNL     1      35.191 -18.739 -21.353  0.00  0.00    -0.017 C 
BRANCH  18  19
ATOM     19  N   UNL     1      36.403 -18.677 -20.532  0.00  0.00    +0.384 N 
ATOM     20  H   UNL     1      36.184 -18.242 -19.636  0.00  0.00    -0.089 HD
ATOM     21  H   UNL     1      37.112 -18.125 -21.014  0.00  0.00    -0.089 HD
ATOM     22  H   UNL     1      36.755 -19.622 -20.374  0.00  0.00    -0.089 HD
ENDBRANCH  18  19
BRANCH  18  23
ATOM     23  C   UNL     1      35.573 -18.519 -22.838  0.00  0.00    +0.010 C 
BRANCH  23  25
ATOM     24  N   UNL     1      33.609 -16.482 -25.281  0.00  0.00    -0.244 NA
ATOM     25  C   UNL     1      34.835 -17.433 -23.509  0.00  0.00    -0.004 C 
ATOM     26  C   UNL     1      34.520 -16.174 -23.184  0.00  0.00    +0.011 C 
ATOM     27  C   UNL     1      33.765 -15.577 -24.266  0.00  0.00    +0.080 C 
ATOM     28  C   UNL     1      34.222 -17.540 -24.843  0.00  0.00    +0.094 C 
ATOM     29  C   UNL     1      34.833 -15.443 -21.983  0.00  0.00    -0.020 C 
ATOM     30  C   UNL     1      33.329 -14.314 -24.185  0.00  0.00    +0.015 C 
ATOM     31  C   UNL     1      33.610 -13.466 -22.960  0.00  0.00    -0.020 C 
ATOM     32  C   UNL     1      34.405 -14.172 -21.876  0.00  0.00    +0.052 C 
ENDBRANCH  23  25
ENDBRANCH  18  23
ENDBRANCH  17  18
ENDBRANCH   1  17
TORSDOF 7
ENDMDL
MODEL 8
REMARK VINA RESULT:     -11.6      4.917     11.346
REMARK  Name = 46937052
REMARK  7 active torsions:
REMARK  status: ('A' for Active; 'I' for Inactive)
REMARK    1  A    between atoms: O_1  and  C_3
REMARK    2  A    between atoms: O_1  and  C_17
REMARK    3  A    between atoms: C_4  and  C_11
REMARK    4  A    between atoms: C_17  and  C_18
REMARK    5  A    between atoms: C_18  and  N_19
REMARK    6  A    between atoms: C_18  and  C_23
REMARK    7  A    between atoms: C_23  and  C_25
REMARK                            x       y       z     vdW  Elec       q    Type
REMARK                         _______ _______ _______ _____ _____    ______ ____
ROOT
ATOM      1  O   UNL     1      32.946 -22.655 -18.568  0.00  0.00    -0.476 OA
ENDROOT
BRANCH   1   3
ATOM      2  N   UNL     1      36.473 -21.828 -19.077  0.00  0.00    -0.239 NA
ATOM      3  C   UNL     1      34.063 -22.008 -19.030  0.00  0.00    +0.158 C 
ATOM      4  C   UNL     1      35.108 -20.281 -20.338  0.00  0.00    +0.039 C 
ATOM      5  C   UNL     1      33.958 -20.917 -19.885  0.00  0.00    +0.042 C 
ATOM      6  C   UNL     1      35.332 -22.421 -18.659  0.00  0.00    +0.136 C 
ATOM      7  C   UNL     1      36.331 -20.771 -19.908  0.00  0.00    +0.101 C 
BRANCH   4  11
ATOM      8  N   UNL     1      35.368 -17.955 -20.796  0.00  0.00    -0.264 NA
ATOM      9  N   UNL     1      34.707 -16.160 -23.972  0.00  0.00    -0.150 NA
ATOM     10  N   UNL     1      34.211 -16.887 -25.140  0.00  0.00    -0.147 NA
ATOM     11  C   UNL     1      35.030 -19.111 -21.253  0.00  0.00    +0.078 C 
ATOM     12  C   UNL     1      34.482 -18.351 -23.434  0.00  0.00    +0.040 C 
ATOM     13  C   UNL     1      34.854 -17.026 -23.004  0.00  0.00    +0.107 C 
ATOM     14  C   UNL     1      35.325 -16.748 -21.625  0.00  0.00    +0.173 C 
ATOM     15  C   UNL     1      34.541 -19.401 -22.631  0.00  0.00    +0.022 C 
ATOM     16  C   UNL     1      34.087 -18.140 -24.807  0.00  0.00    +0.123 C 
ENDBRANCH   4  11
ENDBRANCH   1   3
BRANCH   1  17
ATOM     17  C   UNL     1      33.153 -23.694 -17.621  0.00  0.00    +0.184 C 
BRANCH  17  18
ATOM     18  C   UNL     1      32.816 -23.204 -16.207  0.00  0.00    -0.017 C 
BRANCH  18  19
ATOM     19  N   UNL     1      31.360 -23.229 -16.046  0.00  0.00    +0.384 N 
ATOM     20  H   UNL     1      30.924 -23.456 -16.939  0.00  0.00    -0.089 HD
ATOM     21  H   UNL     1      31.036 -22.314 -15.732  0.00  0.00    -0.089 HD
ATOM     22  H   UNL     1      31.107 -23.936 -15.355  0.00  0.00    -0.089 HD
ENDBRANCH  18  19
BRANCH  18  23
ATOM     23  C   UNL     1      33.463 -24.066 -15.095  0.00  0.00    +0.010 C 
BRANCH  23  25
ATOM     24  N   UNL     1      36.964 -22.759 -14.994  0.00  0.00    -0.244 NA
ATOM     25  C   UNL     1      34.929 -23.945 -14.995  0.00  0.00    -0.004 C 
ATOM     26  C   UNL     1      35.930 -24.811 -14.797  0.00  0.00    +0.011 C 
ATOM     27  C   UNL     1      37.188 -24.094 -14.794  0.00  0.00    +0.080 C 
ATOM     28  C   UNL     1      35.672 -22.680 -15.108  0.00  0.00    +0.094 C 
ATOM     29  C   UNL     1      35.868 -26.238 -14.606  0.00  0.00    -0.020 C 
ATOM     30  C   UNL     1      38.346 -24.739 -14.613  0.00  0.00    +0.015 C 
ATOM     31  C   UNL     1      38.382 -26.241 -14.405  0.00  0.00    -0.020 C 
ATOM     32  C   UNL     1      37.019 -26.910 -14.422  0.00  0.00    +0.052 C 
ENDBRANCH  23  25
ENDBRANCH  18  23
ENDBRANCH  17  18
ENDBRANCH   1  17
TORSDOF 7
ENDMDL
MODEL 9
REMARK VINA RESULT:     -11.5      4.125      7.626
REMARK  Name = 46937052
REMARK  7 active torsions:
REMARK  status: ('A' for Active; 'I' for Inactive)
REMARK    1  A    between atoms: O_1  and  C_3
REMARK    2  A    between atoms: O_1  and  C_17
REMARK    3  A    between atoms: C_4  and  C_11
REMARK    4  A    between atoms: C_17  and  C_18
REMARK    5  A    between atoms: C_18  and  N_19
REMARK    6  A    between atoms: C_18  and  C_23
REMARK    7  A    between atoms: C_23  and  C_25
REMARK                            x       y       z     vdW  Elec       q    Type
REMARK                         _______ _______ _______ _____ _____    ______ ____
ROOT
ATOM      1  O   UNL     1      35.423 -22.012 -19.526  0.00  0.00    -0.476 OA
ENDROOT
BRANCH   1   3
ATOM      2  N   UNL     1      36.748 -22.327 -16.131  0.00  0.00    -0.239 NA
ATOM      3  C   UNL     1      35.481 -22.309 -18.189  0.00  0.00    +0.158 C 
ATOM      4  C   UNL     1      34.479 -23.160 -16.175  0.00  0.00    +0.039 C 
ATOM      5  C   UNL     1      34.392 -22.870 -17.532  0.00  0.00    +0.042 C 
ATOM      6  C   UNL     1      36.625 -22.059 -17.450  0.00  0.00    +0.136 C 
ATOM      7  C   UNL     1      35.669 -22.872 -15.526  0.00  0.00    +0.101 C 
BRANCH   4  11
ATOM      8  N   UNL     1      33.568 -24.366 -14.330  0.00  0.00    -0.264 NA
ATOM      9  N   UNL     1      30.027 -25.274 -13.713  0.00  0.00    -0.150 NA
ATOM     10  N   UNL     1      28.991 -24.897 -14.674  0.00  0.00    -0.147 NA
ATOM     11  C   UNL     1      33.332 -23.761 -15.442  0.00  0.00    +0.078 C 
ATOM     12  C   UNL     1      30.990 -24.148 -15.429  0.00  0.00    +0.040 C 
ATOM     13  C   UNL     1      31.167 -24.832 -14.172  0.00  0.00    +0.107 C 
ATOM     14  C   UNL     1      32.501 -24.985 -13.540  0.00  0.00    +0.173 C 
ATOM     15  C   UNL     1      32.001 -23.613 -16.095  0.00  0.00    +0.022 C 
ATOM     16  C   UNL     1      29.567 -24.256 -15.650  0.00  0.00    +0.123 C 
ENDBRANCH   4  11
ENDBRANCH   1   3
BRANCH   1  17
ATOM     17  C   UNL     1      36.027 -20.794 -19.939  0.00  0.00    +0.184 C 
BRANCH  17  18
ATOM     18  C   UNL     1      35.204 -20.139 -21.055  0.00  0.00    -0.017 C 
BRANCH  18  19
ATOM     19  N   UNL     1      33.817 -20.024 -20.596  0.00  0.00    +0.384 N 
ATOM     20  H   UNL     1      33.219 -19.772 -21.383  0.00  0.00    -0.089 HD
ATOM     21  H   UNL     1      33.755 -19.303 -19.877  0.00  0.00    -0.089 HD
ATOM     22  H   UNL     1      33.512 -20.917 -20.209  0.00  0.00    -0.089 HD
ENDBRANCH  18  19
BRANCH  18  23
ATOM     23  C   UNL     1      35.725 -18.734 -21.449  0.00  0.00    +0.010 C 
BRANCH  23  25
ATOM     24  N   UNL     1      34.074 -18.231 -24.766  0.00  0.00    -0.244 NA
ATOM     25  C   UNL     1      35.075 -18.147 -22.635  0.00  0.00    -0.004 C 
ATOM     26  C   UNL     1      34.724 -16.906 -22.993  0.00  0.00    +0.011 C 
ATOM     27  C   UNL     1      34.107 -16.944 -24.302  0.00  0.00    +0.080 C 
ATOM     28  C   UNL     1      34.629 -18.913 -23.809  0.00  0.00    +0.094 C 
ATOM     29  C   UNL     1      34.889 -15.673 -22.266  0.00  0.00    -0.020 C 
ATOM     30  C   UNL     1      33.665 -15.823 -24.886  0.00  0.00    +0.015 C 
ATOM     31  C   UNL     1      33.796 -14.478 -24.199  0.00  0.00    -0.020 C 
ATOM     32  C   UNL     1      34.453 -14.533 -22.832  0.00  0.00    +0.052 C 
ENDBRANCH  23  25
ENDBRANCH  18  23
ENDBRANCH  17  18
ENDBRANCH   1  17
TORSDOF 7
ENDMDL
