MODEL 1
REMARK VINA RESULT:     -11.5      0.000      0.000
REMARK  Name = 4249
REMARK  7 active torsions:
REMARK  status: ('A' for Active; 'I' for Inactive)
REMARK    1  A    between atoms: N_1  and  C_17
REMARK    2  A    between atoms: C_2  and  C_8
REMARK    3  A    between atoms: C_2  and  O_15
REMARK    4  A    between atoms: C_17  and  C_18
REMARK    5  A    between atoms: C_18  and  C_19
REMARK    6  A    between atoms: C_19  and  C_21
REMARK    7  A    between atoms: C_21  and  C_23
REMARK                            x       y       z     vdW  Elec       q    Type
REMARK                         _______ _______ _______ _____ _____    ______ ____
ROOT
ATOM      1  N   UNL     1      35.179 -20.554 -19.877  0.00  0.00    +0.387 N 
ATOM      2  C   UNL     1      33.827 -22.684 -18.308  0.00  0.00    +0.103 C 
ATOM      3  C   UNL     1      33.079 -21.538 -19.027  0.00  0.00    +0.008 C 
ATOM      4  C   UNL     1      35.286 -22.238 -18.058  0.00  0.00    +0.008 C 
ATOM      5  C   UNL     1      33.833 -21.003 -20.250  0.00  0.00    -0.075 C 
ATOM      6  C   UNL     1      35.963 -21.652 -19.305  0.00  0.00    -0.075 C 
ATOM      7  H   UNL     1      35.081 -19.830 -19.164  0.00  0.00    -0.080 HD
ENDROOT
BRANCH   2   8
ATOM      8  C   UNL     1      33.182 -23.159 -17.006  0.00  0.00    +0.002 C 
ATOM      9  C   UNL     1      31.793 -23.152 -16.876  0.00  0.00    -0.002 C 
ATOM     10  C   UNL     1      33.981 -23.600 -15.953  0.00  0.00    -0.002 C 
ATOM     11  C   UNL     1      31.205 -23.586 -15.688  0.00  0.00    -0.005 C 
ATOM     12  C   UNL     1      33.392 -24.034 -14.766  0.00  0.00    -0.005 C 
ATOM     13  C   UNL     1      32.003 -24.027 -14.634  0.00  0.00    -0.022 C 
ATOM     14  C   UNL     1      31.373 -24.491 -13.363  0.00  0.00    +0.031 C 
ENDBRANCH   2   8
BRANCH   2  15
ATOM     15  O   UNL     1      33.819 -23.826 -19.178  0.00  0.00    -0.383 OA
ATOM     16  H   UNL     1      34.042 -23.548 -20.080  0.00  0.00    +0.211 HD
ENDBRANCH   2  15
BRANCH   1  17
ATOM     17  C   UNL     1      35.866 -19.980 -21.033  0.00  0.00    -0.077 C 
BRANCH  17  18
ATOM     18  C   UNL     1      34.858 -19.316 -21.974  0.00  0.00    -0.015 C 
BRANCH  18  19
ATOM     19  C   UNL     1      35.498 -18.222 -22.833  0.00  0.00    +0.067 C 
BRANCH  19  21
ATOM     20  O   UNL     1      34.042 -18.397 -24.749  0.00  0.00    -0.291 OA
ATOM     21  C   UNL     1      34.569 -17.675 -23.906  0.00  0.00    +0.173 C 
BRANCH  21  23
ATOM     22  F   UNL     1      33.468 -12.202 -23.950  0.00  0.00    -0.204 F 
ATOM     23  C   UNL     1      34.274 -16.213 -23.917  0.00  0.00    +0.035 C 
ATOM     24  C   UNL     1      34.569 -15.471 -22.796  0.00  0.00    +0.005 C 
ATOM     25  C   UNL     1      33.719 -15.660 -25.050  0.00  0.00    +0.005 C 
ATOM     26  C   UNL     1      34.294 -14.103 -22.807  0.00  0.00    +0.030 C 
ATOM     27  C   UNL     1      33.444 -14.292 -25.061  0.00  0.00    +0.030 C 
ATOM     28  C   UNL     1      33.732 -13.514 -23.939  0.00  0.00    +0.140 C 
ENDBRANCH  21  23
ENDBRANCH  19  21
ENDBRANCH  18  19
ENDBRANCH  17  18
ENDBRANCH   1  17
TORSDOF 7
ENDMDL
MODEL 2
REMARK VINA RESULT:     -11.4      3.394      5.892
REMARK  Name = 4249
REMARK  7 active torsions:
REMARK  status: ('A' for Active; 'I' for Inactive)
REMARK    1  A    between atoms: N_1  and  C_17
REMARK    2  A    between atoms: C_2  and  C_8
REMARK    3  A    between atoms: C_2  and  O_15
REMARK    4  A    between atoms: C_17  and  C_18
REMARK    5  A    between atoms: C_18  and  C_19
REMARK    6  A    between atoms: C_19  and  C_21
REMARK    7  A    between atoms: C_21  and  C_23
REMARK                            x       y       z     vdW  Elec       q    Type
REMARK                         _______ _______ _______ _____ _____    ______ ____
ROOT
ATOM      1  N   UNL     1      34.292 -16.091 -23.146  0.00  0.00    +0.387 N 
ATOM      2  C   UNL     1      35.256 -18.530 -21.749  0.00  0.00    +0.103 C 
ATOM      3  C   UNL     1      34.525 -18.550 -23.111  0.00  0.00    +0.008 C 
ATOM      4  C   UNL     1      34.898 -17.215 -21.018  0.00  0.00    +0.008 C 
ATOM      5  C   UNL     1      34.724 -17.262 -23.918  0.00  0.00    -0.075 C 
ATOM      6  C   UNL     1      35.056 -15.969 -21.901  0.00  0.00    -0.075 C 
ATOM      7  H   UNL     1      33.310 -16.221 -22.903  0.00  0.00    -0.080 HD
ENDROOT
BRANCH   2   8
ATOM      8  C   UNL     1      34.978 -19.735 -20.850  0.00  0.00    +0.002 C 
ATOM      9  C   UNL     1      36.041 -20.436 -20.280  0.00  0.00    -0.002 C 
ATOM     10  C   UNL     1      33.666 -20.130 -20.601  0.00  0.00    -0.002 C 
ATOM     11  C   UNL     1      35.787 -21.535 -19.459  0.00  0.00    -0.005 C 
ATOM     12  C   UNL     1      33.413 -21.229 -19.780  0.00  0.00    -0.005 C 
ATOM     13  C   UNL     1      34.474 -21.931 -19.209  0.00  0.00    -0.022 C 
ATOM     14  C   UNL     1      34.204 -23.107 -18.331  0.00  0.00    +0.031 C 
ENDBRANCH   2   8
BRANCH   2  15
ATOM     15  O   UNL     1      36.668 -18.563 -22.009  0.00  0.00    -0.383 OA
ATOM     16  H   UNL     1      36.820 -18.734 -22.951  0.00  0.00    +0.211 HD
ENDBRANCH   2  15
BRANCH   1  17
ATOM     17  C   UNL     1      34.418 -14.874 -23.947  0.00  0.00    -0.077 C 
BRANCH  17  18
ATOM     18  C   UNL     1      34.137 -13.642 -23.086  0.00  0.00    -0.015 C 
BRANCH  18  19
ATOM     19  C   UNL     1      32.638 -13.406 -22.881  0.00  0.00    +0.067 C 
BRANCH  19  21
ATOM     20  O   UNL     1      32.115 -14.111 -20.633  0.00  0.00    -0.291 OA
ATOM     21  C   UNL     1      32.255 -13.183 -21.425  0.00  0.00    +0.173 C 
BRANCH  21  23
ATOM     22  F   UNL     1      31.548  -7.946 -19.621  0.00  0.00    -0.204 F 
ATOM     23  C   UNL     1      32.065 -11.784 -20.944  0.00  0.00    +0.035 C 
ATOM     24  C   UNL     1      32.018 -11.553 -19.587  0.00  0.00    +0.005 C 
ATOM     25  C   UNL     1      31.945 -10.776 -21.873  0.00  0.00    +0.005 C 
ATOM     26  C   UNL     1      31.842 -10.244 -19.137  0.00  0.00    +0.030 C 
ATOM     27  C   UNL     1      31.768  -9.466 -21.423  0.00  0.00    +0.030 C 
ATOM     28  C   UNL     1      31.717  -9.202 -20.054  0.00  0.00    +0.140 C 
ENDBRANCH  21  23
ENDBRANCH  19  21
ENDBRANCH  18  19
ENDBRANCH  17  18
ENDBRANCH   1  17
TORSDOF 7
ENDMDL
MODEL 3
REMARK VINA RESULT:     -11.1      4.039     10.403
REMARK  Name = 4249
REMARK  7 active torsions:
REMARK  status: ('A' for Active; 'I' for Inactive)
REMARK    1  A    between atoms: N_1  and  C_17
REMARK    2  A    between atoms: C_2  and  C_8
REMARK    3  A    between atoms: C_2  and  O_15
REMARK    4  A    between atoms: C_17  and  C_18
REMARK    5  A    between atoms: C_18  and  C_19
REMARK    6  A    between atoms: C_19  and  C_21
REMARK    7  A    between atoms: C_21  and  C_23
REMARK                            x       y       z     vdW  Elec       q    Type
REMARK                         _______ _______ _______ _____ _____    ______ ____
ROOT
ATOM      1  N   UNL     1      34.640 -15.218 -23.277  0.00  0.00    +0.387 N 
ATOM      2  C   UNL     1      32.736 -13.069 -22.511  0.00  0.00    +0.103 C 
ATOM      3  C   UNL     1      33.099 -13.418 -23.973  0.00  0.00    +0.008 C 
ATOM      4  C   UNL     1      33.874 -13.567 -21.590  0.00  0.00    +0.008 C 
ATOM      5  C   UNL     1      33.515 -14.882 -24.156  0.00  0.00    -0.075 C 
ATOM      6  C   UNL     1      34.287 -15.019 -21.867  0.00  0.00    -0.075 C 
ATOM      7  H   UNL     1      35.412 -14.589 -23.501  0.00  0.00    -0.080 HD
ENDROOT
BRANCH   2   8
ATOM      8  C   UNL     1      32.446 -11.591 -22.253  0.00  0.00    +0.002 C 
ATOM      9  C   UNL     1      31.795 -11.204 -21.082  0.00  0.00    -0.002 C 
ATOM     10  C   UNL     1      32.833 -10.631 -23.187  0.00  0.00    -0.002 C 
ATOM     11  C   UNL     1      31.531  -9.855 -20.846  0.00  0.00    -0.005 C 
ATOM     12  C   UNL     1      32.568  -9.283 -22.951  0.00  0.00    -0.005 C 
ATOM     13  C   UNL     1      31.918  -8.895 -21.780  0.00  0.00    -0.022 C 
ATOM     14  C   UNL     1      31.634  -7.452 -21.527  0.00  0.00    +0.031 C 
ENDBRANCH   2   8
BRANCH   2  15
ATOM     15  O   UNL     1      31.520 -13.760 -22.185  0.00  0.00    -0.383 OA
ATOM     16  H   UNL     1      31.661 -14.310 -21.399  0.00  0.00    +0.211 HD
ENDBRANCH   2  15
BRANCH   1  17
ATOM     17  C   UNL     1      35.077 -16.594 -23.507  0.00  0.00    -0.077 C 
BRANCH  17  18
ATOM     18  C   UNL     1      35.310 -17.307 -22.174  0.00  0.00    -0.015 C 
BRANCH  18  19
ATOM     19  C   UNL     1      35.942 -18.690 -22.356  0.00  0.00    +0.067 C 
BRANCH  19  21
ATOM     20  O   UNL     1      37.503 -19.055 -20.553  0.00  0.00    -0.291 OA
ATOM     21  C   UNL     1      36.412 -19.316 -21.052  0.00  0.00    +0.173 C 
BRANCH  21  23
ATOM     22  F   UNL     1      33.006 -22.867 -18.412  0.00  0.00    -0.204 F 
ATOM     23  C   UNL     1      35.502 -20.265 -20.348  0.00  0.00    +0.035 C 
ATOM     24  C   UNL     1      36.055 -21.231 -19.537  0.00  0.00    +0.005 C 
ATOM     25  C   UNL     1      34.143 -20.139 -20.533  0.00  0.00    +0.005 C 
ATOM     26  C   UNL     1      35.203 -22.118 -18.877  0.00  0.00    +0.030 C 
ATOM     27  C   UNL     1      33.292 -21.026 -19.874  0.00  0.00    +0.030 C 
ATOM     28  C   UNL     1      33.823 -22.016 -19.045  0.00  0.00    +0.140 C 
ENDBRANCH  21  23
ENDBRANCH  19  21
ENDBRANCH  18  19
ENDBRANCH  17  18
ENDBRANCH   1  17
TORSDOF 7
ENDMDL
MODEL 4
REMARK VINA RESULT:     -11.1      4.829     10.675
REMARK  Name = 4249
REMARK  7 active torsions:
REMARK  status: ('A' for Active; 'I' for Inactive)
REMARK    1  A    between atoms: N_1  and  C_17
REMARK    2  A    between atoms: C_2  and  C_8
REMARK    3  A    between atoms: C_2  and  O_15
REMARK    4  A    between atoms: C_17  and  C_18
REMARK    5  A    between atoms: C_18  and  C_19
REMARK    6  A    between atoms: C_19  and  C_21
REMARK    7  A    between atoms: C_21  and  C_23
REMARK                            x       y       z     vdW  Elec       q    Type
REMARK                         _______ _______ _______ _____ _____    ______ ____
ROOT
ATOM      1  N   UNL     1      32.947 -23.613 -14.985  0.00  0.00    +0.387 N 
ATOM      2  C   UNL     1      33.714 -23.018 -17.793  0.00  0.00    +0.103 C 
ATOM      3  C   UNL     1      34.723 -23.114 -16.626  0.00  0.00    +0.008 C 
ATOM      4  C   UNL     1      32.315 -22.712 -17.209  0.00  0.00    +0.008 C 
ATOM      5  C   UNL     1      34.253 -24.040 -15.499  0.00  0.00    -0.075 C 
ATOM      6  C   UNL     1      31.931 -23.632 -16.042  0.00  0.00    -0.075 C 
ATOM      7  H   UNL     1      33.040 -22.652 -14.653  0.00  0.00    -0.080 HD
ENDROOT
BRANCH   2   8
ATOM      8  C   UNL     1      34.075 -22.004 -18.878  0.00  0.00    +0.002 C 
ATOM      9  C   UNL     1      35.412 -21.788 -19.210  0.00  0.00    -0.002 C 
ATOM     10  C   UNL     1      33.069 -21.298 -19.534  0.00  0.00    -0.002 C 
ATOM     11  C   UNL     1      35.741 -20.863 -20.201  0.00  0.00    -0.005 C 
ATOM     12  C   UNL     1      33.398 -20.373 -20.524  0.00  0.00    -0.005 C 
ATOM     13  C   UNL     1      34.735 -20.156 -20.858  0.00  0.00    -0.022 C 
ATOM     14  C   UNL     1      35.088 -19.166 -21.917  0.00  0.00    +0.031 C 
ENDBRANCH   2   8
BRANCH   2  15
ATOM     15  O   UNL     1      33.687 -24.293 -18.454  0.00  0.00    -0.383 OA
ATOM     16  H   UNL     1      32.821 -24.708 -18.321  0.00  0.00    +0.211 HD
ENDBRANCH   2  15
BRANCH   1  17
ATOM     17  C   UNL     1      32.537 -24.456 -13.863  0.00  0.00    -0.077 C 
BRANCH  17  18
ATOM     18  C   UNL     1      33.745 -25.198 -13.288  0.00  0.00    -0.015 C 
BRANCH  18  19
ATOM     19  C   UNL     1      34.515 -24.353 -12.269  0.00  0.00    +0.067 C 
BRANCH  19  21
ATOM     20  O   UNL     1      35.850 -25.508 -10.623  0.00  0.00    -0.291 OA
ATOM     21  C   UNL     1      35.776 -25.030 -11.753  0.00  0.00    +0.173 C 
BRANCH  21  23
ATOM     22  F   UNL     1      40.189 -25.412 -15.152  0.00  0.00    -0.204 F 
ATOM     23  C   UNL     1      36.954 -25.133 -12.661  0.00  0.00    +0.035 C 
ATOM     24  C   UNL     1      37.069 -24.234 -13.698  0.00  0.00    +0.005 C 
ATOM     25  C   UNL     1      37.884 -26.122 -12.429  0.00  0.00    +0.005 C 
ATOM     26  C   UNL     1      38.173 -24.329 -14.547  0.00  0.00    +0.030 C 
ATOM     27  C   UNL     1      38.987 -26.217 -13.278  0.00  0.00    +0.030 C 
ATOM     28  C   UNL     1      39.131 -25.320 -14.337  0.00  0.00    +0.140 C 
ENDBRANCH  21  23
ENDBRANCH  19  21
ENDBRANCH  18  19
ENDBRANCH  17  18
ENDBRANCH   1  17
TORSDOF 7
ENDMDL
MODEL 5
REMARK VINA RESULT:     -11.0      3.144      5.843
REMARK  Name = 4249
REMARK  7 active torsions:
REMARK  status: ('A' for Active; 'I' for Inactive)
REMARK    1  A    between atoms: N_1  and  C_17
REMARK    2  A    between atoms: C_2  and  C_8
REMARK    3  A    between atoms: C_2  and  O_15
REMARK    4  A    between atoms: C_17  and  C_18
REMARK    5  A    between atoms: C_18  and  C_19
REMARK    6  A    between atoms: C_19  and  C_21
REMARK    7  A    between atoms: C_21  and  C_23
REMARK                            x       y       z     vdW  Elec       q    Type
REMARK                         _______ _______ _______ _____ _____    ______ ____
ROOT
ATOM      1  N   UNL     1      34.281 -16.413 -23.619  0.00  0.00    +0.387 N 
ATOM      2  C   UNL     1      35.282 -18.699 -22.007  0.00  0.00    +0.103 C 
ATOM      3  C   UNL     1      34.495 -18.856 -23.328  0.00  0.00    +0.008 C 
ATOM      4  C   UNL     1      34.966 -17.309 -21.408  0.00  0.00    +0.008 C 
ATOM      5  C   UNL     1      34.671 -17.665 -24.277  0.00  0.00    -0.075 C 
ATOM      6  C   UNL     1      35.097 -16.167 -22.425  0.00  0.00    -0.075 C 
ATOM      7  H   UNL     1      33.308 -16.503 -23.323  0.00  0.00    -0.080 HD
ENDROOT
BRANCH   2   8
ATOM      8  C   UNL     1      35.032 -19.797 -20.972  0.00  0.00    +0.002 C 
ATOM      9  C   UNL     1      36.110 -20.415 -20.341  0.00  0.00    -0.002 C 
ATOM     10  C   UNL     1      33.728 -20.177 -20.661  0.00  0.00    -0.002 C 
ATOM     11  C   UNL     1      35.882 -21.416 -19.396  0.00  0.00    -0.005 C 
ATOM     12  C   UNL     1      33.500 -21.177 -19.717  0.00  0.00    -0.005 C 
ATOM     13  C   UNL     1      34.578 -21.797 -19.084  0.00  0.00    -0.022 C 
ATOM     14  C   UNL     1      34.335 -22.868 -18.074  0.00  0.00    +0.031 C 
ENDBRANCH   2   8
BRANCH   2  15
ATOM     15  O   UNL     1      36.681 -18.778 -22.318  0.00  0.00    -0.383 OA
ATOM     16  H   UNL     1      37.113 -17.943 -22.082  0.00  0.00    +0.211 HD
ENDBRANCH   2  15
BRANCH   1  17
ATOM     17  C   UNL     1      34.383 -15.291 -24.551  0.00  0.00    -0.077 C 
BRANCH  17  18
ATOM     18  C   UNL     1      33.165 -14.376 -24.414  0.00  0.00    -0.015 C 
BRANCH  18  19
ATOM     19  C   UNL     1      33.496 -13.074 -23.678  0.00  0.00    +0.067 C 
BRANCH  19  21
ATOM     20  O   UNL     1      32.169 -13.727 -21.771  0.00  0.00    -0.291 OA
ATOM     21  C   UNL     1      32.601 -12.817 -22.475  0.00  0.00    +0.173 C 
BRANCH  21  23
ATOM     22  F   UNL     1      31.311  -7.541 -21.182  0.00  0.00    -0.204 F 
ATOM     23  C   UNL     1      32.258 -11.408 -22.129  0.00  0.00    +0.035 C 
ATOM     24  C   UNL     1      32.355 -10.445 -23.108  0.00  0.00    +0.005 C 
ATOM     25  C   UNL     1      31.854 -11.122 -20.844  0.00  0.00    +0.005 C 
ATOM     26  C   UNL     1      32.032  -9.126 -22.785  0.00  0.00    +0.030 C 
ATOM     27  C   UNL     1      31.531  -9.804 -20.520  0.00  0.00    +0.030 C 
ATOM     28  C   UNL     1      31.620  -8.806 -21.492  0.00  0.00    +0.140 C 
ENDBRANCH  21  23
ENDBRANCH  19  21
ENDBRANCH  18  19
ENDBRANCH  17  18
ENDBRANCH   1  17
TORSDOF 7
ENDMDL
MODEL 6
REMARK VINA RESULT:     -10.7      3.448      9.918
REMARK  Name = 4249
REMARK  7 active torsions:
REMARK  status: ('A' for Active; 'I' for Inactive)
REMARK    1  A    between atoms: N_1  and  C_17
REMARK    2  A    between atoms: C_2  and  C_8
REMARK    3  A    between atoms: C_2  and  O_15
REMARK    4  A    between atoms: C_17  and  C_18
REMARK    5  A    between atoms: C_18  and  C_19
REMARK    6  A    between atoms: C_19  and  C_21
REMARK    7  A    between atoms: C_21  and  C_23
REMARK                            x       y       z     vdW  Elec       q    Type
REMARK                         _______ _______ _______ _____ _____    ______ ____
ROOT
ATOM      1  N   UNL     1      35.917 -20.271 -19.794  0.00  0.00    +0.387 N 
ATOM      2  C   UNL     1      35.406 -18.643 -22.226  0.00  0.00    +0.103 C 
ATOM      3  C   UNL     1      36.657 -18.486 -21.332  0.00  0.00    +0.008 C 
ATOM      4  C   UNL     1      34.284 -19.301 -21.391  0.00  0.00    +0.008 C 
ATOM      5  C   UNL     1      37.039 -19.778 -20.601  0.00  0.00    -0.075 C 
ATOM      6  C   UNL     1      34.747 -20.552 -20.632  0.00  0.00    -0.075 C 
ATOM      7  H   UNL     1      35.662 -19.538 -19.131  0.00  0.00    -0.080 HD
ENDROOT
BRANCH   2   8
ATOM      8  C   UNL     1      34.906 -17.350 -22.870  0.00  0.00    +0.002 C 
ATOM      9  C   UNL     1      34.431 -17.365 -24.181  0.00  0.00    -0.002 C 
ATOM     10  C   UNL     1      34.926 -16.159 -22.147  0.00  0.00    -0.002 C 
ATOM     11  C   UNL     1      33.974 -16.184 -24.768  0.00  0.00    -0.005 C 
ATOM     12  C   UNL     1      34.469 -14.979 -22.735  0.00  0.00    -0.005 C 
ATOM     13  C   UNL     1      33.993 -14.992 -24.045  0.00  0.00    -0.022 C 
ATOM     14  C   UNL     1      33.505 -13.730 -24.674  0.00  0.00    +0.031 C 
ENDBRANCH   2   8
BRANCH   2  15
ATOM     15  O   UNL     1      35.755 -19.505 -23.321  0.00  0.00    -0.383 OA
ATOM     16  H   UNL     1      35.032 -20.130 -23.484  0.00  0.00    +0.211 HD
ENDBRANCH   2  15
BRANCH   1  17
ATOM     17  C   UNL     1      36.310 -21.463 -19.044  0.00  0.00    -0.077 C 
BRANCH  17  18
ATOM     18  C   UNL     1      35.179 -22.494 -19.056  0.00  0.00    -0.015 C 
BRANCH  18  19
ATOM     19  C   UNL     1      34.660 -22.803 -17.649  0.00  0.00    +0.067 C 
BRANCH  19  21
ATOM     20  O   UNL     1      32.423 -22.497 -18.500  0.00  0.00    -0.291 OA
ATOM     21  C   UNL     1      33.142 -22.798 -17.551  0.00  0.00    +0.173 C 
BRANCH  21  23
ATOM     22  F   UNL     1      30.773 -24.273 -12.714  0.00  0.00    -0.204 F 
ATOM     23  C   UNL     1      32.509 -23.193 -16.259  0.00  0.00    +0.035 C 
ATOM     24  C   UNL     1      33.323 -23.537 -15.203  0.00  0.00    +0.005 C 
ATOM     25  C   UNL     1      31.135 -23.198 -16.171  0.00  0.00    +0.005 C 
ATOM     26  C   UNL     1      32.730 -23.905 -13.994  0.00  0.00    +0.030 C 
ATOM     27  C   UNL     1      30.543 -23.566 -14.962  0.00  0.00    +0.030 C 
ATOM     28  C   UNL     1      31.342 -23.920 -13.874  0.00  0.00    +0.140 C 
ENDBRANCH  21  23
ENDBRANCH  19  21
ENDBRANCH  18  19
ENDBRANCH  17  18
ENDBRANCH   1  17
TORSDOF 7
ENDMDL
MODEL 7
REMARK VINA RESULT:     -10.7      3.921      9.707
REMARK  Name = 4249
REMARK  7 active torsions:
REMARK  status: ('A' for Active; 'I' for Inactive)
REMARK    1  A    between atoms: N_1  and  C_17
REMARK    2  A    between atoms: C_2  and  C_8
REMARK    3  A    between atoms: C_2  and  O_15
REMARK    4  A    between atoms: C_17  and  C_18
REMARK    5  A    between atoms: C_18  and  C_19
REMARK    6  A    between atoms: C_19  and  C_21
REMARK    7  A    between atoms: C_21  and  C_23
REMARK                            x       y       z     vdW  Elec       q    Type
REMARK                         _______ _______ _______ _____ _____    ______ ____
ROOT
ATOM      1  N   UNL     1      34.068 -16.240 -23.575  0.00  0.00    +0.387 N 
ATOM      2  C   UNL     1      33.669 -13.451 -22.635  0.00  0.00    +0.103 C 
ATOM      3  C   UNL     1      34.467 -14.517 -21.851  0.00  0.00    +0.008 C 
ATOM      4  C   UNL     1      32.698 -14.171 -23.599  0.00  0.00    +0.008 C 
ATOM      5  C   UNL     1      35.093 -15.584 -22.756  0.00  0.00    -0.075 C 
ATOM      6  C   UNL     1      33.374 -15.271 -24.429  0.00  0.00    -0.075 C 
ATOM      7  H   UNL     1      33.381 -16.655 -22.945  0.00  0.00    -0.080 HD
ENDROOT
BRANCH   2   8
ATOM      8  C   UNL     1      32.914 -12.443 -21.768  0.00  0.00    +0.002 C 
ATOM      9  C   UNL     1      32.631 -12.746 -20.436  0.00  0.00    -0.002 C 
ATOM     10  C   UNL     1      32.510 -11.223 -22.308  0.00  0.00    -0.002 C 
ATOM     11  C   UNL     1      31.943 -11.826 -19.645  0.00  0.00    -0.005 C 
ATOM     12  C   UNL     1      31.822 -10.305 -21.517  0.00  0.00    -0.005 C 
ATOM     13  C   UNL     1      31.538 -10.606 -20.185  0.00  0.00    -0.022 C 
ATOM     14  C   UNL     1      30.801  -9.623 -19.339  0.00  0.00    +0.031 C 
ENDBRANCH   2   8
BRANCH   2  15
ATOM     15  O   UNL     1      34.607 -12.673 -23.395  0.00  0.00    -0.383 OA
ATOM     16  H   UNL     1      35.249 -13.264 -23.818  0.00  0.00    +0.211 HD
ENDBRANCH   2  15
BRANCH   1  17
ATOM     17  C   UNL     1      34.661 -17.304 -24.384  0.00  0.00    -0.077 C 
BRANCH  17  18
ATOM     18  C   UNL     1      34.269 -18.674 -23.828  0.00  0.00    -0.015 C 
BRANCH  18  19
ATOM     19  C   UNL     1      35.357 -19.271 -22.930  0.00  0.00    +0.067 C 
BRANCH  19  21
ATOM     20  O   UNL     1      35.178 -17.915 -20.941  0.00  0.00    -0.291 OA
ATOM     21  C   UNL     1      35.114 -19.033 -21.447  0.00  0.00    +0.173 C 
BRANCH  21  23
ATOM     22  F   UNL     1      33.809 -23.396 -18.217  0.00  0.00    -0.204 F 
ATOM     23  C   UNL     1      34.765 -20.199 -20.585  0.00  0.00    +0.035 C 
ATOM     24  C   UNL     1      35.786 -20.950 -20.046  0.00  0.00    +0.005 C 
ATOM     25  C   UNL     1      33.436 -20.480 -20.360  0.00  0.00    +0.005 C 
ATOM     26  C   UNL     1      35.459 -22.041 -19.238  0.00  0.00    +0.030 C 
ATOM     27  C   UNL     1      33.110 -21.571 -19.552  0.00  0.00    +0.030 C 
ATOM     28  C   UNL     1      34.122 -22.350 -18.991  0.00  0.00    +0.140 C 
ENDBRANCH  21  23
ENDBRANCH  19  21
ENDBRANCH  18  19
ENDBRANCH  17  18
ENDBRANCH   1  17
TORSDOF 7
ENDMDL
MODEL 8
REMARK VINA RESULT:     -10.4      3.798      9.816
REMARK  Name = 4249
REMARK  7 active torsions:
REMARK  status: ('A' for Active; 'I' for Inactive)
REMARK    1  A    between atoms: N_1  and  C_17
REMARK    2  A    between atoms: C_2  and  C_8
REMARK    3  A    between atoms: C_2  and  O_15
REMARK    4  A    between atoms: C_17  and  C_18
REMARK    5  A    between atoms: C_18  and  C_19
REMARK    6  A    between atoms: C_19  and  C_21
REMARK    7  A    between atoms: C_21  and  C_23
REMARK                            x       y       z     vdW  Elec       q    Type
REMARK                         _______ _______ _______ _____ _____    ______ ____
ROOT
ATOM      1  N   UNL     1      34.404 -23.161 -16.228  0.00  0.00    +0.387 N 
ATOM      2  C   UNL     1      35.086 -22.086 -18.912  0.00  0.00    +0.103 C 
ATOM      3  C   UNL     1      36.001 -21.953 -17.673  0.00  0.00    +0.008 C 
ATOM      4  C   UNL     1      33.635 -22.314 -18.429  0.00  0.00    +0.008 C 
ATOM      5  C   UNL     1      35.804 -23.084 -16.657  0.00  0.00    -0.075 C 
ATOM      6  C   UNL     1      33.515 -23.414 -17.366  0.00  0.00    -0.075 C 
ATOM      7  H   UNL     1      34.149 -22.259 -15.823  0.00  0.00    -0.080 HD
ENDROOT
BRANCH   2   8
ATOM      8  C   UNL     1      35.148 -20.912 -19.889  0.00  0.00    +0.002 C 
ATOM      9  C   UNL     1      36.353 -20.241 -20.093  0.00  0.00    -0.002 C 
ATOM     10  C   UNL     1      34.001 -20.516 -20.575  0.00  0.00    -0.002 C 
ATOM     11  C   UNL     1      36.409 -19.170 -20.986  0.00  0.00    -0.005 C 
ATOM     12  C   UNL     1      34.058 -19.445 -21.466  0.00  0.00    -0.005 C 
ATOM     13  C   UNL     1      35.262 -18.773 -21.673  0.00  0.00    -0.022 C 
ATOM     14  C   UNL     1      35.323 -17.627 -22.626  0.00  0.00    +0.031 C 
ENDBRANCH   2   8
BRANCH   2  15
ATOM     15  O   UNL     1      35.526 -23.230 -19.660  0.00  0.00    -0.383 OA
ATOM     16  H   UNL     1      35.095 -24.028 -19.316  0.00  0.00    +0.211 HD
ENDBRANCH   2  15
BRANCH   1  17
ATOM     17  C   UNL     1      34.237 -24.194 -15.206  0.00  0.00    -0.077 C 
BRANCH  17  18
ATOM     18  C   UNL     1      33.201 -23.754 -14.171  0.00  0.00    -0.015 C 
BRANCH  18  19
ATOM     19  C   UNL     1      32.443 -24.939 -13.566  0.00  0.00    +0.067 C 
BRANCH  19  21
ATOM     20  O   UNL     1      30.568 -24.614 -12.082  0.00  0.00    -0.291 OA
ATOM     21  C   UNL     1      30.992 -24.623 -13.235  0.00  0.00    +0.173 C 
BRANCH  21  23
ATOM     22  F   UNL     1      27.501 -23.388 -17.414  0.00  0.00    -0.204 F 
ATOM     23  C   UNL     1      30.060 -24.293 -14.352  0.00  0.00    +0.035 C 
ATOM     24  C   UNL     1      29.522 -25.324 -15.090  0.00  0.00    +0.005 C 
ATOM     25  C   UNL     1      29.772 -22.971 -14.603  0.00  0.00    +0.005 C 
ATOM     26  C   UNL     1      28.649 -25.015 -16.134  0.00  0.00    +0.030 C 
ATOM     27  C   UNL     1      28.899 -22.661 -15.647  0.00  0.00    +0.030 C 
ATOM     28  C   UNL     1      28.338 -23.685 -16.412  0.00  0.00    +0.140 C 
ENDBRANCH  21  23
ENDBRANCH  19  21
ENDBRANCH  18  19
ENDBRANCH  17  18
ENDBRANCH   1  17
TORSDOF 7
ENDMDL
MODEL 9
REMARK VINA RESULT:     -10.3      5.582     12.147
REMARK  Name = 4249
REMARK  7 active torsions:
REMARK  status: ('A' for Active; 'I' for Inactive)
REMARK    1  A    between atoms: N_1  and  C_17
REMARK    2  A    between atoms: C_2  and  C_8
REMARK    3  A    between atoms: C_2  and  O_15
REMARK    4  A    between atoms: C_17  and  C_18
REMARK    5  A    between atoms: C_18  and  C_19
REMARK    6  A    between atoms: C_19  and  C_21
REMARK    7  A    between atoms: C_21  and  C_23
REMARK                            x       y       z     vdW  Elec       q    Type
REMARK                         _______ _______ _______ _____ _____    ______ ____
ROOT
ATOM      1  N   UNL     1      32.744 -12.195 -21.908  0.00  0.00    +0.387 N 
ATOM      2  C   UNL     1      31.669  -9.453 -22.300  0.00  0.00    +0.103 C 
ATOM      3  C   UNL     1      32.816 -10.057 -23.141  0.00  0.00    +0.008 C 
ATOM      4  C   UNL     1      31.592 -10.214 -20.956  0.00  0.00    +0.008 C 
ATOM      5  C   UNL     1      32.748 -11.585 -23.242  0.00  0.00    -0.075 C 
ATOM      6  C   UNL     1      31.593 -11.740 -21.122  0.00  0.00    -0.075 C 
ATOM      7  H   UNL     1      33.593 -11.899 -21.424  0.00  0.00    -0.080 HD
ENDROOT
BRANCH   2   8
ATOM      8  C   UNL     1      31.769  -7.947 -22.058  0.00  0.00    +0.002 C 
ATOM      9  C   UNL     1      32.476  -7.465 -20.956  0.00  0.00    -0.002 C 
ATOM     10  C   UNL     1      31.155  -7.058 -22.938  0.00  0.00    -0.002 C 
ATOM     11  C   UNL     1      32.568  -6.091 -20.736  0.00  0.00    -0.005 C 
ATOM     12  C   UNL     1      31.247  -5.684 -22.717  0.00  0.00    -0.005 C 
ATOM     13  C   UNL     1      31.954  -5.201 -21.616  0.00  0.00    -0.022 C 
ATOM     14  C   UNL     1      32.052  -3.731 -21.380  0.00  0.00    +0.031 C 
ENDBRANCH   2   8
BRANCH   2  15
ATOM     15  O   UNL     1      30.445  -9.643 -23.027  0.00  0.00    -0.383 OA
ATOM     16  H   UNL     1      29.694  -9.585 -22.417  0.00  0.00    +0.211 HD
ENDBRANCH   2  15
BRANCH   1  17
ATOM     17  C   UNL     1      32.751 -13.654 -22.011  0.00  0.00    -0.077 C 
BRANCH  17  18
ATOM     18  C   UNL     1      33.266 -14.085 -23.385  0.00  0.00    -0.015 C 
BRANCH  18  19
ATOM     19  C   UNL     1      34.626 -14.784 -23.303  0.00  0.00    +0.067 C 
BRANCH  19  21
ATOM     20  O   UNL     1      34.548 -16.251 -25.218  0.00  0.00    -0.291 OA
ATOM     21  C   UNL     1      34.653 -16.137 -23.999  0.00  0.00    +0.173 C 
BRANCH  21  23
ATOM     22  F   UNL     1      35.334 -20.726 -20.894  0.00  0.00    -0.204 F 
ATOM     23  C   UNL     1      34.836 -17.363 -23.170  0.00  0.00    +0.035 C 
ATOM     24  C   UNL     1      35.344 -17.230 -21.897  0.00  0.00    +0.005 C 
ATOM     25  C   UNL     1      34.488 -18.582 -23.708  0.00  0.00    +0.005 C 
ATOM     26  C   UNL     1      35.514 -18.377 -21.122  0.00  0.00    +0.030 C 
ATOM     27  C   UNL     1      34.658 -19.729 -22.932  0.00  0.00    +0.030 C 
ATOM     28  C   UNL     1      35.171 -19.626 -21.638  0.00  0.00    +0.140 C 
ENDBRANCH  21  23
ENDBRANCH  19  21
ENDBRANCH  18  19
ENDBRANCH  17  18
ENDBRANCH   1  17
TORSDOF 7
ENDMDL
