MODEL 1
REMARK VINA RESULT:     -11.8      0.000      0.000
REMARK  Name = 11978813
REMARK  7 active torsions:
REMARK  status: ('A' for Active; 'I' for Inactive)
REMARK    1  A    between atoms: C_1  and  N_2
REMARK    2  A    between atoms: C_1  and  C_18
REMARK    3  A    between atoms: N_3  and  C_10
REMARK    4  A    between atoms: C_18  and  C_19
REMARK    5  A    between atoms: C_19  and  C_20
REMARK    6  A    between atoms: C_20  and  O_21
REMARK    7  A    between atoms: O_21  and  C_24
REMARK                            x       y       z     vdW  Elec       q    Type
REMARK                         _______ _______ _______ _____ _____    ______ ____
ROOT
ATOM      1  C   UNL     1      35.829 -22.040 -18.505  0.00  0.00    -0.077 C 
ENDROOT
BRANCH   1   2
ATOM      2  N   UNL     1      35.758 -21.270 -19.746  0.00  0.00    +0.389 N 
ATOM      3  N   UNL     1      35.228 -18.979 -21.367  0.00  0.00    -0.312 N 
ATOM      4  C   UNL     1      34.376 -20.857 -20.017  0.00  0.00    -0.055 C 
ATOM      5  C   UNL     1      36.627 -20.090 -19.671  0.00  0.00    -0.055 C 
ATOM      6  C   UNL     1      34.280 -20.099 -21.343  0.00  0.00    +0.068 C 
ATOM      7  C   UNL     1      36.606 -19.306 -20.985  0.00  0.00    +0.068 C 
ATOM      8  H   UNL     1      36.079 -21.867 -20.509  0.00  0.00    -0.080 HD
BRANCH   3  10
ATOM      9  S   UNL     1      34.302 -14.049 -22.025  0.00  0.00    -0.086 S 
ATOM     10  C   UNL     1      34.987 -17.931 -22.262  0.00  0.00    +0.048 C 
ATOM     11  C   UNL     1      34.770 -16.584 -21.823  0.00  0.00    +0.020 C 
ATOM     12  C   UNL     1      34.951 -18.195 -23.649  0.00  0.00    +0.015 C 
ATOM     13  C   UNL     1      34.534 -15.585 -22.773  0.00  0.00    +0.031 C 
ATOM     14  C   UNL     1      34.753 -16.049 -20.492  0.00  0.00    +0.009 C 
ATOM     15  C   UNL     1      34.714 -17.187 -24.573  0.00  0.00    +0.002 C 
ATOM     16  C   UNL     1      34.503 -15.872 -24.152  0.00  0.00    +0.007 C 
ATOM     17  C   UNL     1      34.512 -14.696 -20.462  0.00  0.00    +0.035 C 
ENDBRANCH   3  10
ENDBRANCH   1   2
BRANCH   1  18
ATOM     18  C   UNL     1      36.813 -21.391 -17.532  0.00  0.00    -0.019 C 
BRANCH  18  19
ATOM     19  C   UNL     1      37.330 -22.404 -16.511  0.00  0.00    +0.045 C 
BRANCH  19  20
ATOM     20  C   UNL     1      36.289 -22.700 -15.439  0.00  0.00    +0.205 C 
BRANCH  20  21
ATOM     21  O   UNL     1      35.625 -23.921 -15.737  0.00  0.00    -0.475 OA
BRANCH  21  24
ATOM     22  O   UNL     1      28.716 -22.635 -16.847  0.00  0.00    -0.270 OA
ATOM     23  N   UNL     1      30.956 -23.041 -16.503  0.00  0.00    -0.280 N 
ATOM     24  C   UNL     1      34.317 -24.026 -15.340  0.00  0.00    +0.140 C 
ATOM     25  C   UNL     1      33.314 -23.477 -16.128  0.00  0.00    +0.052 C 
ATOM     26  C   UNL     1      31.984 -23.591 -15.715  0.00  0.00    +0.054 C 
ATOM     27  C   UNL     1      34.012 -24.681 -14.151  0.00  0.00    +0.037 C 
ATOM     28  C   UNL     1      31.661 -24.246 -14.522  0.00  0.00    +0.014 C 
ATOM     29  C   UNL     1      32.682 -24.793 -13.740  0.00  0.00    +0.004 C 
ATOM     30  C   UNL     1      30.258 -24.343 -14.126  0.00  0.00    +0.006 C 
ATOM     31  C   UNL     1      29.619 -23.112 -16.163  0.00  0.00    +0.250 C 
ATOM     32  C   UNL     1      29.295 -23.813 -14.891  0.00  0.00    +0.058 C 
ATOM     33  H   UNL     1      31.202 -22.582 -17.339  0.00  0.00    +0.155 HD
ENDBRANCH  21  24
ENDBRANCH  20  21
ENDBRANCH  19  20
ENDBRANCH  18  19
ENDBRANCH   1  18
TORSDOF 7
ENDMDL
MODEL 2
REMARK VINA RESULT:     -11.4      3.734      6.634
REMARK  Name = 11978813
REMARK  7 active torsions:
REMARK  status: ('A' for Active; 'I' for Inactive)
REMARK    1  A    between atoms: C_1  and  N_2
REMARK    2  A    between atoms: C_1  and  C_18
REMARK    3  A    between atoms: N_3  and  C_10
REMARK    4  A    between atoms: C_18  and  C_19
REMARK    5  A    between atoms: C_19  and  C_20
REMARK    6  A    between atoms: C_20  and  O_21
REMARK    7  A    between atoms: O_21  and  C_24
REMARK                            x       y       z     vdW  Elec       q    Type
REMARK                         _______ _______ _______ _____ _____    ______ ____
ROOT
ATOM      1  C   UNL     1      34.773 -16.158 -24.354  0.00  0.00    -0.077 C 
ENDROOT
BRANCH   1   2
ATOM      2  N   UNL     1      33.890 -15.353 -23.512  0.00  0.00    +0.389 N 
ATOM      3  N   UNL     1      32.993 -12.987 -22.187  0.00  0.00    -0.312 N 
ATOM      4  C   UNL     1      34.621 -14.829 -22.352  0.00  0.00    -0.055 C 
ATOM      5  C   UNL     1      33.314 -14.244 -24.281  0.00  0.00    -0.055 C 
ATOM      6  C   UNL     1      33.693 -14.033 -21.432  0.00  0.00    +0.068 C 
ATOM      7  C   UNL     1      32.343 -13.427 -23.426  0.00  0.00    +0.068 C 
ATOM      8  H   UNL     1      33.133 -15.953 -23.181  0.00  0.00    -0.080 HD
BRANCH   3  10
ATOM      9  S   UNL     1      31.613  -8.120 -22.229  0.00  0.00    -0.086 S 
ATOM     10  C   UNL     1      32.469 -11.900 -21.477  0.00  0.00    +0.048 C 
ATOM     11  C   UNL     1      32.280 -10.613 -22.077  0.00  0.00    +0.020 C 
ATOM     12  C   UNL     1      32.111 -12.065 -20.121  0.00  0.00    +0.015 C 
ATOM     13  C   UNL     1      31.753  -9.571 -21.308  0.00  0.00    +0.031 C 
ATOM     14  C   UNL     1      32.557 -10.181 -23.417  0.00  0.00    +0.009 C 
ATOM     15  C   UNL     1      31.589 -11.015 -19.378  0.00  0.00    +0.002 C 
ATOM     16  C   UNL     1      31.402  -9.757 -19.957  0.00  0.00    +0.007 C 
ATOM     17  C   UNL     1      32.243  -8.860 -23.629  0.00  0.00    +0.035 C 
ENDBRANCH   3  10
ENDBRANCH   1   2
BRANCH   1  18
ATOM     18  C   UNL     1      34.515 -17.647 -24.124  0.00  0.00    -0.019 C 
BRANCH  18  19
ATOM     19  C   UNL     1      35.241 -18.148 -22.877  0.00  0.00    +0.045 C 
BRANCH  19  20
ATOM     20  C   UNL     1      34.982 -19.629 -22.633  0.00  0.00    +0.205 C 
BRANCH  20  21
ATOM     21  O   UNL     1      33.917 -19.785 -21.705  0.00  0.00    -0.475 OA
BRANCH  21  24
ATOM     22  O   UNL     1      31.543 -23.675 -16.241  0.00  0.00    -0.270 OA
ATOM     23  N   UNL     1      32.294 -22.411 -18.013  0.00  0.00    -0.280 N 
ATOM     24  C   UNL     1      34.164 -20.569 -20.607  0.00  0.00    +0.140 C 
ATOM     25  C   UNL     1      33.099 -21.083 -19.878  0.00  0.00    +0.052 C 
ATOM     26  C   UNL     1      33.361 -21.882 -18.762  0.00  0.00    +0.054 C 
ATOM     27  C   UNL     1      35.478 -20.839 -20.239  0.00  0.00    +0.037 C 
ATOM     28  C   UNL     1      34.677 -22.163 -18.378  0.00  0.00    +0.014 C 
ATOM     29  C   UNL     1      35.737 -21.638 -19.122  0.00  0.00    +0.004 C 
ATOM     30  C   UNL     1      34.907 -23.002 -17.205  0.00  0.00    +0.006 C 
ATOM     31  C   UNL     1      32.471 -23.208 -16.899  0.00  0.00    +0.250 C 
ATOM     32  C   UNL     1      33.877 -23.495 -16.506  0.00  0.00    +0.058 C 
ATOM     33  H   UNL     1      31.374 -22.202 -18.297  0.00  0.00    +0.155 HD
ENDBRANCH  21  24
ENDBRANCH  20  21
ENDBRANCH  19  20
ENDBRANCH  18  19
ENDBRANCH   1  18
TORSDOF 7
ENDMDL
MODEL 3
REMARK VINA RESULT:     -11.3      5.289      8.721
REMARK  Name = 11978813
REMARK  7 active torsions:
REMARK  status: ('A' for Active; 'I' for Inactive)
REMARK    1  A    between atoms: C_1  and  N_2
REMARK    2  A    between atoms: C_1  and  C_18
REMARK    3  A    between atoms: N_3  and  C_10
REMARK    4  A    between atoms: C_18  and  C_19
REMARK    5  A    between atoms: C_19  and  C_20
REMARK    6  A    between atoms: C_20  and  O_21
REMARK    7  A    between atoms: O_21  and  C_24
REMARK                            x       y       z     vdW  Elec       q    Type
REMARK                         _______ _______ _______ _____ _____    ______ ____
ROOT
ATOM      1  C   UNL     1      33.212 -14.418 -23.923  0.00  0.00    -0.077 C 
ENDROOT
BRANCH   1   2
ATOM      2  N   UNL     1      33.272 -13.198 -23.119  0.00  0.00    +0.389 N 
ATOM      3  N   UNL     1      32.516 -10.563 -22.319  0.00  0.00    -0.312 N 
ATOM      4  C   UNL     1      33.606 -12.043 -23.960  0.00  0.00    -0.055 C 
ATOM      5  C   UNL     1      31.993 -12.967 -22.437  0.00  0.00    -0.055 C 
ATOM      6  C   UNL     1      33.728 -10.769 -23.121  0.00  0.00    +0.068 C 
ATOM      7  C   UNL     1      32.060 -11.724 -21.548  0.00  0.00    +0.068 C 
ATOM      8  H   UNL     1      34.003 -13.316 -22.417  0.00  0.00    -0.080 HD
BRANCH   3  10
ATOM      9  S   UNL     1      31.361  -5.767 -23.442  0.00  0.00    -0.086 S 
ATOM     10  C   UNL     1      32.248  -9.271 -21.852  0.00  0.00    +0.048 C 
ATOM     11  C   UNL     1      31.951  -8.184 -22.737  0.00  0.00    +0.020 C 
ATOM     12  C   UNL     1      32.269  -9.016 -20.463  0.00  0.00    +0.015 C 
ATOM     13  C   UNL     1      31.693  -6.918 -22.201  0.00  0.00    +0.031 C 
ATOM     14  C   UNL     1      31.866  -8.169 -24.169  0.00  0.00    +0.009 C 
ATOM     15  C   UNL     1      32.010  -7.750 -19.955  0.00  0.00    +0.002 C 
ATOM     16  C   UNL     1      31.719  -6.686 -20.812  0.00  0.00    +0.007 C 
ATOM     17  C   UNL     1      31.556  -6.929 -24.673  0.00  0.00    +0.035 C 
ENDBRANCH   3  10
ENDBRANCH   1   2
BRANCH   1  18
ATOM     18  C   UNL     1      34.282 -15.409 -23.465  0.00  0.00    -0.019 C 
BRANCH  18  19
ATOM     19  C   UNL     1      34.430 -16.561 -24.458  0.00  0.00    +0.045 C 
BRANCH  19  20
ATOM     20  C   UNL     1      34.689 -17.884 -23.750  0.00  0.00    +0.205 C 
BRANCH  20  21
ATOM     21  O   UNL     1      35.700 -17.714 -22.766  0.00  0.00    -0.475 OA
BRANCH  21  24
ATOM     22  O   UNL     1      32.653 -22.687 -18.692  0.00  0.00    -0.270 OA
ATOM     23  N   UNL     1      33.623 -21.073 -20.017  0.00  0.00    -0.280 N 
ATOM     24  C   UNL     1      35.797 -18.686 -21.804  0.00  0.00    +0.140 C 
ATOM     25  C   UNL     1      34.658 -19.375 -21.408  0.00  0.00    +0.052 C 
ATOM     26  C   UNL     1      34.767 -20.365 -20.428  0.00  0.00    +0.054 C 
ATOM     27  C   UNL     1      37.035 -18.969 -21.237  0.00  0.00    +0.037 C 
ATOM     28  C   UNL     1      36.005 -20.661 -19.848  0.00  0.00    +0.014 C 
ATOM     29  C   UNL     1      37.142 -19.959 -20.257  0.00  0.00    +0.004 C 
ATOM     30  C   UNL     1      36.076 -21.704 -18.827  0.00  0.00    +0.006 C 
ATOM     31  C   UNL     1      33.649 -22.064 -19.056  0.00  0.00    +0.250 C 
ATOM     32  C   UNL     1      34.974 -22.365 -18.450  0.00  0.00    +0.058 C 
ATOM     33  H   UNL     1      32.759 -20.850 -20.435  0.00  0.00    +0.155 HD
ENDBRANCH  21  24
ENDBRANCH  20  21
ENDBRANCH  19  20
ENDBRANCH  18  19
ENDBRANCH   1  18
TORSDOF 7
ENDMDL
MODEL 4
REMARK VINA RESULT:     -11.1      5.307      8.428
REMARK  Name = 11978813
REMARK  7 active torsions:
REMARK  status: ('A' for Active; 'I' for Inactive)
REMARK    1  A    between atoms: C_1  and  N_2
REMARK    2  A    between atoms: C_1  and  C_18
REMARK    3  A    between atoms: N_3  and  C_10
REMARK    4  A    between atoms: C_18  and  C_19
REMARK    5  A    between atoms: C_19  and  C_20
REMARK    6  A    between atoms: C_20  and  O_21
REMARK    7  A    between atoms: O_21  and  C_24
REMARK                            x       y       z     vdW  Elec       q    Type
REMARK                         _______ _______ _______ _____ _____    ______ ____
ROOT
ATOM      1  C   UNL     1      32.863 -14.443 -20.618  0.00  0.00    -0.077 C 
ENDROOT
BRANCH   1   2
ATOM      2  N   UNL     1      32.336 -13.306 -21.371  0.00  0.00    +0.389 N 
ATOM      3  N   UNL     1      32.214 -10.591 -22.251  0.00  0.00    -0.312 N 
ATOM      4  C   UNL     1      31.882 -12.249 -20.459  0.00  0.00    -0.055 C 
ATOM      5  C   UNL     1      33.355 -12.774 -22.283  0.00  0.00    -0.055 C 
ATOM      6  C   UNL     1      31.275 -11.078 -21.233  0.00  0.00    +0.068 C 
ATOM      7  C   UNL     1      32.798 -11.619 -23.119  0.00  0.00    +0.068 C 
ATOM      8  H   UNL     1      31.540 -13.631 -21.920  0.00  0.00    -0.080 HD
BRANCH   3  10
ATOM      9  S   UNL     1      32.404  -5.623 -21.315  0.00  0.00    -0.086 S 
ATOM     10  C   UNL     1      32.043  -9.289 -22.736  0.00  0.00    +0.048 C 
ATOM     11  C   UNL     1      32.268  -8.133 -21.920  0.00  0.00    +0.020 C 
ATOM     12  C   UNL     1      31.634  -9.094 -24.073  0.00  0.00    +0.015 C 
ATOM     13  C   UNL     1      32.078  -6.861 -22.469  0.00  0.00    +0.031 C 
ATOM     14  C   UNL     1      32.682  -8.049 -20.549  0.00  0.00    +0.009 C 
ATOM     15  C   UNL     1      31.451  -7.821 -24.596  0.00  0.00    +0.002 C 
ATOM     16  C   UNL     1      31.669  -6.690 -23.807  0.00  0.00    +0.007 C 
ATOM     17  C   UNL     1      32.793  -6.755 -20.102  0.00  0.00    +0.035 C 
ENDBRANCH   3  10
ENDBRANCH   1   2
BRANCH   1  18
ATOM     18  C   UNL     1      34.384 -14.507 -20.748  0.00  0.00    -0.019 C 
BRANCH  18  19
ATOM     19  C   UNL     1      34.860 -15.942 -20.967  0.00  0.00    +0.045 C 
BRANCH  19  20
ATOM     20  C   UNL     1      34.737 -16.358 -22.427  0.00  0.00    +0.205 C 
BRANCH  20  21
ATOM     21  O   UNL     1      35.690 -17.370 -22.722  0.00  0.00    -0.475 OA
BRANCH  21  24
ATOM     22  O   UNL     1      32.598 -22.502 -18.885  0.00  0.00    -0.270 OA
ATOM     23  N   UNL     1      33.582 -20.835 -20.132  0.00  0.00    -0.280 N 
ATOM     24  C   UNL     1      35.783 -18.410 -21.833  0.00  0.00    +0.140 C 
ATOM     25  C   UNL     1      34.632 -19.083 -21.442  0.00  0.00    +0.052 C 
ATOM     26  C   UNL     1      34.737 -20.142 -20.537  0.00  0.00    +0.054 C 
ATOM     27  C   UNL     1      37.028 -18.776 -21.333  0.00  0.00    +0.037 C 
ATOM     28  C   UNL     1      35.982 -20.523 -20.025  0.00  0.00    +0.014 C 
ATOM     29  C   UNL     1      37.131 -19.835 -20.428  0.00  0.00    +0.004 C 
ATOM     30  C   UNL     1      36.049 -21.636 -19.081  0.00  0.00    +0.006 C 
ATOM     31  C   UNL     1      33.603 -21.891 -19.242  0.00  0.00    +0.250 C 
ATOM     32  C   UNL     1      34.936 -22.281 -18.709  0.00  0.00    +0.058 C 
ATOM     33  H   UNL     1      32.713 -20.553 -20.501  0.00  0.00    +0.155 HD
ENDBRANCH  21  24
ENDBRANCH  20  21
ENDBRANCH  19  20
ENDBRANCH  18  19
ENDBRANCH   1  18
TORSDOF 7
ENDMDL
MODEL 5
REMARK VINA RESULT:     -11.0      4.131     10.278
REMARK  Name = 11978813
REMARK  7 active torsions:
REMARK  status: ('A' for Active; 'I' for Inactive)
REMARK    1  A    between atoms: C_1  and  N_2
REMARK    2  A    between atoms: C_1  and  C_18
REMARK    3  A    between atoms: N_3  and  C_10
REMARK    4  A    between atoms: C_18  and  C_19
REMARK    5  A    between atoms: C_19  and  C_20
REMARK    6  A    between atoms: C_20  and  O_21
REMARK    7  A    between atoms: O_21  and  C_24
REMARK                            x       y       z     vdW  Elec       q    Type
REMARK                         _______ _______ _______ _____ _____    ______ ____
ROOT
ATOM      1  C   UNL     1      35.953 -21.076 -19.888  0.00  0.00    -0.077 C 
ENDROOT
BRANCH   1   2
ATOM      2  N   UNL     1      35.650 -22.077 -18.866  0.00  0.00    +0.389 N 
ATOM      3  N   UNL     1      34.581 -23.046 -16.401  0.00  0.00    -0.312 N 
ATOM      4  C   UNL     1      36.283 -21.720 -17.591  0.00  0.00    -0.055 C 
ATOM      5  C   UNL     1      34.199 -22.204 -18.685  0.00  0.00    -0.055 C 
ATOM      6  C   UNL     1      36.020 -22.790 -16.529  0.00  0.00    +0.068 C 
ATOM      7  C   UNL     1      33.865 -23.290 -17.658  0.00  0.00    +0.068 C 
ATOM      8  H   UNL     1      36.022 -22.974 -19.180  0.00  0.00    -0.080 HD
BRANCH   3  10
ATOM      9  S   UNL     1      30.614 -24.450 -13.593  0.00  0.00    -0.086 S 
ATOM     10  C   UNL     1      34.119 -23.630 -15.216  0.00  0.00    +0.048 C 
ATOM     11  C   UNL     1      32.723 -23.780 -14.931  0.00  0.00    +0.020 C 
ATOM     12  C   UNL     1      35.050 -24.090 -14.259  0.00  0.00    +0.015 C 
ATOM     13  C   UNL     1      32.331 -24.372 -13.725  0.00  0.00    +0.031 C 
ATOM     14  C   UNL     1      31.584 -23.404 -15.718  0.00  0.00    +0.009 C 
ATOM     15  C   UNL     1      34.637 -24.674 -13.070  0.00  0.00    +0.002 C 
ATOM     16  C   UNL     1      33.278 -24.824 -12.785  0.00  0.00    +0.007 C 
ATOM     17  C   UNL     1      30.389 -23.710 -15.111  0.00  0.00    +0.035 C 
ENDBRANCH   3  10
ENDBRANCH   1   2
BRANCH   1  18
ATOM     18  C   UNL     1      34.662 -20.516 -20.484  0.00  0.00    -0.019 C 
BRANCH  18  19
ATOM     19  C   UNL     1      34.933 -19.782 -21.796  0.00  0.00    +0.045 C 
BRANCH  19  20
ATOM     20  C   UNL     1      35.979 -18.690 -21.623  0.00  0.00    +0.205 C 
BRANCH  20  21
ATOM     21  O   UNL     1      35.525 -17.734 -20.674  0.00  0.00    -0.475 OA
BRANCH  21  24
ATOM     22  O   UNL     1      33.302 -13.831 -26.191  0.00  0.00    -0.270 OA
ATOM     23  N   UNL     1      34.027 -15.107 -24.417  0.00  0.00    -0.280 N 
ATOM     24  C   UNL     1      34.999 -16.570 -21.172  0.00  0.00    +0.140 C 
ATOM     25  C   UNL     1      34.787 -16.442 -22.539  0.00  0.00    +0.052 C 
ATOM     26  C   UNL     1      34.249 -15.252 -23.036  0.00  0.00    +0.054 C 
ATOM     27  C   UNL     1      34.685 -15.532 -20.301  0.00  0.00    +0.037 C 
ATOM     28  C   UNL     1      33.928 -14.199 -22.173  0.00  0.00    +0.014 C 
ATOM     29  C   UNL     1      34.147 -14.343 -20.800  0.00  0.00    +0.004 C 
ATOM     30  C   UNL     1      33.367 -12.972 -22.734  0.00  0.00    +0.006 C 
ATOM     31  C   UNL     1      33.499 -13.965 -24.985  0.00  0.00    +0.250 C 
ATOM     32  C   UNL     1      33.164 -12.855 -24.052  0.00  0.00    +0.058 C 
ATOM     33  H   UNL     1      34.260 -15.859 -25.010  0.00  0.00    +0.155 HD
ENDBRANCH  21  24
ENDBRANCH  20  21
ENDBRANCH  19  20
ENDBRANCH  18  19
ENDBRANCH   1  18
TORSDOF 7
ENDMDL
MODEL 6
REMARK VINA RESULT:     -11.0      3.471      6.371
REMARK  Name = 11978813
REMARK  7 active torsions:
REMARK  status: ('A' for Active; 'I' for Inactive)
REMARK    1  A    between atoms: C_1  and  N_2
REMARK    2  A    between atoms: C_1  and  C_18
REMARK    3  A    between atoms: N_3  and  C_10
REMARK    4  A    between atoms: C_18  and  C_19
REMARK    5  A    between atoms: C_19  and  C_20
REMARK    6  A    between atoms: C_20  and  O_21
REMARK    7  A    between atoms: O_21  and  C_24
REMARK                            x       y       z     vdW  Elec       q    Type
REMARK                         _______ _______ _______ _____ _____    ______ ____
ROOT
ATOM      1  C   UNL     1      34.843 -17.290 -24.132  0.00  0.00    -0.077 C 
ENDROOT
BRANCH   1   2
ATOM      2  N   UNL     1      34.658 -15.860 -23.888  0.00  0.00    +0.389 N 
ATOM      3  N   UNL     1      33.288 -13.525 -22.978  0.00  0.00    -0.312 N 
ATOM      4  C   UNL     1      33.481 -15.363 -24.609  0.00  0.00    -0.055 C 
ATOM      5  C   UNL     1      34.513 -15.597 -22.452  0.00  0.00    -0.055 C 
ATOM      6  C   UNL     1      33.310 -13.855 -24.408  0.00  0.00    +0.068 C 
ATOM      7  C   UNL     1      34.376 -14.097 -22.178  0.00  0.00    +0.068 C 
ATOM      8  H   UNL     1      35.485 -15.371 -24.230  0.00  0.00    -0.080 HD
BRANCH   3  10
ATOM      9  S   UNL     1      33.538  -8.473 -22.979  0.00  0.00    -0.086 S 
ATOM     10  C   UNL     1      32.706 -12.313 -22.591  0.00  0.00    +0.048 C 
ATOM     11  C   UNL     1      33.294 -11.046 -22.909  0.00  0.00    +0.020 C 
ATOM     12  C   UNL     1      31.496 -12.324 -21.862  0.00  0.00    +0.015 C 
ATOM     13  C   UNL     1      32.658  -9.872 -22.490  0.00  0.00    +0.031 C 
ATOM     14  C   UNL     1      34.501 -10.753 -23.627  0.00  0.00    +0.009 C 
ATOM     15  C   UNL     1      30.883 -11.146 -21.457  0.00  0.00    +0.002 C 
ATOM     16  C   UNL     1      31.452  -9.907 -21.763  0.00  0.00    +0.007 C 
ATOM     17  C   UNL     1      34.747  -9.406 -23.735  0.00  0.00    +0.035 C 
ENDBRANCH   3  10
ENDBRANCH   1   2
BRANCH   1  18
ATOM     18  C   UNL     1      35.225 -18.005 -22.836  0.00  0.00    -0.019 C 
BRANCH  18  19
ATOM     19  C   UNL     1      34.665 -19.426 -22.805  0.00  0.00    +0.045 C 
BRANCH  19  20
ATOM     20  C   UNL     1      34.332 -19.867 -21.385  0.00  0.00    +0.205 C 
BRANCH  20  21
ATOM     21  O   UNL     1      35.450 -20.532 -20.812  0.00  0.00    -0.475 OA
BRANCH  21  24
ATOM     22  O   UNL     1      37.811 -23.423 -14.755  0.00  0.00    -0.270 OA
ATOM     23  N   UNL     1      37.064 -22.483 -16.720  0.00  0.00    -0.280 N 
ATOM     24  C   UNL     1      35.220 -21.260 -19.673  0.00  0.00    +0.140 C 
ATOM     25  C   UNL     1      36.264 -21.495 -18.787  0.00  0.00    +0.052 C 
ATOM     26  C   UNL     1      36.019 -22.236 -17.628  0.00  0.00    +0.054 C 
ATOM     27  C   UNL     1      33.944 -21.752 -19.420  0.00  0.00    +0.037 C 
ATOM     28  C   UNL     1      34.741 -22.739 -17.359  0.00  0.00    +0.014 C 
ATOM     29  C   UNL     1      33.702 -22.494 -18.261  0.00  0.00    +0.004 C 
ATOM     30  C   UNL     1      34.527 -23.509 -16.136  0.00  0.00    +0.006 C 
ATOM     31  C   UNL     1      36.902 -23.205 -15.554  0.00  0.00    +0.250 C 
ATOM     32  C   UNL     1      35.537 -23.731 -15.286  0.00  0.00    +0.058 C 
ATOM     33  H   UNL     1      37.958 -22.122 -16.926  0.00  0.00    +0.155 HD
ENDBRANCH  21  24
ENDBRANCH  20  21
ENDBRANCH  19  20
ENDBRANCH  18  19
ENDBRANCH   1  18
TORSDOF 7
ENDMDL
MODEL 7
REMARK VINA RESULT:     -10.8      3.565      6.287
REMARK  Name = 11978813
REMARK  7 active torsions:
REMARK  status: ('A' for Active; 'I' for Inactive)
REMARK    1  A    between atoms: C_1  and  N_2
REMARK    2  A    between atoms: C_1  and  C_18
REMARK    3  A    between atoms: N_3  and  C_10
REMARK    4  A    between atoms: C_18  and  C_19
REMARK    5  A    between atoms: C_19  and  C_20
REMARK    6  A    between atoms: C_20  and  O_21
REMARK    7  A    between atoms: O_21  and  C_24
REMARK                            x       y       z     vdW  Elec       q    Type
REMARK                         _______ _______ _______ _____ _____    ______ ____
ROOT
ATOM      1  C   UNL     1      34.509 -16.781 -24.668  0.00  0.00    -0.077 C 
ENDROOT
BRANCH   1   2
ATOM      2  N   UNL     1      34.450 -15.362 -24.319  0.00  0.00    +0.389 N 
ATOM      3  N   UNL     1      33.250 -12.967 -23.329  0.00  0.00    -0.312 N 
ATOM      4  C   UNL     1      33.399 -14.686 -25.089  0.00  0.00    -0.055 C 
ATOM      5  C   UNL     1      34.205 -15.194 -22.882  0.00  0.00    -0.055 C 
ATOM      6  C   UNL     1      33.367 -13.188 -24.775  0.00  0.00    +0.068 C 
ATOM      7  C   UNL     1      34.198 -13.713 -22.495  0.00  0.00    +0.068 C 
ATOM      8  H   UNL     1      35.351 -14.941 -24.551  0.00  0.00    -0.080 HD
BRANCH   3  10
ATOM      9  S   UNL     1      31.327 -10.239 -19.527  0.00  0.00    -0.086 S 
ATOM     10  C   UNL     1      32.763 -11.731 -22.889  0.00  0.00    +0.048 C 
ATOM     11  C   UNL     1      32.302 -11.523 -21.549  0.00  0.00    +0.020 C 
ATOM     12  C   UNL     1      32.718 -10.642 -23.788  0.00  0.00    +0.015 C 
ATOM     13  C   UNL     1      31.827 -10.261 -21.177  0.00  0.00    +0.031 C 
ATOM     14  C   UNL     1      32.239 -12.445 -20.451  0.00  0.00    +0.009 C 
ATOM     15  C   UNL     1      32.241  -9.399 -23.396  0.00  0.00    +0.002 C 
ATOM     16  C   UNL     1      31.791  -9.189 -22.091  0.00  0.00    +0.007 C 
ATOM     17  C   UNL     1      31.734 -11.879 -19.306  0.00  0.00    +0.035 C 
ENDBRANCH   3  10
ENDBRANCH   1   2
BRANCH   1  18
ATOM     18  C   UNL     1      34.937 -17.608 -23.456  0.00  0.00    -0.019 C 
BRANCH  18  19
ATOM     19  C   UNL     1      34.360 -19.021 -23.520  0.00  0.00    +0.045 C 
BRANCH  19  20
ATOM     20  C   UNL     1      34.843 -19.878 -22.358  0.00  0.00    +0.205 C 
BRANCH  20  21
ATOM     21  O   UNL     1      33.836 -19.943 -21.356  0.00  0.00    -0.475 OA
BRANCH  21  24
ATOM     22  O   UNL     1      31.512 -23.940 -15.948  0.00  0.00    -0.270 OA
ATOM     23  N   UNL     1      32.247 -22.641 -17.702  0.00  0.00    -0.280 N 
ATOM     24  C   UNL     1      34.093 -20.741 -20.272  0.00  0.00    +0.140 C 
ATOM     25  C   UNL     1      33.034 -21.277 -19.548  0.00  0.00    +0.052 C 
ATOM     26  C   UNL     1      33.307 -22.091 -18.445  0.00  0.00    +0.054 C 
ATOM     27  C   UNL     1      35.410 -21.004 -19.910  0.00  0.00    +0.037 C 
ATOM     28  C   UNL     1      34.626 -22.364 -18.068  0.00  0.00    +0.014 C 
ATOM     29  C   UNL     1      35.680 -21.818 -18.807  0.00  0.00    +0.004 C 
ATOM     30  C   UNL     1      34.867 -23.220 -16.909  0.00  0.00    +0.006 C 
ATOM     31  C   UNL     1      32.433 -23.454 -16.601  0.00  0.00    +0.250 C 
ATOM     32  C   UNL     1      33.843 -23.733 -16.216  0.00  0.00    +0.058 C 
ATOM     33  H   UNL     1      31.324 -22.437 -17.981  0.00  0.00    +0.155 HD
ENDBRANCH  21  24
ENDBRANCH  20  21
ENDBRANCH  19  20
ENDBRANCH  18  19
ENDBRANCH   1  18
TORSDOF 7
ENDMDL
MODEL 8
REMARK VINA RESULT:     -10.8      4.427     10.511
REMARK  Name = 11978813
REMARK  7 active torsions:
REMARK  status: ('A' for Active; 'I' for Inactive)
REMARK    1  A    between atoms: C_1  and  N_2
REMARK    2  A    between atoms: C_1  and  C_18
REMARK    3  A    between atoms: N_3  and  C_10
REMARK    4  A    between atoms: C_18  and  C_19
REMARK    5  A    between atoms: C_19  and  C_20
REMARK    6  A    between atoms: C_20  and  O_21
REMARK    7  A    between atoms: O_21  and  C_24
REMARK                            x       y       z     vdW  Elec       q    Type
REMARK                         _______ _______ _______ _____ _____    ______ ____
ROOT
ATOM      1  C   UNL     1      33.969 -22.263 -19.375  0.00  0.00    -0.077 C 
ENDROOT
BRANCH   1   2
ATOM      2  N   UNL     1      34.170 -22.387 -17.932  0.00  0.00    +0.389 N 
ATOM      3  N   UNL     1      35.068 -23.628 -15.520  0.00  0.00    -0.312 N 
ATOM      4  C   UNL     1      33.496 -23.585 -17.418  0.00  0.00    -0.055 C 
ATOM      5  C   UNL     1      35.602 -22.445 -17.614  0.00  0.00    -0.055 C 
ATOM      6  C   UNL     1      33.651 -23.695 -15.900  0.00  0.00    +0.068 C 
ATOM      7  C   UNL     1      35.829 -22.517 -16.102  0.00  0.00    +0.068 C 
ATOM      8  H   UNL     1      33.767 -21.564 -17.483  0.00  0.00    -0.080 HD
BRANCH   3  10
ATOM      9  S   UNL     1      38.663 -25.801 -12.702  0.00  0.00    -0.086 S 
ATOM     10  C   UNL     1      35.441 -24.148 -14.276  0.00  0.00    +0.048 C 
ATOM     11  C   UNL     1      36.743 -24.694 -14.034  0.00  0.00    +0.020 C 
ATOM     12  C   UNL     1      34.512 -24.141 -13.213  0.00  0.00    +0.015 C 
ATOM     13  C   UNL     1      37.049 -25.198 -12.766  0.00  0.00    +0.031 C 
ATOM     14  C   UNL     1      37.860 -24.822 -14.926  0.00  0.00    +0.009 C 
ATOM     15  C   UNL     1      34.838 -24.647 -11.962  0.00  0.00    +0.002 C 
ATOM     16  C   UNL     1      36.106 -25.180 -11.720  0.00  0.00    +0.007 C 
ATOM     17  C   UNL     1      38.955 -25.402 -14.333  0.00  0.00    +0.035 C 
ENDBRANCH   3  10
ENDBRANCH   1   2
BRANCH   1  18
ATOM     18  C   UNL     1      33.049 -21.082 -19.683  0.00  0.00    -0.019 C 
BRANCH  18  19
ATOM     19  C   UNL     1      33.659 -20.171 -20.747  0.00  0.00    +0.045 C 
BRANCH  19  20
ATOM     20  C   UNL     1      35.172 -20.073 -20.602  0.00  0.00    +0.205 C 
BRANCH  20  21
ATOM     21  O   UNL     1      35.725 -19.433 -21.745  0.00  0.00    -0.475 OA
BRANCH  21  24
ATOM     22  O   UNL     1      33.364 -14.479 -26.273  0.00  0.00    -0.270 OA
ATOM     23  N   UNL     1      34.131 -16.094 -24.822  0.00  0.00    -0.280 N 
ATOM     24  C   UNL     1      35.314 -18.149 -21.994  0.00  0.00    +0.140 C 
ATOM     25  C   UNL     1      34.936 -17.787 -23.281  0.00  0.00    +0.052 C 
ATOM     26  C   UNL     1      34.517 -16.476 -23.524  0.00  0.00    +0.054 C 
ATOM     27  C   UNL     1      35.281 -17.225 -20.954  0.00  0.00    +0.037 C 
ATOM     28  C   UNL     1      34.479 -15.535 -22.490  0.00  0.00    +0.014 C 
ATOM     29  C   UNL     1      34.862 -15.915 -21.200  0.00  0.00    +0.004 C 
ATOM     30  C   UNL     1      34.035 -14.176 -22.786  0.00  0.00    +0.006 C 
ATOM     31  C   UNL     1      33.705 -14.820 -25.142  0.00  0.00    +0.250 C 
ATOM     32  C   UNL     1      33.671 -13.833 -24.029  0.00  0.00    +0.058 C 
ATOM     33  H   UNL     1      34.165 -16.769 -25.538  0.00  0.00    +0.155 HD
ENDBRANCH  21  24
ENDBRANCH  20  21
ENDBRANCH  19  20
ENDBRANCH  18  19
ENDBRANCH   1  18
TORSDOF 7
ENDMDL
MODEL 9
REMARK VINA RESULT:     -10.7      2.386      4.472
REMARK  Name = 11978813
REMARK  7 active torsions:
REMARK  status: ('A' for Active; 'I' for Inactive)
REMARK    1  A    between atoms: C_1  and  N_2
REMARK    2  A    between atoms: C_1  and  C_18
REMARK    3  A    between atoms: N_3  and  C_10
REMARK    4  A    between atoms: C_18  and  C_19
REMARK    5  A    between atoms: C_19  and  C_20
REMARK    6  A    between atoms: C_20  and  O_21
REMARK    7  A    between atoms: O_21  and  C_24
REMARK                            x       y       z     vdW  Elec       q    Type
REMARK                         _______ _______ _______ _____ _____    ______ ____
ROOT
ATOM      1  C   UNL     1      36.282 -21.722 -19.062  0.00  0.00    -0.077 C 
ENDROOT
BRANCH   1   2
ATOM      2  N   UNL     1      36.079 -20.902 -20.255  0.00  0.00    +0.389 N 
ATOM      3  N   UNL     1      35.304 -18.576 -21.721  0.00  0.00    -0.312 N 
ATOM      4  C   UNL     1      34.660 -20.562 -20.412  0.00  0.00    -0.055 C 
ATOM      5  C   UNL     1      36.881 -19.675 -20.181  0.00  0.00    -0.055 C 
ATOM      6  C   UNL     1      34.427 -19.752 -21.690  0.00  0.00    +0.068 C 
ATOM      7  C   UNL     1      36.722 -18.834 -21.450  0.00  0.00    +0.068 C 
ATOM      8  H   UNL     1      36.380 -21.443 -21.067  0.00  0.00    -0.080 HD
BRANCH   3  10
ATOM      9  S   UNL     1      34.033 -13.692 -22.068  0.00  0.00    -0.086 S 
ATOM     10  C   UNL     1      34.940 -17.505 -22.545  0.00  0.00    +0.048 C 
ATOM     11  C   UNL     1      34.670 -16.197 -22.025  0.00  0.00    +0.020 C 
ATOM     12  C   UNL     1      34.830 -17.706 -23.938  0.00  0.00    +0.015 C 
ATOM     13  C   UNL     1      34.310 -15.172 -22.906  0.00  0.00    +0.031 C 
ATOM     14  C   UNL     1      34.707 -15.727 -20.670  0.00  0.00    +0.009 C 
ATOM     15  C   UNL     1      34.471 -16.673 -24.793  0.00  0.00    +0.002 C 
ATOM     16  C   UNL     1      34.206 -15.396 -24.293  0.00  0.00    +0.007 C 
ATOM     17  C   UNL     1      34.385 -14.396 -20.556  0.00  0.00    +0.035 C 
ENDBRANCH   3  10
ENDBRANCH   1   2
BRANCH   1  18
ATOM     18  C   UNL     1      34.995 -21.794 -18.242  0.00  0.00    -0.019 C 
BRANCH  18  19
ATOM     19  C   UNL     1      34.373 -23.187 -18.311  0.00  0.00    +0.045 C 
BRANCH  19  20
ATOM     20  C   UNL     1      33.741 -23.587 -16.984  0.00  0.00    +0.205 C 
BRANCH  20  21
ATOM     21  O   UNL     1      34.389 -22.906 -15.918  0.00  0.00    -0.475 OA
BRANCH  21  24
ATOM     22  O   UNL     1      40.848 -25.526 -14.491  0.00  0.00    -0.270 OA
ATOM     23  N   UNL     1      38.764 -24.671 -14.969  0.00  0.00    -0.280 N 
ATOM     24  C   UNL     1      35.221 -23.652 -15.123  0.00  0.00    +0.140 C 
ATOM     25  C   UNL     1      36.563 -23.776 -15.460  0.00  0.00    +0.052 C 
ATOM     26  C   UNL     1      37.403 -24.537 -14.642  0.00  0.00    +0.054 C 
ATOM     27  C   UNL     1      34.709 -24.275 -13.989  0.00  0.00    +0.037 C 
ATOM     28  C   UNL     1      36.903 -25.170 -13.499  0.00  0.00    +0.014 C 
ATOM     29  C   UNL     1      35.550 -25.036 -13.173  0.00  0.00    +0.004 C 
ATOM     30  C   UNL     1      37.815 -25.956 -12.671  0.00  0.00    +0.006 C 
ATOM     31  C   UNL     1      39.657 -25.405 -14.213  0.00  0.00    +0.250 C 
ATOM     32  C   UNL     1      39.107 -26.071 -13.001  0.00  0.00    +0.058 C 
ATOM     33  H   UNL     1      39.098 -24.219 -15.778  0.00  0.00    +0.155 HD
ENDBRANCH  21  24
ENDBRANCH  20  21
ENDBRANCH  19  20
ENDBRANCH  18  19
ENDBRANCH   1  18
TORSDOF 7
ENDMDL
