MODEL 1
REMARK VINA RESULT:     -12.3      0.000      0.000
REMARK  Name = 24996872
REMARK  6 active torsions:
REMARK  status: ('A' for Active; 'I' for Inactive)
REMARK    1  A    between atoms: O_1  and  C_3
REMARK    2  A    between atoms: O_1  and  C_18
REMARK    3  A    between atoms: C_7  and  C_8
REMARK    4  A    between atoms: C_11  and  S_14
REMARK    5  A    between atoms: C_18  and  C_23
REMARK    6  A    between atoms: C_29  and  C_30
REMARK                            x       y       z     vdW  Elec       q    Type
REMARK                         _______ _______ _______ _____ _____    ______ ____
ROOT
ATOM      1  O   UNL     1      34.963 -16.679 -24.639  0.00  0.00    -0.474 OA
ENDROOT
BRANCH   1   3
ATOM      2  N   UNL     1      34.044 -19.710 -22.803  0.00  0.00    -0.241 NA
ATOM      3  C   UNL     1      34.835 -17.569 -23.601  0.00  0.00    +0.158 C 
ATOM      4  C   UNL     1      35.333 -17.273 -22.338  0.00  0.00    +0.040 C 
ATOM      5  C   UNL     1      34.204 -18.790 -23.780  0.00  0.00    +0.136 C 
ATOM      6  C   UNL     1      35.188 -18.194 -21.306  0.00  0.00    +0.022 C 
ATOM      7  C   UNL     1      34.542 -19.387 -21.588  0.00  0.00    +0.082 C 
BRANCH   7   8
ATOM      8  C   UNL     1      34.355 -20.390 -20.567  0.00  0.00    +0.018 C 
ATOM      9  C   UNL     1      35.460 -21.040 -20.016  0.00  0.00    +0.003 C 
ATOM     10  C   UNL     1      33.070 -20.709 -20.129  0.00  0.00    +0.003 C 
ATOM     11  C   UNL     1      33.993 -22.327 -18.591  0.00  0.00    +0.106 C 
ATOM     12  C   UNL     1      35.278 -22.008 -19.029  0.00  0.00    +0.018 C 
ATOM     13  C   UNL     1      32.888 -21.677 -19.142  0.00  0.00    +0.018 C 
BRANCH  11  14
ATOM     14  S   UNL     1      33.766 -23.539 -17.356  0.00  0.00    +0.010 S 
ATOM     15  O   UNL     1      33.546 -24.819 -18.018  0.00  0.00    -0.169 OA
ATOM     16  O   UNL     1      34.827 -23.411 -16.367  0.00  0.00    -0.169 OA
ATOM     17  C   UNL     1      32.249 -23.073 -16.552  0.00  0.00    +0.182 C 
ENDBRANCH  11  14
ENDBRANCH   7   8
ENDBRANCH   1   3
BRANCH   1  18
ATOM     18  C   UNL     1      33.838 -15.873 -24.939  0.00  0.00    +0.205 C 
BRANCH  18  23
ATOM     19  O   UNL     1      32.116  -9.916 -23.336  0.00  0.00    -0.296 OA
ATOM     20  N   UNL     1      32.942 -12.093 -23.079  0.00  0.00    -0.251 N 
ATOM     21  N   UNL     1      32.370 -10.601 -21.218  0.00  0.00    -0.300 NA
ATOM     22  N   UNL     1      31.706  -8.847 -22.529  0.00  0.00    -0.010 NA
ATOM     23  C   UNL     1      33.996 -14.534 -24.223  0.00  0.00    +0.047 C 
ATOM     24  C   UNL     1      33.231 -14.532 -22.895  0.00  0.00    +0.025 C 
ATOM     25  C   UNL     1      33.497 -13.383 -25.102  0.00  0.00    +0.025 C 
ATOM     26  C   UNL     1      33.349 -13.185 -22.184  0.00  0.00    +0.096 C 
ATOM     27  C   UNL     1      33.608 -12.037 -24.384  0.00  0.00    +0.096 C 
ATOM     28  C   UNL     1      32.490 -10.907 -22.485  0.00  0.00    +0.379 C 
ATOM     29  C   UNL     1      31.885  -9.328 -21.295  0.00  0.00    +0.104 C 
BRANCH  29  30
ATOM     30  C   UNL     1      31.578  -8.535 -20.100  0.00  0.00    +0.101 C 
ATOM     31  C   UNL     1      31.518  -9.380 -18.801  0.00  0.00    +0.017 C 
ATOM     32  C   UNL     1      32.554  -7.351 -19.881  0.00  0.00    +0.017 C 
ENDBRANCH  29  30
ENDBRANCH  18  23
ENDBRANCH   1  18
TORSDOF 6
ENDMDL
MODEL 2
REMARK VINA RESULT:     -12.3      3.611     11.220
REMARK  Name = 24996872
REMARK  6 active torsions:
REMARK  status: ('A' for Active; 'I' for Inactive)
REMARK    1  A    between atoms: O_1  and  C_3
REMARK    2  A    between atoms: O_1  and  C_18
REMARK    3  A    between atoms: C_7  and  C_8
REMARK    4  A    between atoms: C_11  and  S_14
REMARK    5  A    between atoms: C_18  and  C_23
REMARK    6  A    between atoms: C_29  and  C_30
REMARK                            x       y       z     vdW  Elec       q    Type
REMARK                         _______ _______ _______ _____ _____    ______ ____
ROOT
ATOM      1  O   UNL     1      35.444 -18.681 -22.858  0.00  0.00    -0.474 OA
ENDROOT
BRANCH   1   3
ATOM      2  N   UNL     1      34.523 -15.299 -21.801  0.00  0.00    -0.241 NA
ATOM      3  C   UNL     1      34.966 -17.395 -22.922  0.00  0.00    +0.158 C 
ATOM      4  C   UNL     1      34.455 -16.878 -24.106  0.00  0.00    +0.040 C 
ATOM      5  C   UNL     1      34.978 -16.572 -21.806  0.00  0.00    +0.136 C 
ATOM      6  C   UNL     1      33.977 -15.573 -24.140  0.00  0.00    +0.022 C 
ATOM      7  C   UNL     1      34.034 -14.831 -22.971  0.00  0.00    +0.082 C 
BRANCH   7   8
ATOM      8  C   UNL     1      33.557 -13.469 -22.931  0.00  0.00    +0.018 C 
ATOM      9  C   UNL     1      34.183 -12.488 -23.700  0.00  0.00    +0.003 C 
ATOM     10  C   UNL     1      32.468 -13.135 -22.126  0.00  0.00    +0.003 C 
ATOM     11  C   UNL     1      32.633 -10.838 -22.855  0.00  0.00    +0.106 C 
ATOM     12  C   UNL     1      33.721 -11.172 -23.661  0.00  0.00    +0.018 C 
ATOM     13  C   UNL     1      32.006 -11.819 -22.087  0.00  0.00    +0.018 C 
BRANCH  11  14
ATOM     14  S   UNL     1      32.055  -9.191 -22.807  0.00  0.00    +0.010 S 
ATOM     15  O   UNL     1      32.831  -8.415 -23.765  0.00  0.00    -0.169 OA
ATOM     16  O   UNL     1      30.601  -9.198 -22.893  0.00  0.00    -0.169 OA
ATOM     17  C   UNL     1      32.476  -8.622 -21.175  0.00  0.00    +0.182 C 
ENDBRANCH  11  14
ENDBRANCH   7   8
ENDBRANCH   1   3
BRANCH   1  18
ATOM     18  C   UNL     1      36.104 -19.064 -21.666  0.00  0.00    +0.205 C 
BRANCH  18  23
ATOM     19  O   UNL     1      34.423 -23.129 -17.010  0.00  0.00    -0.296 OA
ATOM     20  N   UNL     1      34.202 -21.765 -18.902  0.00  0.00    -0.251 N 
ATOM     21  N   UNL     1      32.318 -22.730 -17.663  0.00  0.00    -0.300 NA
ATOM     22  N   UNL     1      33.598 -23.811 -16.107  0.00  0.00    -0.010 NA
ATOM     23  C   UNL     1      35.390 -20.282 -21.086  0.00  0.00    +0.047 C 
ATOM     24  C   UNL     1      34.036 -19.886 -20.487  0.00  0.00    +0.025 C 
ATOM     25  C   UNL     1      36.247 -20.957 -20.010  0.00  0.00    +0.025 C 
ATOM     26  C   UNL     1      33.325 -21.090 -19.868  0.00  0.00    +0.096 C 
ATOM     27  C   UNL     1      35.529 -22.155 -19.388  0.00  0.00    +0.096 C 
ATOM     28  C   UNL     1      33.589 -22.518 -17.893  0.00  0.00    +0.379 C 
ATOM     29  C   UNL     1      32.373 -23.527 -16.558  0.00  0.00    +0.104 C 
BRANCH  29  30
ATOM     30  C   UNL     1      31.166 -24.042 -15.904  0.00  0.00    +0.101 C 
ATOM     31  C   UNL     1      31.355 -24.309 -14.388  0.00  0.00    +0.017 C 
ATOM     32  C   UNL     1      29.926 -23.133 -16.100  0.00  0.00    +0.017 C 
ENDBRANCH  29  30
ENDBRANCH  18  23
ENDBRANCH   1  18
TORSDOF 6
ENDMDL
MODEL 3
REMARK VINA RESULT:     -11.9      2.804      3.942
REMARK  Name = 24996872
REMARK  6 active torsions:
REMARK  status: ('A' for Active; 'I' for Inactive)
REMARK    1  A    between atoms: O_1  and  C_3
REMARK    2  A    between atoms: O_1  and  C_18
REMARK    3  A    between atoms: C_7  and  C_8
REMARK    4  A    between atoms: C_11  and  S_14
REMARK    5  A    between atoms: C_18  and  C_23
REMARK    6  A    between atoms: C_29  and  C_30
REMARK                            x       y       z     vdW  Elec       q    Type
REMARK                         _______ _______ _______ _____ _____    ______ ____
ROOT
ATOM      1  O   UNL     1      34.730 -19.345 -21.925  0.00  0.00    -0.474 OA
ENDROOT
BRANCH   1   3
ATOM      2  N   UNL     1      36.430 -20.898 -19.078  0.00  0.00    -0.241 NA
ATOM      3  C   UNL     1      34.926 -20.101 -20.795  0.00  0.00    +0.158 C 
ATOM      4  C   UNL     1      33.882 -20.819 -20.223  0.00  0.00    +0.040 C 
ATOM      5  C   UNL     1      36.170 -20.173 -20.190  0.00  0.00    +0.136 C 
ATOM      6  C   UNL     1      34.110 -21.576 -19.079  0.00  0.00    +0.022 C 
ATOM      7  C   UNL     1      35.390 -21.581 -18.550  0.00  0.00    +0.082 C 
BRANCH   7   8
ATOM      8  C   UNL     1      35.701 -22.344 -17.365  0.00  0.00    +0.018 C 
ATOM      9  C   UNL     1      36.987 -22.304 -16.826  0.00  0.00    +0.003 C 
ATOM     10  C   UNL     1      34.715 -23.121 -16.757  0.00  0.00    +0.003 C 
ATOM     11  C   UNL     1      36.300 -23.818 -15.073  0.00  0.00    +0.106 C 
ATOM     12  C   UNL     1      37.286 -23.041 -15.681  0.00  0.00    +0.018 C 
ATOM     13  C   UNL     1      35.014 -23.858 -15.611  0.00  0.00    +0.018 C 
BRANCH  11  14
ATOM     14  S   UNL     1      36.675 -24.740 -13.639  0.00  0.00    +0.010 S 
ATOM     15  O   UNL     1      37.915 -24.218 -13.081  0.00  0.00    -0.169 OA
ATOM     16  O   UNL     1      35.484 -24.820 -12.804  0.00  0.00    -0.169 OA
ATOM     17  C   UNL     1      36.997 -26.383 -14.241  0.00  0.00    +0.182 C 
ENDBRANCH  11  14
ENDBRANCH   7   8
ENDBRANCH   1   3
BRANCH   1  18
ATOM     18  C   UNL     1      35.847 -18.632 -22.423  0.00  0.00    +0.205 C 
BRANCH  18  23
ATOM     19  O   UNL     1      32.342 -13.292 -22.882  0.00  0.00    -0.296 OA
ATOM     20  N   UNL     1      33.812 -14.864 -21.959  0.00  0.00    -0.251 N 
ATOM     21  N   UNL     1      32.806 -13.010 -20.708  0.00  0.00    -0.300 NA
ATOM     22  N   UNL     1      31.619 -12.164 -22.471  0.00  0.00    -0.010 NA
ATOM     23  C   UNL     1      35.578 -17.138 -22.265  0.00  0.00    +0.047 C 
ATOM     24  C   UNL     1      34.856 -16.851 -20.944  0.00  0.00    +0.025 C 
ATOM     25  C   UNL     1      34.738 -16.608 -23.431  0.00  0.00    +0.025 C 
ATOM     26  C   UNL     1      34.546 -15.363 -20.788  0.00  0.00    +0.096 C 
ATOM     27  C   UNL     1      34.422 -15.121 -23.268  0.00  0.00    +0.096 C 
ATOM     28  C   UNL     1      33.012 -13.728 -21.783  0.00  0.00    +0.379 C 
ATOM     29  C   UNL     1      31.945 -12.063 -21.179  0.00  0.00    +0.104 C 
BRANCH  29  30
ATOM     30  C   UNL     1      31.408 -11.000 -20.323  0.00  0.00    +0.101 C 
ATOM     31  C   UNL     1      31.975 -11.029 -18.880  0.00  0.00    +0.017 C 
ATOM     32  C   UNL     1      31.607  -9.580 -20.910  0.00  0.00    +0.017 C 
ENDBRANCH  29  30
ENDBRANCH  18  23
ENDBRANCH   1  18
TORSDOF 6
ENDMDL
MODEL 4
REMARK VINA RESULT:     -11.9      2.668      3.883
REMARK  Name = 24996872
REMARK  6 active torsions:
REMARK  status: ('A' for Active; 'I' for Inactive)
REMARK    1  A    between atoms: O_1  and  C_3
REMARK    2  A    between atoms: O_1  and  C_18
REMARK    3  A    between atoms: C_7  and  C_8
REMARK    4  A    between atoms: C_11  and  S_14
REMARK    5  A    between atoms: C_18  and  C_23
REMARK    6  A    between atoms: C_29  and  C_30
REMARK                            x       y       z     vdW  Elec       q    Type
REMARK                         _______ _______ _______ _____ _____    ______ ____
ROOT
ATOM      1  O   UNL     1      34.727 -19.363 -21.984  0.00  0.00    -0.474 OA
ENDROOT
BRANCH   1   3
ATOM      2  N   UNL     1      36.322 -20.984 -19.115  0.00  0.00    -0.241 NA
ATOM      3  C   UNL     1      34.874 -20.123 -20.850  0.00  0.00    +0.158 C 
ATOM      4  C   UNL     1      33.791 -20.787 -20.286  0.00  0.00    +0.040 C 
ATOM      5  C   UNL     1      36.108 -20.252 -20.232  0.00  0.00    +0.136 C 
ATOM      6  C   UNL     1      33.971 -21.550 -19.137  0.00  0.00    +0.022 C 
ATOM      7  C   UNL     1      35.245 -21.615 -18.596  0.00  0.00    +0.082 C 
BRANCH   7   8
ATOM      8  C   UNL     1      35.507 -22.387 -17.405  0.00  0.00    +0.018 C 
ATOM      9  C   UNL     1      34.496 -23.168 -16.843  0.00  0.00    +0.003 C 
ATOM     10  C   UNL     1      36.770 -22.354 -16.815  0.00  0.00    +0.003 C 
ATOM     11  C   UNL     1      36.013 -23.881 -15.103  0.00  0.00    +0.106 C 
ATOM     12  C   UNL     1      34.750 -23.914 -15.692  0.00  0.00    +0.018 C 
ATOM     13  C   UNL     1      37.024 -23.100 -15.664  0.00  0.00    +0.018 C 
BRANCH  11  14
ATOM     14  S   UNL     1      36.331 -24.815 -13.663  0.00  0.00    +0.010 S 
ATOM     15  O   UNL     1      36.448 -26.214 -14.052  0.00  0.00    -0.169 OA
ATOM     16  O   UNL     1      37.408 -24.180 -12.916  0.00  0.00    -0.169 OA
ATOM     17  C   UNL     1      34.853 -24.642 -12.689  0.00  0.00    +0.182 C 
ENDBRANCH  11  14
ENDBRANCH   7   8
ENDBRANCH   1   3
BRANCH   1  18
ATOM     18  C   UNL     1      35.864 -18.649 -22.433  0.00  0.00    +0.205 C 
BRANCH  18  23
ATOM     19  O   UNL     1      32.321 -13.333 -22.888  0.00  0.00    -0.296 OA
ATOM     20  N   UNL     1      33.814 -14.889 -21.973  0.00  0.00    -0.251 N 
ATOM     21  N   UNL     1      32.815 -13.029 -20.725  0.00  0.00    -0.300 NA
ATOM     22  N   UNL     1      31.597 -12.206 -22.477  0.00  0.00    -0.010 NA
ATOM     23  C   UNL     1      35.588 -17.155 -22.284  0.00  0.00    +0.047 C 
ATOM     24  C   UNL     1      34.884 -16.860 -20.955  0.00  0.00    +0.025 C 
ATOM     25  C   UNL     1      34.729 -16.640 -23.443  0.00  0.00    +0.025 C 
ATOM     26  C   UNL     1      34.568 -15.373 -20.809  0.00  0.00    +0.096 C 
ATOM     27  C   UNL     1      34.406 -15.154 -23.289  0.00  0.00    +0.096 C 
ATOM     28  C   UNL     1      33.010 -13.756 -21.796  0.00  0.00    +0.379 C 
ATOM     29  C   UNL     1      31.942 -12.091 -21.191  0.00  0.00    +0.104 C 
BRANCH  29  30
ATOM     30  C   UNL     1      31.411 -11.024 -20.337  0.00  0.00    +0.101 C 
ATOM     31  C   UNL     1      31.989 -11.045 -18.898  0.00  0.00    +0.017 C 
ATOM     32  C   UNL     1      31.606  -9.607 -20.933  0.00  0.00    +0.017 C 
ENDBRANCH  29  30
ENDBRANCH  18  23
ENDBRANCH   1  18
TORSDOF 6
ENDMDL
MODEL 5
REMARK VINA RESULT:     -11.7      4.094     11.626
REMARK  Name = 24996872
REMARK  6 active torsions:
REMARK  status: ('A' for Active; 'I' for Inactive)
REMARK    1  A    between atoms: O_1  and  C_3
REMARK    2  A    between atoms: O_1  and  C_18
REMARK    3  A    between atoms: C_7  and  C_8
REMARK    4  A    between atoms: C_11  and  S_14
REMARK    5  A    between atoms: C_18  and  C_23
REMARK    6  A    between atoms: C_29  and  C_30
REMARK                            x       y       z     vdW  Elec       q    Type
REMARK                         _______ _______ _______ _____ _____    ______ ____
ROOT
ATOM      1  O   UNL     1      35.526 -18.352 -21.841  0.00  0.00    -0.474 OA
ENDROOT
BRANCH   1   3
ATOM      2  N   UNL     1      34.242 -15.260 -23.322  0.00  0.00    -0.241 NA
ATOM      3  C   UNL     1      35.038 -17.072 -21.933  0.00  0.00    +0.158 C 
ATOM      4  C   UNL     1      34.841 -16.297 -20.796  0.00  0.00    +0.040 C 
ATOM      5  C   UNL     1      34.726 -16.512 -23.162  0.00  0.00    +0.136 C 
ATOM      6  C   UNL     1      34.345 -15.003 -20.920  0.00  0.00    +0.022 C 
ATOM      7  C   UNL     1      34.064 -14.537 -22.194  0.00  0.00    +0.082 C 
BRANCH   7   8
ATOM      8  C   UNL     1      33.547 -13.205 -22.399  0.00  0.00    +0.018 C 
ATOM      9  C   UNL     1      34.139 -12.364 -23.342  0.00  0.00    +0.003 C 
ATOM     10  C   UNL     1      32.454 -12.758 -21.656  0.00  0.00    +0.003 C 
ATOM     11  C   UNL     1      32.546 -10.631 -22.796  0.00  0.00    +0.106 C 
ATOM     12  C   UNL     1      33.638 -11.077 -23.539  0.00  0.00    +0.018 C 
ATOM     13  C   UNL     1      31.954 -11.472 -21.853  0.00  0.00    +0.018 C 
BRANCH  11  14
ATOM     14  S   UNL     1      31.920  -9.020 -23.044  0.00  0.00    +0.010 S 
ATOM     15  O   UNL     1      32.532  -8.481 -24.251  0.00  0.00    -0.169 OA
ATOM     16  O   UNL     1      30.469  -9.053 -22.923  0.00  0.00    -0.169 OA
ATOM     17  C   UNL     1      32.533  -8.089 -21.658  0.00  0.00    +0.182 C 
ENDBRANCH  11  14
ENDBRANCH   7   8
ENDBRANCH   1   3
BRANCH   1  18
ATOM     18  C   UNL     1      34.590 -19.408 -21.953  0.00  0.00    +0.205 C 
BRANCH  18  23
ATOM     19  O   UNL     1      37.176 -21.965 -16.681  0.00  0.00    -0.296 OA
ATOM     20  N   UNL     1      35.687 -21.689 -18.468  0.00  0.00    -0.251 N 
ATOM     21  N   UNL     1      35.289 -23.165 -16.549  0.00  0.00    -0.300 NA
ATOM     22  N   UNL     1      37.257 -22.689 -15.484  0.00  0.00    -0.010 NA
ATOM     23  C   UNL     1      35.042 -20.554 -21.051  0.00  0.00    +0.047 C 
ATOM     24  C   UNL     1      33.953 -20.910 -20.034  0.00  0.00    +0.025 C 
ATOM     25  C   UNL     1      36.333 -20.190 -20.311  0.00  0.00    +0.025 C 
ATOM     26  C   UNL     1      34.406 -22.032 -19.100  0.00  0.00    +0.096 C 
ATOM     27  C   UNL     1      36.779 -21.310 -19.371  0.00  0.00    +0.096 C 
ATOM     28  C   UNL     1      35.987 -22.303 -17.245  0.00  0.00    +0.379 C 
ATOM     29  C   UNL     1      36.108 -23.371 -15.478  0.00  0.00    +0.104 C 
BRANCH  29  30
ATOM     30  C   UNL     1      35.752 -24.284 -14.387  0.00  0.00    +0.101 C 
ATOM     31  C   UNL     1      34.222 -24.420 -14.175  0.00  0.00    +0.017 C 
ATOM     32  C   UNL     1      36.363 -25.699 -14.546  0.00  0.00    +0.017 C 
ENDBRANCH  29  30
ENDBRANCH  18  23
ENDBRANCH   1  18
TORSDOF 6
ENDMDL
MODEL 6
REMARK VINA RESULT:     -11.5      3.734     11.323
REMARK  Name = 24996872
REMARK  6 active torsions:
REMARK  status: ('A' for Active; 'I' for Inactive)
REMARK    1  A    between atoms: O_1  and  C_3
REMARK    2  A    between atoms: O_1  and  C_18
REMARK    3  A    between atoms: C_7  and  C_8
REMARK    4  A    between atoms: C_11  and  S_14
REMARK    5  A    between atoms: C_18  and  C_23
REMARK    6  A    between atoms: C_29  and  C_30
REMARK                            x       y       z     vdW  Elec       q    Type
REMARK                         _______ _______ _______ _____ _____    ______ ____
ROOT
ATOM      1  O   UNL     1      35.680 -18.612 -22.718  0.00  0.00    -0.474 OA
ENDROOT
BRANCH   1   3
ATOM      2  N   UNL     1      34.546 -15.320 -21.587  0.00  0.00    -0.241 NA
ATOM      3  C   UNL     1      35.147 -17.348 -22.759  0.00  0.00    +0.158 C 
ATOM      4  C   UNL     1      34.679 -16.806 -23.950  0.00  0.00    +0.040 C 
ATOM      5  C   UNL     1      35.059 -16.571 -21.615  0.00  0.00    +0.136 C 
ATOM      6  C   UNL     1      34.143 -15.523 -23.962  0.00  0.00    +0.022 C 
ATOM      7  C   UNL     1      34.101 -14.827 -22.764  0.00  0.00    +0.082 C 
BRANCH   7   8
ATOM      8  C   UNL     1      33.560 -13.491 -22.700  0.00  0.00    +0.018 C 
ATOM      9  C   UNL     1      32.596 -13.173 -21.742  0.00  0.00    +0.003 C 
ATOM     10  C   UNL     1      34.000 -12.516 -23.595  0.00  0.00    +0.003 C 
ATOM     11  C   UNL     1      32.514 -10.907 -22.576  0.00  0.00    +0.106 C 
ATOM     12  C   UNL     1      32.074 -11.882 -21.681  0.00  0.00    +0.018 C 
ATOM     13  C   UNL     1      33.477 -11.225 -23.534  0.00  0.00    +0.018 C 
BRANCH  11  14
ATOM     14  S   UNL     1      31.860  -9.291 -22.499  0.00  0.00    +0.010 S 
ATOM     15  O   UNL     1      32.791  -8.397 -23.176  0.00  0.00    -0.169 OA
ATOM     16  O   UNL     1      30.464  -9.325 -22.912  0.00  0.00    -0.169 OA
ATOM     17  C   UNL     1      31.879  -8.888 -20.767  0.00  0.00    +0.182 C 
ENDBRANCH  11  14
ENDBRANCH   7   8
ENDBRANCH   1   3
BRANCH   1  18
ATOM     18  C   UNL     1      34.770 -19.691 -22.607  0.00  0.00    +0.205 C 
BRANCH  18  23
ATOM     19  O   UNL     1      32.515 -23.060 -17.648  0.00  0.00    -0.296 OA
ATOM     20  N   UNL     1      34.029 -21.823 -18.938  0.00  0.00    -0.251 N 
ATOM     21  N   UNL     1      34.640 -23.111 -16.942  0.00  0.00    -0.300 NA
ATOM     22  N   UNL     1      32.527 -23.872 -16.506  0.00  0.00    -0.010 NA
ATOM     23  C   UNL     1      34.572 -20.007 -21.126  0.00  0.00    +0.047 C 
ATOM     24  C   UNL     1      35.617 -21.017 -20.639  0.00  0.00    +0.025 C 
ATOM     25  C   UNL     1      33.167 -20.563 -20.870  0.00  0.00    +0.025 C 
ATOM     26  C   UNL     1      35.408 -21.372 -19.168  0.00  0.00    +0.096 C 
ATOM     27  C   UNL     1      32.965 -20.925 -19.398  0.00  0.00    +0.096 C 
ATOM     28  C   UNL     1      33.798 -22.655 -17.835  0.00  0.00    +0.379 C 
ATOM     29  C   UNL     1      33.815 -23.853 -16.149  0.00  0.00    +0.104 C 
BRANCH  29  30
ATOM     30  C   UNL     1      34.306 -24.584 -14.977  0.00  0.00    +0.101 C 
ATOM     31  C   UNL     1      35.699 -24.103 -14.493  0.00  0.00    +0.017 C 
ATOM     32  C   UNL     1      33.324 -24.556 -13.779  0.00  0.00    +0.017 C 
ENDBRANCH  29  30
ENDBRANCH  18  23
ENDBRANCH   1  18
TORSDOF 6
ENDMDL
MODEL 7
REMARK VINA RESULT:     -11.4      2.896      4.526
REMARK  Name = 24996872
REMARK  6 active torsions:
REMARK  status: ('A' for Active; 'I' for Inactive)
REMARK    1  A    between atoms: O_1  and  C_3
REMARK    2  A    between atoms: O_1  and  C_18
REMARK    3  A    between atoms: C_7  and  C_8
REMARK    4  A    between atoms: C_11  and  S_14
REMARK    5  A    between atoms: C_18  and  C_23
REMARK    6  A    between atoms: C_29  and  C_30
REMARK                            x       y       z     vdW  Elec       q    Type
REMARK                         _______ _______ _______ _____ _____    ______ ____
ROOT
ATOM      1  O   UNL     1      34.085 -19.894 -21.760  0.00  0.00    -0.474 OA
ENDROOT
BRANCH   1   3
ATOM      2  N   UNL     1      33.996 -21.817 -18.646  0.00  0.00    -0.241 NA
ATOM      3  C   UNL     1      34.522 -20.535 -20.628  0.00  0.00    +0.158 C 
ATOM      4  C   UNL     1      35.873 -20.571 -20.301  0.00  0.00    +0.040 C 
ATOM      5  C   UNL     1      33.632 -21.168 -19.775  0.00  0.00    +0.136 C 
ATOM      6  C   UNL     1      36.287 -21.228 -19.147  0.00  0.00    +0.022 C 
ATOM      7  C   UNL     1      35.317 -21.830 -18.361  0.00  0.00    +0.082 C 
BRANCH   7   8
ATOM      8  C   UNL     1      35.673 -22.530 -17.150  0.00  0.00    +0.018 C 
ATOM      9  C   UNL     1      36.974 -22.448 -16.653  0.00  0.00    +0.003 C 
ATOM     10  C   UNL     1      34.715 -23.288 -16.476  0.00  0.00    +0.003 C 
ATOM     11  C   UNL     1      36.359 -23.883 -14.808  0.00  0.00    +0.106 C 
ATOM     12  C   UNL     1      37.316 -23.125 -15.482  0.00  0.00    +0.018 C 
ATOM     13  C   UNL     1      35.058 -23.965 -15.305  0.00  0.00    +0.018 C 
BRANCH  11  14
ATOM     14  S   UNL     1      36.788 -24.729 -13.343  0.00  0.00    +0.010 S 
ATOM     15  O   UNL     1      38.017 -24.140 -12.828  0.00  0.00    -0.169 OA
ATOM     16  O   UNL     1      35.614 -24.815 -12.486  0.00  0.00    -0.169 OA
ATOM     17  C   UNL     1      37.159 -26.384 -13.881  0.00  0.00    +0.182 C 
ENDBRANCH  11  14
ENDBRANCH   7   8
ENDBRANCH   1   3
BRANCH   1  18
ATOM     18  C   UNL     1      34.989 -19.817 -22.847  0.00  0.00    +0.205 C 
BRANCH  18  23
ATOM     19  O   UNL     1      33.175 -13.967 -24.720  0.00  0.00    -0.296 OA
ATOM     20  N   UNL     1      34.298 -15.614 -23.490  0.00  0.00    -0.251 N 
ATOM     21  N   UNL     1      34.189 -13.247 -22.857  0.00  0.00    -0.300 NA
ATOM     22  N   UNL     1      32.925 -12.590 -24.646  0.00  0.00    -0.010 NA
ATOM     23  C   UNL     1      35.209 -18.345 -23.191  0.00  0.00    +0.047 C 
ATOM     24  C   UNL     1      34.926 -17.453 -21.977  0.00  0.00    +0.025 C 
ATOM     25  C   UNL     1      34.313 -17.918 -24.358  0.00  0.00    +0.025 C 
ATOM     26  C   UNL     1      35.105 -15.974 -22.317  0.00  0.00    +0.096 C 
ATOM     27  C   UNL     1      34.488 -16.436 -24.690  0.00  0.00    +0.096 C 
ATOM     28  C   UNL     1      33.924 -14.271 -23.628  0.00  0.00    +0.379 C 
ATOM     29  C   UNL     1      33.555 -12.239 -23.521  0.00  0.00    +0.104 C 
BRANCH  29  30
ATOM     30  C   UNL     1      33.562 -10.856 -23.034  0.00  0.00    +0.101 C 
ATOM     31  C   UNL     1      34.676  -9.986 -23.673  0.00  0.00    +0.017 C 
ATOM     32  C   UNL     1      32.202 -10.135 -23.212  0.00  0.00    +0.017 C 
ENDBRANCH  29  30
ENDBRANCH  18  23
ENDBRANCH   1  18
TORSDOF 6
ENDMDL
MODEL 8
REMARK VINA RESULT:     -11.1      2.497      4.431
REMARK  Name = 24996872
REMARK  6 active torsions:
REMARK  status: ('A' for Active; 'I' for Inactive)
REMARK    1  A    between atoms: O_1  and  C_3
REMARK    2  A    between atoms: O_1  and  C_18
REMARK    3  A    between atoms: C_7  and  C_8
REMARK    4  A    between atoms: C_11  and  S_14
REMARK    5  A    between atoms: C_18  and  C_23
REMARK    6  A    between atoms: C_29  and  C_30
REMARK                            x       y       z     vdW  Elec       q    Type
REMARK                         _______ _______ _______ _____ _____    ______ ____
ROOT
ATOM      1  O   UNL     1      35.897 -20.165 -21.423  0.00  0.00    -0.474 OA
ENDROOT
BRANCH   1   3
ATOM      2  N   UNL     1      35.279 -22.107 -18.381  0.00  0.00    -0.241 NA
ATOM      3  C   UNL     1      35.215 -20.781 -20.402  0.00  0.00    +0.158 C 
ATOM      4  C   UNL     1      33.828 -20.726 -20.331  0.00  0.00    +0.040 C 
ATOM      5  C   UNL     1      35.888 -21.479 -19.412  0.00  0.00    +0.136 C 
ATOM      6  C   UNL     1      33.165 -21.360 -19.286  0.00  0.00    +0.022 C 
ATOM      7  C   UNL     1      33.929 -22.031 -18.345  0.00  0.00    +0.082 C 
BRANCH   7   8
ATOM      8  C   UNL     1      33.310 -22.712 -17.233  0.00  0.00    +0.018 C 
ATOM      9  C   UNL     1      31.919 -22.788 -17.149  0.00  0.00    +0.003 C 
ATOM     10  C   UNL     1      34.101 -23.295 -16.244  0.00  0.00    +0.003 C 
ATOM     11  C   UNL     1      32.113 -24.029 -15.085  0.00  0.00    +0.106 C 
ATOM     12  C   UNL     1      31.322 -23.446 -16.074  0.00  0.00    +0.018 C 
ATOM     13  C   UNL     1      33.503 -23.953 -15.169  0.00  0.00    +0.018 C 
BRANCH  11  14
ATOM     14  S   UNL     1      31.364 -24.853 -13.740  0.00  0.00    +0.010 S 
ATOM     15  O   UNL     1      32.188 -26.007 -13.406  0.00  0.00    -0.169 OA
ATOM     16  O   UNL     1      31.038 -23.877 -12.710  0.00  0.00    -0.169 OA
ATOM     17  C   UNL     1      29.822 -25.454 -14.392  0.00  0.00    +0.182 C 
ENDBRANCH  11  14
ENDBRANCH   7   8
ENDBRANCH   1   3
BRANCH   1  18
ATOM     18  C   UNL     1      35.155 -19.829 -22.581  0.00  0.00    +0.205 C 
BRANCH  18  23
ATOM     19  O   UNL     1      33.120 -14.029 -24.382  0.00  0.00    -0.296 OA
ATOM     20  N   UNL     1      34.220 -15.657 -23.107  0.00  0.00    -0.251 N 
ATOM     21  N   UNL     1      33.859 -13.342 -22.382  0.00  0.00    -0.300 NA
ATOM     22  N   UNL     1      32.758 -12.680 -24.275  0.00  0.00    -0.010 NA
ATOM     23  C   UNL     1      35.298 -18.329 -22.829  0.00  0.00    +0.047 C 
ATOM     24  C   UNL     1      34.813 -17.527 -21.617  0.00  0.00    +0.025 C 
ATOM     25  C   UNL     1      34.510 -17.904 -24.072  0.00  0.00    +0.025 C 
ATOM     26  C   UNL     1      34.915 -16.022 -21.865  0.00  0.00    +0.096 C 
ATOM     27  C   UNL     1      34.607 -16.397 -24.313  0.00  0.00    +0.096 C 
ATOM     28  C   UNL     1      33.762 -14.339 -23.226  0.00  0.00    +0.379 C 
ATOM     29  C   UNL     1      33.228 -12.347 -23.069  0.00  0.00    +0.104 C 
BRANCH  29  30
ATOM     30  C   UNL     1      33.074 -10.995 -22.522  0.00  0.00    +0.101 C 
ATOM     31  C   UNL     1      32.986  -9.897 -23.614  0.00  0.00    +0.017 C 
ATOM     32  C   UNL     1      31.858 -10.852 -21.572  0.00  0.00    +0.017 C 
ENDBRANCH  29  30
ENDBRANCH  18  23
ENDBRANCH   1  18
TORSDOF 6
ENDMDL
MODEL 9
REMARK VINA RESULT:     -10.7      2.004      3.034
REMARK  Name = 24996872
REMARK  6 active torsions:
REMARK  status: ('A' for Active; 'I' for Inactive)
REMARK    1  A    between atoms: O_1  and  C_3
REMARK    2  A    between atoms: O_1  and  C_18
REMARK    3  A    between atoms: C_7  and  C_8
REMARK    4  A    between atoms: C_11  and  S_14
REMARK    5  A    between atoms: C_18  and  C_23
REMARK    6  A    between atoms: C_29  and  C_30
REMARK                            x       y       z     vdW  Elec       q    Type
REMARK                         _______ _______ _______ _____ _____    ______ ____
ROOT
ATOM      1  O   UNL     1      35.074 -18.246 -22.810  0.00  0.00    -0.474 OA
ENDROOT
BRANCH   1   3
ATOM      2  N   UNL     1      36.315 -20.151 -19.940  0.00  0.00    -0.241 NA
ATOM      3  C   UNL     1      35.083 -19.107 -21.740  0.00  0.00    +0.158 C 
ATOM      4  C   UNL     1      33.936 -19.795 -21.363  0.00  0.00    +0.040 C 
ATOM      5  C   UNL     1      36.238 -19.318 -21.002  0.00  0.00    +0.136 C 
ATOM      6  C   UNL     1      33.976 -20.661 -20.276  0.00  0.00    +0.022 C 
ATOM      7  C   UNL     1      35.179 -20.802 -19.603  0.00  0.00    +0.082 C 
BRANCH   7   8
ATOM      8  C   UNL     1      35.295 -21.682 -18.466  0.00  0.00    +0.018 C 
ATOM      9  C   UNL     1      34.226 -22.505 -18.108  0.00  0.00    +0.003 C 
ATOM     10  C   UNL     1      36.476 -21.712 -17.724  0.00  0.00    +0.003 C 
ATOM     11  C   UNL     1      35.520 -23.385 -16.267  0.00  0.00    +0.106 C 
ATOM     12  C   UNL     1      34.340 -23.356 -17.008  0.00  0.00    +0.018 C 
ATOM     13  C   UNL     1      36.589 -22.562 -16.624  0.00  0.00    +0.018 C 
BRANCH  11  14
ATOM     14  S   UNL     1      35.662 -24.450 -14.891  0.00  0.00    +0.010 S 
ATOM     15  O   UNL     1      35.851 -25.805 -15.390  0.00  0.00    -0.169 OA
ATOM     16  O   UNL     1      36.622 -23.885 -13.953  0.00  0.00    -0.169 OA
ATOM     17  C   UNL     1      34.066 -24.375 -14.108  0.00  0.00    +0.182 C 
ENDBRANCH  11  14
ENDBRANCH   7   8
ENDBRANCH   1   3
BRANCH   1  18
ATOM     18  C   UNL     1      35.592 -16.947 -22.595  0.00  0.00    +0.205 C 
BRANCH  18  23
ATOM     19  O   UNL     1      32.546 -11.581 -20.877  0.00  0.00    -0.296 OA
ATOM     20  N   UNL     1      33.316 -13.305 -22.263  0.00  0.00    -0.251 N 
ATOM     21  N   UNL     1      32.304 -11.224 -23.074  0.00  0.00    -0.300 NA
ATOM     22  N   UNL     1      31.947 -10.321 -21.003  0.00  0.00    -0.010 NA
ATOM     23  C   UNL     1      34.431 -15.955 -22.596  0.00  0.00    +0.047 C 
ATOM     24  C   UNL     1      34.660 -14.850 -23.632  0.00  0.00    +0.025 C 
ATOM     25  C   UNL     1      34.247 -15.328 -21.211  0.00  0.00    +0.025 C 
ATOM     26  C   UNL     1      33.523 -13.828 -23.620  0.00  0.00    +0.096 C 
ATOM     27  C   UNL     1      33.115 -14.300 -21.204  0.00  0.00    +0.096 C 
ATOM     28  C   UNL     1      32.722 -12.042 -22.142  0.00  0.00    +0.379 C 
ATOM     29  C   UNL     1      31.837 -10.182 -22.328  0.00  0.00    +0.104 C 
BRANCH  29  30
ATOM     30  C   UNL     1      31.252  -8.983 -22.937  0.00  0.00    +0.101 C 
ATOM     31  C   UNL     1      31.229  -7.760 -21.984  0.00  0.00    +0.017 C 
ATOM     32  C   UNL     1      31.939  -8.570 -24.263  0.00  0.00    +0.017 C 
ENDBRANCH  29  30
ENDBRANCH  18  23
ENDBRANCH   1  18
TORSDOF 6
ENDMDL
