MODEL 1
REMARK VINA RESULT:     -11.9      0.000      0.000
REMARK  Name = 445849
REMARK  5 active torsions:
REMARK  status: ('A' for Active; 'I' for Inactive)
REMARK    1  A    between atoms: C_3  and  C_20
REMARK    2  A    between atoms: C_9  and  C_14
REMARK    3  A    between atoms: C_18  and  O_26
REMARK    4  A    between atoms: C_19  and  O_24
REMARK    5  A    between atoms: O_26  and  C_28
REMARK                            x       y       z     vdW  Elec       q    Type
REMARK                         _______ _______ _______ _____ _____    ______ ____
ROOT
ATOM      1  F   UNL     1      35.780 -18.968 -23.626  0.00  0.00    -0.204 F 
ATOM      2  N   UNL     1      33.574 -14.677 -22.991  0.00  0.00    -0.312 N 
ATOM      3  C   UNL     1      33.386 -13.913 -21.871  0.00  0.00    +0.051 C 
ATOM      4  C   UNL     1      34.520 -15.781 -21.299  0.00  0.00    +0.015 C 
ATOM      5  C   UNL     1      34.264 -15.825 -22.671  0.00  0.00    +0.051 C 
ATOM      6  C   UNL     1      33.961 -14.568 -20.809  0.00  0.00    +0.016 C 
ATOM      7  C   UNL     1      35.223 -16.849 -20.706  0.00  0.00    +0.006 C 
ATOM      8  C   UNL     1      34.676 -16.888 -23.483  0.00  0.00    +0.044 C 
ATOM      9  C   UNL     1      35.641 -17.918 -21.506  0.00  0.00    +0.058 C 
ATOM     10  C   UNL     1      35.371 -17.936 -22.873  0.00  0.00    +0.144 C 
ATOM     11  H   UNL     1      33.260 -14.441 -23.894  0.00  0.00    +0.152 HD
ENDROOT
BRANCH   9  14
ATOM     12  N   UNL     1      35.697 -20.119 -20.357  0.00  0.00    -0.343 N 
ATOM     13  N   UNL     1      37.686 -18.992 -20.841  0.00  0.00    -0.285 NA
ATOM     14  C   UNL     1      36.366 -19.023 -20.896  0.00  0.00    +0.119 C 
ATOM     15  H   UNL     1      36.207 -20.856 -19.948  0.00  0.00    +0.144 HD
ATOM     16  H   UNL     1      34.713 -20.158 -20.385  0.00  0.00    +0.144 HD
ATOM     17  H   UNL     1      38.179 -19.738 -20.428  0.00  0.00    +0.188 HD
ENDBRANCH   9  14
BRANCH   3  20
ATOM     18  C   UNL     1      32.265 -10.509 -22.943  0.00  0.00    +0.172 C 
ATOM     19  C   UNL     1      32.952 -11.720 -22.922  0.00  0.00    +0.169 C 
ATOM     20  C   UNL     1      32.688 -12.649 -21.916  0.00  0.00    +0.050 C 
ATOM     21  C   UNL     1      31.318 -10.219 -21.965  0.00  0.00    +0.040 C 
ATOM     22  C   UNL     1      31.741 -12.363 -20.934  0.00  0.00    +0.004 C 
ATOM     23  C   UNL     1      31.055 -11.148 -20.958  0.00  0.00    +0.003 C 
BRANCH  19  24
ATOM     24  O   UNL     1      33.876 -11.986 -23.892  0.00  0.00    -0.503 OA
ATOM     25  H   UNL     1      34.278 -11.282 -24.362  0.00  0.00    +0.292 HD
ENDBRANCH  19  24
BRANCH  18  26
ATOM     26  O   UNL     1      32.513  -9.588 -23.925  0.00  0.00    -0.476 OA
BRANCH  26  28
ATOM     27  C   UNL     1      32.789  -7.252 -24.487  0.00  0.00    +0.040 C 
ATOM     28  C   UNL     1      33.172  -8.390 -23.525  0.00  0.00    +0.166 C 
ATOM     29  C   UNL     1      33.585  -5.978 -24.172  0.00  0.00    +0.004 C 
ATOM     30  C   UNL     1      34.683  -8.635 -23.518  0.00  0.00    +0.044 C 
ATOM     31  C   UNL     1      35.089  -6.236 -24.166  0.00  0.00    +0.000 C 
ATOM     32  C   UNL     1      35.463  -7.363 -23.210  0.00  0.00    +0.004 C 
ATOM     33  C   UNL     1      31.285  -6.965 -24.441  0.00  0.00    +0.004 C 
ENDBRANCH  26  28
ENDBRANCH  18  26
ENDBRANCH   3  20
TORSDOF 5
ENDMDL
MODEL 2
REMARK VINA RESULT:     -11.6      4.010      7.100
REMARK  Name = 445849
REMARK  5 active torsions:
REMARK  status: ('A' for Active; 'I' for Inactive)
REMARK    1  A    between atoms: C_3  and  C_20
REMARK    2  A    between atoms: C_9  and  C_14
REMARK    3  A    between atoms: C_18  and  O_26
REMARK    4  A    between atoms: C_19  and  O_24
REMARK    5  A    between atoms: O_26  and  C_28
REMARK                            x       y       z     vdW  Elec       q    Type
REMARK                         _______ _______ _______ _____ _____    ______ ____
ROOT
ATOM      1  F   UNL     1      36.876 -23.033 -16.190  0.00  0.00    -0.204 F 
ATOM      2  N   UNL     1      35.969 -20.286 -20.103  0.00  0.00    -0.312 N 
ATOM      3  C   UNL     1      34.820 -20.079 -20.816  0.00  0.00    +0.051 C 
ATOM      4  C   UNL     1      34.382 -21.512 -19.127  0.00  0.00    +0.015 C 
ATOM      5  C   UNL     1      35.731 -21.158 -19.065  0.00  0.00    +0.051 C 
ATOM      6  C   UNL     1      33.820 -20.823 -20.237  0.00  0.00    +0.016 C 
ATOM      7  C   UNL     1      33.870 -22.406 -18.165  0.00  0.00    +0.006 C 
ATOM      8  C   UNL     1      36.598 -21.655 -18.085  0.00  0.00    +0.044 C 
ATOM      9  C   UNL     1      34.726 -22.911 -17.180  0.00  0.00    +0.058 C 
ATOM     10  C   UNL     1      36.069 -22.540 -17.142  0.00  0.00    +0.144 C 
ATOM     11  H   UNL     1      36.840 -19.872 -20.304  0.00  0.00    +0.152 HD
ENDROOT
BRANCH   9  14
ATOM     12  N   UNL     1      32.915 -23.688 -15.667  0.00  0.00    -0.343 N 
ATOM     13  N   UNL     1      34.951 -24.834 -15.755  0.00  0.00    -0.285 NA
ATOM     14  C   UNL     1      34.200 -23.835 -16.186  0.00  0.00    +0.119 C 
ATOM     15  H   UNL     1      32.580 -24.325 -14.996  0.00  0.00    +0.144 HD
ATOM     16  H   UNL     1      32.343 -22.948 -15.974  0.00  0.00    +0.144 HD
ATOM     17  H   UNL     1      34.598 -25.460 -15.082  0.00  0.00    +0.188 HD
ENDBRANCH   9  14
BRANCH   3  20
ATOM     18  C   UNL     1      34.916 -17.008 -22.951  0.00  0.00    +0.172 C 
ATOM     19  C   UNL     1      34.958 -17.828 -21.827  0.00  0.00    +0.169 C 
ATOM     20  C   UNL     1      34.780 -19.205 -21.966  0.00  0.00    +0.050 C 
ATOM     21  C   UNL     1      34.696 -17.552 -24.212  0.00  0.00    +0.040 C 
ATOM     22  C   UNL     1      34.558 -19.754 -23.228  0.00  0.00    +0.004 C 
ATOM     23  C   UNL     1      34.516 -18.929 -24.352  0.00  0.00    +0.003 C 
BRANCH  19  24
ATOM     24  O   UNL     1      35.177 -17.275 -20.598  0.00  0.00    -0.503 OA
ATOM     25  H   UNL     1      36.052 -17.167 -20.282  0.00  0.00    +0.292 HD
ENDBRANCH  19  24
BRANCH  18  26
ATOM     26  O   UNL     1      35.090 -15.656 -22.829  0.00  0.00    -0.476 OA
BRANCH  26  28
ATOM     27  C   UNL     1      33.823 -13.744 -23.597  0.00  0.00    +0.040 C 
ATOM     28  C   UNL     1      33.922 -14.883 -22.567  0.00  0.00    +0.166 C 
ATOM     29  C   UNL     1      32.653 -12.806 -23.266  0.00  0.00    +0.004 C 
ATOM     30  C   UNL     1      33.995 -14.343 -21.138  0.00  0.00    +0.044 C 
ATOM     31  C   UNL     1      32.737 -12.277 -21.837  0.00  0.00    +0.000 C 
ATOM     32  C   UNL     1      32.833 -13.410 -20.822  0.00  0.00    +0.004 C 
ATOM     33  C   UNL     1      33.682 -14.289 -25.021  0.00  0.00    +0.004 C 
ENDBRANCH  26  28
ENDBRANCH  18  26
ENDBRANCH   3  20
TORSDOF 5
ENDMDL
MODEL 3
REMARK VINA RESULT:     -11.1      6.709     10.589
REMARK  Name = 445849
REMARK  5 active torsions:
REMARK  status: ('A' for Active; 'I' for Inactive)
REMARK    1  A    between atoms: C_3  and  C_20
REMARK    2  A    between atoms: C_9  and  C_14
REMARK    3  A    between atoms: C_18  and  O_26
REMARK    4  A    between atoms: C_19  and  O_24
REMARK    5  A    between atoms: O_26  and  C_28
REMARK                            x       y       z     vdW  Elec       q    Type
REMARK                         _______ _______ _______ _____ _____    ______ ____
ROOT
ATOM      1  F   UNL     1      38.759 -24.417 -13.279  0.00  0.00    -0.204 F 
ATOM      2  N   UNL     1      36.251 -22.402 -16.930  0.00  0.00    -0.312 N 
ATOM      3  C   UNL     1      34.973 -22.609 -17.372  0.00  0.00    +0.051 C 
ATOM      4  C   UNL     1      35.363 -23.964 -15.608  0.00  0.00    +0.015 C 
ATOM      5  C   UNL     1      36.518 -23.217 -15.853  0.00  0.00    +0.051 C 
ATOM      6  C   UNL     1      34.397 -23.568 -16.574  0.00  0.00    +0.016 C 
ATOM      7  C   UNL     1      35.366 -24.887 -14.543  0.00  0.00    +0.006 C 
ATOM      8  C   UNL     1      37.680 -23.348 -15.084  0.00  0.00    +0.044 C 
ATOM      9  C   UNL     1      36.522 -25.029 -13.766  0.00  0.00    +0.058 C 
ATOM     10  C   UNL     1      37.660 -24.270 -14.034  0.00  0.00    +0.144 C 
ATOM     11  H   UNL     1      36.889 -21.764 -17.326  0.00  0.00    +0.152 HD
ENDROOT
BRANCH   9  14
ATOM     12  N   UNL     1      37.091 -27.249 -12.810  0.00  0.00    -0.343 N 
ATOM     13  N   UNL     1      35.986 -25.653 -11.508  0.00  0.00    -0.285 NA
ATOM     14  C   UNL     1      36.528 -25.983 -12.667  0.00  0.00    +0.119 C 
ATOM     15  H   UNL     1      37.084 -27.879 -12.053  0.00  0.00    +0.144 HD
ATOM     16  H   UNL     1      37.496 -27.514 -13.667  0.00  0.00    +0.144 HD
ATOM     17  H   UNL     1      35.988 -26.297 -10.763  0.00  0.00    +0.188 HD
ENDBRANCH   9  14
BRANCH   3  20
ATOM     18  C   UNL     1      34.694 -20.427 -20.398  0.00  0.00    +0.172 C 
ATOM     19  C   UNL     1      35.246 -21.115 -19.321  0.00  0.00    +0.169 C 
ATOM     20  C   UNL     1      34.426 -21.886 -18.497  0.00  0.00    +0.050 C 
ATOM     21  C   UNL     1      33.329 -20.503 -20.658  0.00  0.00    +0.040 C 
ATOM     22  C   UNL     1      33.058 -21.964 -18.753  0.00  0.00    +0.004 C 
ATOM     23  C   UNL     1      32.508 -21.274 -19.833  0.00  0.00    +0.003 C 
BRANCH  19  24
ATOM     24  O   UNL     1      36.588 -21.028 -19.083  0.00  0.00    -0.503 OA
ATOM     25  H   UNL     1      37.158 -20.678 -19.739  0.00  0.00    +0.292 HD
ENDBRANCH  19  24
BRANCH  18  26
ATOM     26  O   UNL     1      35.487 -19.667 -21.215  0.00  0.00    -0.476 OA
BRANCH  26  28
ATOM     27  C   UNL     1      35.210 -18.563 -23.350  0.00  0.00    +0.040 C 
ATOM     28  C   UNL     1      34.866 -18.552 -21.850  0.00  0.00    +0.166 C 
ATOM     29  C   UNL     1      34.675 -17.303 -24.043  0.00  0.00    +0.004 C 
ATOM     30  C   UNL     1      35.346 -17.267 -21.173  0.00  0.00    +0.044 C 
ATOM     31  C   UNL     1      35.158 -16.028 -23.357  0.00  0.00    +0.000 C 
ATOM     32  C   UNL     1      34.813 -16.023 -21.872  0.00  0.00    +0.004 C 
ATOM     33  C   UNL     1      34.670 -19.820 -24.038  0.00  0.00    +0.004 C 
ENDBRANCH  26  28
ENDBRANCH  18  26
ENDBRANCH   3  20
TORSDOF 5
ENDMDL
MODEL 4
REMARK VINA RESULT:     -10.4      7.908     13.599
REMARK  Name = 445849
REMARK  5 active torsions:
REMARK  status: ('A' for Active; 'I' for Inactive)
REMARK    1  A    between atoms: C_3  and  C_20
REMARK    2  A    between atoms: C_9  and  C_14
REMARK    3  A    between atoms: C_18  and  O_26
REMARK    4  A    between atoms: C_19  and  O_24
REMARK    5  A    between atoms: O_26  and  C_28
REMARK                            x       y       z     vdW  Elec       q    Type
REMARK                         _______ _______ _______ _____ _____    ______ ____
ROOT
ATOM      1  F   UNL     1      37.549 -18.417 -22.374  0.00  0.00    -0.204 F 
ATOM      2  N   UNL     1      36.048 -21.323 -18.771  0.00  0.00    -0.312 N 
ATOM      3  C   UNL     1      34.812 -21.826 -18.470  0.00  0.00    +0.051 C 
ATOM      4  C   UNL     1      34.648 -20.549 -20.326  0.00  0.00    +0.015 C 
ATOM      5  C   UNL     1      35.978 -20.538 -19.901  0.00  0.00    +0.051 C 
ATOM      6  C   UNL     1      33.925 -21.366 -19.414  0.00  0.00    +0.016 C 
ATOM      7  C   UNL     1      34.299 -19.816 -21.478  0.00  0.00    +0.006 C 
ATOM      8  C   UNL     1      36.981 -19.828 -20.571  0.00  0.00    +0.044 C 
ATOM      9  C   UNL     1      35.291 -19.101 -22.158  0.00  0.00    +0.058 C 
ATOM     10  C   UNL     1      36.610 -19.108 -21.710  0.00  0.00    +0.144 C 
ATOM     11  H   UNL     1      36.869 -21.496 -18.255  0.00  0.00    +0.152 HD
ENDROOT
BRANCH   9  14
ATOM     12  N   UNL     1      35.321 -17.012 -23.502  0.00  0.00    -0.343 N 
ATOM     13  N   UNL     1      34.219 -18.913 -24.301  0.00  0.00    -0.285 NA
ATOM     14  C   UNL     1      34.932 -18.341 -23.347  0.00  0.00    +0.119 C 
ATOM     15  H   UNL     1      35.067 -16.517 -24.315  0.00  0.00    +0.144 HD
ATOM     16  H   UNL     1      35.849 -16.569 -22.800  0.00  0.00    +0.144 HD
ATOM     17  H   UNL     1      33.975 -18.401 -25.106  0.00  0.00    +0.188 HD
ENDBRANCH   9  14
BRANCH   3  20
ATOM     18  C   UNL     1      35.252 -23.535 -15.172  0.00  0.00    +0.172 C 
ATOM     19  C   UNL     1      35.487 -22.698 -16.259  0.00  0.00    +0.169 C 
ATOM     20  C   UNL     1      34.592 -22.685 -17.330  0.00  0.00    +0.050 C 
ATOM     21  C   UNL     1      34.132 -24.359 -15.146  0.00  0.00    +0.040 C 
ATOM     22  C   UNL     1      33.468 -23.510 -17.308  0.00  0.00    +0.004 C 
ATOM     23  C   UNL     1      33.237 -24.347 -16.217  0.00  0.00    +0.003 C 
BRANCH  19  24
ATOM     24  O   UNL     1      36.592 -21.896 -16.266  0.00  0.00    -0.503 OA
ATOM     25  H   UNL     1      37.252 -22.012 -16.920  0.00  0.00    +0.292 HD
ENDBRANCH  19  24
BRANCH  18  26
ATOM     26  O   UNL     1      36.122 -23.558 -14.115  0.00  0.00    -0.476 OA
BRANCH  26  28
ATOM     27  C   UNL     1      37.218 -24.963 -12.479  0.00  0.00    +0.040 C 
ATOM     28  C   UNL     1      36.922 -24.728 -13.971  0.00  0.00    +0.166 C 
ATOM     29  C   UNL     1      38.191 -26.135 -12.293  0.00  0.00    +0.004 C 
ATOM     30  C   UNL     1      38.209 -24.550 -14.778  0.00  0.00    +0.044 C 
ATOM     31  C   UNL     1      39.470 -25.947 -13.104  0.00  0.00    +0.000 C 
ATOM     32  C   UNL     1      39.169 -25.717 -14.581  0.00  0.00    +0.004 C 
ATOM     33  C   UNL     1      35.931 -25.208 -11.686  0.00  0.00    +0.004 C 
ENDBRANCH  26  28
ENDBRANCH  18  26
ENDBRANCH   3  20
TORSDOF 5
ENDMDL
MODEL 5
REMARK VINA RESULT:     -10.4      6.997     10.760
REMARK  Name = 445849
REMARK  5 active torsions:
REMARK  status: ('A' for Active; 'I' for Inactive)
REMARK    1  A    between atoms: C_3  and  C_20
REMARK    2  A    between atoms: C_9  and  C_14
REMARK    3  A    between atoms: C_18  and  O_26
REMARK    4  A    between atoms: C_19  and  O_24
REMARK    5  A    between atoms: O_26  and  C_28
REMARK                            x       y       z     vdW  Elec       q    Type
REMARK                         _______ _______ _______ _____ _____    ______ ____
ROOT
ATOM      1  F   UNL     1      28.313 -23.610 -15.160  0.00  0.00    -0.204 F 
ATOM      2  N   UNL     1      32.152 -22.178 -17.785  0.00  0.00    -0.312 N 
ATOM      3  C   UNL     1      33.471 -22.536 -17.727  0.00  0.00    +0.051 C 
ATOM      4  C   UNL     1      32.336 -23.676 -16.142  0.00  0.00    +0.015 C 
ATOM      5  C   UNL     1      31.434 -22.859 -16.827  0.00  0.00    +0.051 C 
ATOM      6  C   UNL     1      33.617 -23.461 -16.722  0.00  0.00    +0.016 C 
ATOM      7  C   UNL     1      31.855 -24.490 -15.097  0.00  0.00    +0.006 C 
ATOM      8  C   UNL     1      30.070 -22.815 -16.518  0.00  0.00    +0.044 C 
ATOM      9  C   UNL     1      30.493 -24.456 -14.777  0.00  0.00    +0.058 C 
ATOM     10  C   UNL     1      29.616 -23.630 -15.478  0.00  0.00    +0.144 C 
ATOM     11  H   UNL     1      31.770 -21.527 -18.419  0.00  0.00    +0.152 HD
ENDROOT
BRANCH   9  14
ATOM     12  N   UNL     1      28.962 -26.207 -13.907  0.00  0.00    -0.343 N 
ATOM     13  N   UNL     1      30.520 -25.193 -12.490  0.00  0.00    -0.285 NA
ATOM     14  C   UNL     1      29.994 -25.295 -13.698  0.00  0.00    +0.119 C 
ATOM     15  H   UNL     1      28.639 -26.764 -13.163  0.00  0.00    +0.144 HD
ATOM     16  H   UNL     1      28.556 -26.294 -14.799  0.00  0.00    +0.144 HD
ATOM     17  H   UNL     1      30.183 -25.759 -11.757  0.00  0.00    +0.188 HD
ENDBRANCH   9  14
BRANCH   3  20
ATOM     18  C   UNL     1      35.054 -20.918 -20.705  0.00  0.00    +0.172 C 
ATOM     19  C   UNL     1      34.085 -21.455 -19.862  0.00  0.00    +0.169 C 
ATOM     20  C   UNL     1      34.456 -21.972 -18.621  0.00  0.00    +0.050 C 
ATOM     21  C   UNL     1      36.390 -20.893 -20.318  0.00  0.00    +0.040 C 
ATOM     22  C   UNL     1      35.794 -21.950 -18.229  0.00  0.00    +0.004 C 
ATOM     23  C   UNL     1      36.762 -21.411 -19.077  0.00  0.00    +0.003 C 
BRANCH  19  24
ATOM     24  O   UNL     1      32.779 -21.469 -20.261  0.00  0.00    -0.503 OA
ATOM     25  H   UNL     1      32.262 -20.689 -20.200  0.00  0.00    +0.292 HD
ENDBRANCH  19  24
BRANCH  18  26
ATOM     26  O   UNL     1      34.704 -20.406 -21.926  0.00  0.00    -0.476 OA
BRANCH  26  28
ATOM     27  C   UNL     1      34.656 -18.486 -23.396  0.00  0.00    +0.040 C 
ATOM     28  C   UNL     1      34.404 -19.014 -21.973  0.00  0.00    +0.166 C 
ATOM     29  C   UNL     1      34.476 -16.963 -23.454  0.00  0.00    +0.004 C 
ATOM     30  C   UNL     1      35.270 -18.286 -20.942  0.00  0.00    +0.044 C 
ATOM     31  C   UNL     1      35.343 -16.249 -22.421  0.00  0.00    +0.000 C 
ATOM     32  C   UNL     1      35.087 -16.775 -21.013  0.00  0.00    +0.004 C 
ATOM     33  C   UNL     1      33.740 -19.169 -24.415  0.00  0.00    +0.004 C 
ENDBRANCH  26  28
ENDBRANCH  18  26
ENDBRANCH   3  20
TORSDOF 5
ENDMDL
MODEL 6
REMARK VINA RESULT:     -10.3      8.596     13.827
REMARK  Name = 445849
REMARK  5 active torsions:
REMARK  status: ('A' for Active; 'I' for Inactive)
REMARK    1  A    between atoms: C_3  and  C_20
REMARK    2  A    between atoms: C_9  and  C_14
REMARK    3  A    between atoms: C_18  and  O_26
REMARK    4  A    between atoms: C_19  and  O_24
REMARK    5  A    between atoms: O_26  and  C_28
REMARK                            x       y       z     vdW  Elec       q    Type
REMARK                         _______ _______ _______ _____ _____    ______ ____
ROOT
ATOM      1  F   UNL     1      37.576 -19.427 -21.285  0.00  0.00    -0.204 F 
ATOM      2  N   UNL     1      35.346 -22.087 -17.874  0.00  0.00    -0.312 N 
ATOM      3  C   UNL     1      34.034 -22.442 -17.718  0.00  0.00    +0.051 C 
ATOM      4  C   UNL     1      34.233 -21.184 -19.583  0.00  0.00    +0.015 C 
ATOM      5  C   UNL     1      35.497 -21.317 -19.006  0.00  0.00    +0.051 C 
ATOM      6  C   UNL     1      33.320 -21.900 -18.759  0.00  0.00    +0.016 C 
ATOM      7  C   UNL     1      34.105 -20.434 -20.769  0.00  0.00    +0.006 C 
ATOM      8  C   UNL     1      36.645 -20.736 -19.557  0.00  0.00    +0.044 C 
ATOM      9  C   UNL     1      35.244 -19.846 -21.331  0.00  0.00    +0.058 C 
ATOM     10  C   UNL     1      36.493 -19.996 -20.733  0.00  0.00    +0.144 C 
ATOM     11  H   UNL     1      36.077 -22.344 -17.265  0.00  0.00    +0.152 HD
ENDROOT
BRANCH   9  14
ATOM     12  N   UNL     1      35.563 -17.753 -22.629  0.00  0.00    -0.343 N 
ATOM     13  N   UNL     1      34.555 -19.613 -23.622  0.00  0.00    -0.285 NA
ATOM     14  C   UNL     1      35.114 -19.070 -22.555  0.00  0.00    +0.119 C 
ATOM     15  H   UNL     1      35.465 -17.246 -23.467  0.00  0.00    +0.144 HD
ATOM     16  H   UNL     1      35.979 -17.330 -21.843  0.00  0.00    +0.144 HD
ATOM     17  H   UNL     1      34.466 -19.089 -24.451  0.00  0.00    +0.188 HD
ENDBRANCH   9  14
BRANCH   3  20
ATOM     18  C   UNL     1      34.044 -24.731 -14.760  0.00  0.00    +0.172 C 
ATOM     19  C   UNL     1      34.500 -23.957 -15.823  0.00  0.00    +0.169 C 
ATOM     20  C   UNL     1      33.588 -23.253 -16.608  0.00  0.00    +0.050 C 
ATOM     21  C   UNL     1      32.684 -24.808 -14.476  0.00  0.00    +0.040 C 
ATOM     22  C   UNL     1      32.224 -23.327 -16.328  0.00  0.00    +0.004 C 
ATOM     23  C   UNL     1      31.771 -24.104 -15.262  0.00  0.00    +0.003 C 
BRANCH  19  24
ATOM     24  O   UNL     1      35.839 -23.894 -16.084  0.00  0.00    -0.503 OA
ATOM     25  H   UNL     1      36.146 -23.924 -16.969  0.00  0.00    +0.292 HD
ENDBRANCH  19  24
BRANCH  18  26
ATOM     26  O   UNL     1      34.928 -25.427 -13.979  0.00  0.00    -0.476 OA
BRANCH  26  28
ATOM     27  C   UNL     1      37.214 -25.675 -13.228  0.00  0.00    +0.040 C 
ATOM     28  C   UNL     1      36.049 -24.702 -13.482  0.00  0.00    +0.166 C 
ATOM     29  C   UNL     1      38.395 -24.954 -12.563  0.00  0.00    +0.004 C 
ATOM     30  C   UNL     1      35.639 -23.971 -12.202  0.00  0.00    +0.044 C 
ATOM     31  C   UNL     1      37.971 -24.227 -11.289  0.00  0.00    +0.000 C 
ATOM     32  C   UNL     1      36.819 -23.263 -11.549  0.00  0.00    +0.004 C 
ATOM     33  C   UNL     1      37.667 -26.355 -14.523  0.00  0.00    +0.004 C 
ENDBRANCH  26  28
ENDBRANCH  18  26
ENDBRANCH   3  20
TORSDOF 5
ENDMDL
MODEL 7
REMARK VINA RESULT:     -10.1      1.447      2.115
REMARK  Name = 445849
REMARK  5 active torsions:
REMARK  status: ('A' for Active; 'I' for Inactive)
REMARK    1  A    between atoms: C_3  and  C_20
REMARK    2  A    between atoms: C_9  and  C_14
REMARK    3  A    between atoms: C_18  and  O_26
REMARK    4  A    between atoms: C_19  and  O_24
REMARK    5  A    between atoms: O_26  and  C_28
REMARK                            x       y       z     vdW  Elec       q    Type
REMARK                         _______ _______ _______ _____ _____    ______ ____
ROOT
ATOM      1  F   UNL     1      34.549 -18.245 -25.115  0.00  0.00    -0.204 F 
ATOM      2  N   UNL     1      33.261 -13.672 -24.065  0.00  0.00    -0.312 N 
ATOM      3  C   UNL     1      33.402 -12.932 -22.924  0.00  0.00    +0.051 C 
ATOM      4  C   UNL     1      34.275 -14.985 -22.575  0.00  0.00    +0.015 C 
ATOM      5  C   UNL     1      33.785 -14.932 -23.881  0.00  0.00    +0.051 C 
ATOM      6  C   UNL     1      34.026 -13.715 -21.983  0.00  0.00    +0.016 C 
ATOM      7  C   UNL     1      34.874 -16.178 -22.124  0.00  0.00    +0.006 C 
ATOM      8  C   UNL     1      33.863 -16.016 -24.763  0.00  0.00    +0.044 C 
ATOM      9  C   UNL     1      34.958 -17.271 -22.994  0.00  0.00    +0.058 C 
ATOM     10  C   UNL     1      34.460 -17.189 -24.293  0.00  0.00    +0.144 C 
ATOM     11  H   UNL     1      32.843 -13.351 -24.898  0.00  0.00    +0.152 HD
ENDROOT
BRANCH   9  14
ATOM     12  N   UNL     1      34.867 -19.706 -22.512  0.00  0.00    -0.343 N 
ATOM     13  N   UNL     1      36.827 -18.497 -22.108  0.00  0.00    -0.285 NA
ATOM     14  C   UNL     1      35.574 -18.505 -22.529  0.00  0.00    +0.119 C 
ATOM     15  H   UNL     1      35.303 -20.529 -22.193  0.00  0.00    +0.144 HD
ATOM     16  H   UNL     1      33.932 -19.731 -22.818  0.00  0.00    +0.144 HD
ATOM     17  H   UNL     1      37.245 -19.330 -21.793  0.00  0.00    +0.188 HD
ENDBRANCH   9  14
BRANCH   3  20
ATOM     18  C   UNL     1      33.261  -9.202 -23.169  0.00  0.00    +0.172 C 
ATOM     19  C   UNL     1      33.733 -10.508 -23.267  0.00  0.00    +0.169 C 
ATOM     20  C   UNL     1      32.936 -11.567 -22.834  0.00  0.00    +0.050 C 
ATOM     21  C   UNL     1      31.998  -8.946 -22.643  0.00  0.00    +0.040 C 
ATOM     22  C   UNL     1      31.670 -11.316 -22.305  0.00  0.00    +0.004 C 
ATOM     23  C   UNL     1      31.201 -10.006 -22.209  0.00  0.00    +0.003 C 
BRANCH  19  24
ATOM     24  O   UNL     1      34.974 -10.737 -23.787  0.00  0.00    -0.503 OA
ATOM     25  H   UNL     1      35.113 -11.460 -24.368  0.00  0.00    +0.292 HD
ENDBRANCH  19  24
BRANCH  18  26
ATOM     26  O   UNL     1      34.032  -8.152 -23.591  0.00  0.00    -0.476 OA
BRANCH  26  28
ATOM     27  C   UNL     1      34.369  -6.234 -25.025  0.00  0.00    +0.040 C 
ATOM     28  C   UNL     1      33.353  -7.080 -24.239  0.00  0.00    +0.166 C 
ATOM     29  C   UNL     1      33.698  -4.990 -25.625  0.00  0.00    +0.004 C 
ATOM     30  C   UNL     1      32.624  -6.246 -23.183  0.00  0.00    +0.044 C 
ATOM     31  C   UNL     1      32.973  -4.169 -24.563  0.00  0.00    +0.000 C 
ATOM     32  C   UNL     1      31.966  -5.013 -23.789  0.00  0.00    +0.004 C 
ATOM     33  C   UNL     1      35.048  -7.055 -26.124  0.00  0.00    +0.004 C 
ENDBRANCH  26  28
ENDBRANCH  18  26
ENDBRANCH   3  20
TORSDOF 5
ENDMDL
MODEL 8
REMARK VINA RESULT:      -9.9      5.245     10.149
REMARK  Name = 445849
REMARK  5 active torsions:
REMARK  status: ('A' for Active; 'I' for Inactive)
REMARK    1  A    between atoms: C_3  and  C_20
REMARK    2  A    between atoms: C_9  and  C_14
REMARK    3  A    between atoms: C_18  and  O_26
REMARK    4  A    between atoms: C_19  and  O_24
REMARK    5  A    between atoms: O_26  and  C_28
REMARK                            x       y       z     vdW  Elec       q    Type
REMARK                         _______ _______ _______ _____ _____    ______ ____
ROOT
ATOM      1  F   UNL     1      31.195  -3.195 -24.733  0.00  0.00    -0.204 F 
ATOM      2  N   UNL     1      31.601  -7.866 -23.432  0.00  0.00    -0.312 N 
ATOM      3  C   UNL     1      31.655  -8.461 -22.201  0.00  0.00    +0.051 C 
ATOM      4  C   UNL     1      31.462  -6.227 -21.924  0.00  0.00    +0.015 C 
ATOM      5  C   UNL     1      31.484  -6.501 -23.294  0.00  0.00    +0.051 C 
ATOM      6  C   UNL     1      31.571  -7.474 -21.248  0.00  0.00    +0.016 C 
ATOM      7  C   UNL     1      31.346  -4.888 -21.503  0.00  0.00    +0.006 C 
ATOM      8  C   UNL     1      31.396  -5.499 -24.266  0.00  0.00    +0.044 C 
ATOM      9  C   UNL     1      31.258  -3.875 -22.464  0.00  0.00    +0.058 C 
ATOM     10  C   UNL     1      31.282  -4.178 -23.824  0.00  0.00    +0.144 C 
ATOM     11  H   UNL     1      31.642  -8.345 -24.292  0.00  0.00    +0.152 HD
ENDROOT
BRANCH   9  14
ATOM     12  N   UNL     1      29.895  -1.883 -21.880  0.00  0.00    -0.343 N 
ATOM     13  N   UNL     1      32.229  -1.786 -21.779  0.00  0.00    -0.285 NA
ATOM     14  C   UNL     1      31.140  -2.491 -22.031  0.00  0.00    +0.119 C 
ATOM     15  H   UNL     1      29.838  -0.945 -21.586  0.00  0.00    +0.144 HD
ATOM     16  H   UNL     1      29.073  -2.391 -22.066  0.00  0.00    +0.144 HD
ATOM     17  H   UNL     1      32.151  -0.848 -21.486  0.00  0.00    +0.188 HD
ENDBRANCH   9  14
BRANCH   3  20
ATOM     18  C   UNL     1      32.880 -11.978 -22.547  0.00  0.00    +0.172 C 
ATOM     19  C   UNL     1      32.781 -10.600 -22.712  0.00  0.00    +0.169 C 
ATOM     20  C   UNL     1      31.780  -9.892 -22.047  0.00  0.00    +0.050 C 
ATOM     21  C   UNL     1      31.986 -12.655 -21.724  0.00  0.00    +0.040 C 
ATOM     22  C   UNL     1      30.881 -10.567 -21.222  0.00  0.00    +0.004 C 
ATOM     23  C   UNL     1      30.983 -11.948 -21.059  0.00  0.00    +0.003 C 
BRANCH  19  24
ATOM     24  O   UNL     1      33.669  -9.953 -23.524  0.00  0.00    -0.503 OA
ATOM     25  H   UNL     1      33.502  -9.887 -24.443  0.00  0.00    +0.292 HD
ENDBRANCH  19  24
BRANCH  18  26
ATOM     26  O   UNL     1      33.858 -12.686 -23.193  0.00  0.00    -0.476 OA
BRANCH  26  28
ATOM     27  C   UNL     1      34.752 -14.851 -22.591  0.00  0.00    +0.040 C 
ATOM     28  C   UNL     1      33.643 -14.087 -23.337  0.00  0.00    +0.166 C 
ATOM     29  C   UNL     1      34.634 -16.362 -22.836  0.00  0.00    +0.004 C 
ATOM     30  C   UNL     1      33.625 -14.435 -24.827  0.00  0.00    +0.044 C 
ATOM     31  C   UNL     1      34.615 -16.696 -24.326  0.00  0.00    +0.000 C 
ATOM     32  C   UNL     1      33.513 -15.937 -25.058  0.00  0.00    +0.004 C 
ATOM     33  C   UNL     1      34.724 -14.552 -21.090  0.00  0.00    +0.004 C 
ENDBRANCH  26  28
ENDBRANCH  18  26
ENDBRANCH   3  20
TORSDOF 5
ENDMDL
MODEL 9
REMARK VINA RESULT:      -9.9      4.870      9.866
REMARK  Name = 445849
REMARK  5 active torsions:
REMARK  status: ('A' for Active; 'I' for Inactive)
REMARK    1  A    between atoms: C_3  and  C_20
REMARK    2  A    between atoms: C_9  and  C_14
REMARK    3  A    between atoms: C_18  and  O_26
REMARK    4  A    between atoms: C_19  and  O_24
REMARK    5  A    between atoms: O_26  and  C_28
REMARK                            x       y       z     vdW  Elec       q    Type
REMARK                         _______ _______ _______ _____ _____    ______ ____
ROOT
ATOM      1  F   UNL     1      34.757  -4.140 -25.869  0.00  0.00    -0.204 F 
ATOM      2  N   UNL     1      33.378  -7.859 -23.049  0.00  0.00    -0.312 N 
ATOM      3  C   UNL     1      32.214  -8.097 -22.371  0.00  0.00    +0.051 C 
ATOM      4  C   UNL     1      32.039  -6.120 -23.450  0.00  0.00    +0.015 C 
ATOM      5  C   UNL     1      33.300  -6.657 -23.717  0.00  0.00    +0.051 C 
ATOM      6  C   UNL     1      31.365  -7.040 -22.600  0.00  0.00    +0.016 C 
ATOM      7  C   UNL     1      31.696  -4.879 -24.022  0.00  0.00    +0.006 C 
ATOM      8  C   UNL     1      34.240  -6.012 -24.530  0.00  0.00    +0.044 C 
ATOM      9  C   UNL     1      32.626  -4.222 -24.836  0.00  0.00    +0.058 C 
ATOM     10  C   UNL     1      33.878  -4.782 -25.085  0.00  0.00    +0.144 C 
ATOM     11  H   UNL     1      34.160  -8.459 -23.057  0.00  0.00    +0.152 HD
ENDROOT
BRANCH   9  14
ATOM     12  N   UNL     1      31.931  -2.830 -26.772  0.00  0.00    -0.343 N 
ATOM     13  N   UNL     1      32.284  -1.848 -24.680  0.00  0.00    -0.285 NA
ATOM     14  C   UNL     1      32.275  -2.939 -25.426  0.00  0.00    +0.119 C 
ATOM     15  H   UNL     1      31.697  -1.952 -27.150  0.00  0.00    +0.144 HD
ATOM     16  H   UNL     1      31.922  -3.631 -27.344  0.00  0.00    +0.144 HD
ATOM     17  H   UNL     1      32.047  -0.978 -25.077  0.00  0.00    +0.188 HD
ENDBRANCH   9  14
BRANCH   3  20
ATOM     18  C   UNL     1      31.914 -11.690 -21.375  0.00  0.00    +0.172 C 
ATOM     19  C   UNL     1      32.106 -10.556 -22.159  0.00  0.00    +0.169 C 
ATOM     20  C   UNL     1      32.020  -9.290 -21.580  0.00  0.00    +0.050 C 
ATOM     21  C   UNL     1      31.637 -11.569 -20.017  0.00  0.00    +0.040 C 
ATOM     22  C   UNL     1      31.741  -9.164 -20.220  0.00  0.00    +0.004 C 
ATOM     23  C   UNL     1      31.550 -10.302 -19.437  0.00  0.00    +0.003 C 
BRANCH  19  24
ATOM     24  O   UNL     1      32.378 -10.696 -23.490  0.00  0.00    -0.503 OA
ATOM     25  H   UNL     1      32.713 -11.508 -23.817  0.00  0.00    +0.292 HD
ENDBRANCH  19  24
BRANCH  18  26
ATOM     26  O   UNL     1      31.996 -12.939 -21.930  0.00  0.00    -0.476 OA
BRANCH  26  28
ATOM     27  C   UNL     1      33.465 -14.457 -23.107  0.00  0.00    +0.040 C 
ATOM     28  C   UNL     1      33.261 -13.590 -21.852  0.00  0.00    +0.166 C 
ATOM     29  C   UNL     1      34.756 -15.282 -22.998  0.00  0.00    +0.004 C 
ATOM     30  C   UNL     1      33.309 -14.430 -20.574  0.00  0.00    +0.044 C 
ATOM     31  C   UNL     1      34.792 -16.113 -21.718  0.00  0.00    +0.000 C 
ATOM     32  C   UNL     1      34.591 -15.247 -20.479  0.00  0.00    +0.004 C 
ATOM     33  C   UNL     1      33.484 -13.605 -24.379  0.00  0.00    +0.004 C 
ENDBRANCH  26  28
ENDBRANCH  18  26
ENDBRANCH   3  20
TORSDOF 5
ENDMDL
