MODEL 1
REMARK VINA RESULT:     -13.0      0.000      0.000
REMARK  Name = 119057475
REMARK  5 active torsions:
REMARK  status: ('A' for Active; 'I' for Inactive)
REMARK    1  A    between atoms: N_1  and  C_22
REMARK    2  A    between atoms: C_2  and  N_8
REMARK    3  A    between atoms: N_8  and  C_11
REMARK    4  A    between atoms: C_11  and  C_16
REMARK    5  A    between atoms: C_22  and  C_26
REMARK                            x       y       z     vdW  Elec       q    Type
REMARK                         _______ _______ _______ _____ _____    ______ ____
ROOT
ATOM      1  N   UNL     1      34.175 -22.678 -19.130  0.00  0.00    +0.387 N 
ATOM      2  C   UNL     1      35.060 -20.190 -20.391  0.00  0.00    -0.066 C 
ATOM      3  C   UNL     1      35.575 -22.245 -19.020  0.00  0.00    -0.079 C 
ATOM      4  C   UNL     1      33.268 -21.525 -19.220  0.00  0.00    -0.079 C 
ATOM      5  C   UNL     1      35.987 -21.397 -20.227  0.00  0.00    -0.044 C 
ATOM      6  C   UNL     1      33.601 -20.653 -20.433  0.00  0.00    -0.044 C 
ATOM      7  H   UNL     1      34.080 -23.220 -19.989  0.00  0.00    -0.080 HD
ENDROOT
BRANCH   2   8
ATOM      8  N   UNL     1      35.408 -19.445 -21.599  0.00  0.00    +0.389 N 
ATOM      9  H   UNL     1      34.709 -19.632 -22.319  0.00  0.00    -0.084 HD
ATOM     10  H   UNL     1      36.331 -19.745 -21.914  0.00  0.00    -0.084 HD
BRANCH   8  11
ATOM     11  C   UNL     1      35.448 -18.015 -21.332  0.00  0.00    -0.032 C 
BRANCH  11  16
ATOM     12  O   UNL     1      34.026 -13.836 -23.358  0.00  0.00    -0.467 OA
ATOM     13  O   UNL     1      33.681 -15.269 -25.829  0.00  0.00    -0.453 OA
ATOM     14  N   UNL     1      34.844 -17.864 -23.687  0.00  0.00    -0.151 NA
ATOM     15  N   UNL     1      34.415 -17.181 -24.784  0.00  0.00    -0.107 NA
ATOM     16  C   UNL     1      34.977 -17.211 -22.514  0.00  0.00    +0.062 C 
ATOM     17  C   UNL     1      34.707 -15.865 -22.370  0.00  0.00    +0.056 C 
ATOM     18  C   UNL     1      34.282 -15.171 -23.491  0.00  0.00    +0.194 C 
ATOM     19  C   UNL     1      34.130 -15.866 -24.678  0.00  0.00    +0.278 C 
ATOM     20  C   UNL     1      33.907 -13.186 -24.627  0.00  0.00    +0.253 C 
ATOM     21  C   UNL     1      33.048 -14.014 -25.563  0.00  0.00    +0.254 C 
ENDBRANCH  11  16
ENDBRANCH   8  11
ENDBRANCH   2   8
BRANCH   1  22
ATOM     22  C   UNL     1      33.811 -23.528 -17.997  0.00  0.00    -0.071 C 
BRANCH  22  26
ATOM     23  F   UNL     1      30.921 -23.260 -16.461  0.00  0.00    -0.204 F 
ATOM     24  O   UNL     1      37.461 -23.500 -14.039  0.00  0.00    -0.270 OA
ATOM     25  N   UNL     1      35.267 -23.456 -14.773  0.00  0.00    -0.255 N 
ATOM     26  C   UNL     1      33.934 -22.769 -16.682  0.00  0.00    +0.025 C 
ATOM     27  C   UNL     1      35.378 -22.839 -16.101  0.00  0.00    +0.101 C 
ATOM     28  C   UNL     1      33.117 -23.380 -15.578  0.00  0.00    +0.018 C 
ATOM     29  C   UNL     1      33.933 -23.744 -14.522  0.00  0.00    +0.052 C 
ATOM     30  C   UNL     1      33.493 -24.329 -13.352  0.00  0.00    +0.014 C 
ATOM     31  C   UNL     1      31.757 -23.602 -15.473  0.00  0.00    +0.137 C 
ATOM     32  C   UNL     1      36.267 -23.734 -13.868  0.00  0.00    +0.253 C 
ATOM     33  C   UNL     1      32.125 -24.560 -13.241  0.00  0.00    +0.004 C 
ATOM     34  C   UNL     1      31.264 -24.196 -14.298  0.00  0.00    +0.029 C 
ATOM     35  C   UNL     1      34.507 -24.647 -12.351  0.00  0.00    +0.006 C 
ATOM     36  C   UNL     1      35.801 -24.372 -12.588  0.00  0.00    +0.058 C 
ENDBRANCH  22  26
ENDBRANCH   1  22
TORSDOF 5
ENDMDL
MODEL 2
REMARK VINA RESULT:     -13.0      2.098      2.823
REMARK  Name = 119057475
REMARK  5 active torsions:
REMARK  status: ('A' for Active; 'I' for Inactive)
REMARK    1  A    between atoms: N_1  and  C_22
REMARK    2  A    between atoms: C_2  and  N_8
REMARK    3  A    between atoms: N_8  and  C_11
REMARK    4  A    between atoms: C_11  and  C_16
REMARK    5  A    between atoms: C_22  and  C_26
REMARK                            x       y       z     vdW  Elec       q    Type
REMARK                         _______ _______ _______ _____ _____    ______ ____
ROOT
ATOM      1  N   UNL     1      34.891 -21.974 -18.898  0.00  0.00    +0.387 N 
ATOM      2  C   UNL     1      34.563 -19.952 -20.987  0.00  0.00    -0.066 C 
ATOM      3  C   UNL     1      36.034 -21.157 -19.329  0.00  0.00    -0.079 C 
ATOM      4  C   UNL     1      33.629 -21.231 -19.023  0.00  0.00    -0.079 C 
ATOM      5  C   UNL     1      35.876 -20.711 -20.785  0.00  0.00    -0.044 C 
ATOM      6  C   UNL     1      33.390 -20.788 -20.469  0.00  0.00    -0.044 C 
ATOM      7  H   UNL     1      34.838 -22.788 -19.510  0.00  0.00    -0.080 HD
ENDROOT
BRANCH   2   8
ATOM      8  N   UNL     1      34.384 -19.616 -22.398  0.00  0.00    +0.389 N 
ATOM      9  H   UNL     1      33.473 -19.174 -22.523  0.00  0.00    -0.084 HD
ATOM     10  H   UNL     1      34.440 -20.474 -22.948  0.00  0.00    -0.084 HD
BRANCH   8  11
ATOM     11  C   UNL     1      35.424 -18.704 -22.849  0.00  0.00    -0.032 C 
BRANCH  11  16
ATOM     12  O   UNL     1      34.462 -13.946 -22.684  0.00  0.00    -0.467 OA
ATOM     13  O   UNL     1      33.186 -14.217 -25.248  0.00  0.00    -0.453 OA
ATOM     14  N   UNL     1      34.276 -17.556 -24.666  0.00  0.00    -0.151 NA
ATOM     15  N   UNL     1      33.735 -16.451 -25.247  0.00  0.00    -0.107 NA
ATOM     16  C   UNL     1      34.847 -17.449 -23.448  0.00  0.00    +0.062 C 
ATOM     17  C   UNL     1      34.921 -16.257 -22.757  0.00  0.00    +0.056 C 
ATOM     18  C   UNL     1      34.380 -15.131 -23.357  0.00  0.00    +0.194 C 
ATOM     19  C   UNL     1      33.779 -15.269 -24.595  0.00  0.00    +0.278 C 
ATOM     20  C   UNL     1      34.160 -12.830 -23.528  0.00  0.00    +0.253 C 
ATOM     21  C   UNL     1      32.931 -13.122 -24.365  0.00  0.00    +0.254 C 
ENDBRANCH  11  16
ENDBRANCH   8  11
ENDBRANCH   2   8
BRANCH   1  22
ATOM     22  C   UNL     1      35.079 -22.434 -17.522  0.00  0.00    -0.071 C 
BRANCH  22  26
ATOM     23  F   UNL     1      36.365 -24.521 -15.338  0.00  0.00    -0.204 F 
ATOM     24  O   UNL     1      29.767 -22.700 -16.694  0.00  0.00    -0.270 OA
ATOM     25  N   UNL     1      31.933 -23.316 -16.166  0.00  0.00    -0.255 N 
ATOM     26  C   UNL     1      34.121 -23.568 -17.188  0.00  0.00    +0.025 C 
ATOM     27  C   UNL     1      32.636 -23.173 -17.448  0.00  0.00    +0.101 C 
ATOM     28  C   UNL     1      34.108 -23.910 -15.724  0.00  0.00    +0.018 C 
ATOM     29  C   UNL     1      32.835 -23.750 -15.205  0.00  0.00    +0.052 C 
ATOM     30  C   UNL     1      32.486 -23.984 -13.891  0.00  0.00    +0.014 C 
ATOM     31  C   UNL     1      35.118 -24.341 -14.885  0.00  0.00    +0.137 C 
ATOM     32  C   UNL     1      30.606 -23.083 -15.883  0.00  0.00    +0.253 C 
ATOM     33  C   UNL     1      33.499 -24.416 -13.039  0.00  0.00    +0.004 C 
ATOM     34  C   UNL     1      34.807 -24.593 -13.538  0.00  0.00    +0.029 C 
ATOM     35  C   UNL     1      31.091 -23.756 -13.529  0.00  0.00    +0.006 C 
ATOM     36  C   UNL     1      30.211 -23.335 -14.454  0.00  0.00    +0.058 C 
ENDBRANCH  22  26
ENDBRANCH   1  22
TORSDOF 5
ENDMDL
MODEL 3
REMARK VINA RESULT:     -12.9      1.292      1.763
REMARK  Name = 119057475
REMARK  5 active torsions:
REMARK  status: ('A' for Active; 'I' for Inactive)
REMARK    1  A    between atoms: N_1  and  C_22
REMARK    2  A    between atoms: C_2  and  N_8
REMARK    3  A    between atoms: N_8  and  C_11
REMARK    4  A    between atoms: C_11  and  C_16
REMARK    5  A    between atoms: C_22  and  C_26
REMARK                            x       y       z     vdW  Elec       q    Type
REMARK                         _______ _______ _______ _____ _____    ______ ____
ROOT
ATOM      1  N   UNL     1      35.164 -21.476 -18.722  0.00  0.00    +0.387 N 
ATOM      2  C   UNL     1      35.548 -20.008 -21.224  0.00  0.00    -0.066 C 
ATOM      3  C   UNL     1      34.082 -21.398 -19.713  0.00  0.00    -0.079 C 
ATOM      4  C   UNL     1      36.482 -21.443 -19.371  0.00  0.00    -0.079 C 
ATOM      5  C   UNL     1      34.183 -20.114 -20.541  0.00  0.00    -0.044 C 
ATOM      6  C   UNL     1      36.665 -20.161 -20.188  0.00  0.00    -0.044 C 
ATOM      7  H   UNL     1      35.093 -20.660 -18.115  0.00  0.00    -0.080 HD
ENDROOT
BRANCH   2   8
ATOM      8  N   UNL     1      35.662 -18.735 -21.932  0.00  0.00    +0.389 N 
ATOM      9  H   UNL     1      36.650 -18.516 -22.067  0.00  0.00    -0.084 HD
ATOM     10  H   UNL     1      35.211 -18.009 -21.376  0.00  0.00    -0.084 HD
BRANCH   8  11
ATOM     11  C   UNL     1      35.007 -18.803 -23.229  0.00  0.00    -0.032 C 
BRANCH  11  16
ATOM     12  O   UNL     1      34.424 -14.027 -22.568  0.00  0.00    -0.467 OA
ATOM     13  O   UNL     1      33.258 -13.908 -25.196  0.00  0.00    -0.453 OA
ATOM     14  N   UNL     1      34.047 -17.371 -24.950  0.00  0.00    -0.151 NA
ATOM     15  N   UNL     1      33.626 -16.167 -25.425  0.00  0.00    -0.107 NA
ATOM     16  C   UNL     1      34.563 -17.446 -23.706  0.00  0.00    +0.062 C 
ATOM     17  C   UNL     1      34.698 -16.346 -22.883  0.00  0.00    +0.056 C 
ATOM     18  C   UNL     1      34.280 -15.121 -23.373  0.00  0.00    +0.194 C 
ATOM     19  C   UNL     1      33.732 -15.071 -24.643  0.00  0.00    +0.278 C 
ATOM     20  C   UNL     1      34.254 -12.804 -23.293  0.00  0.00    +0.253 C 
ATOM     21  C   UNL     1      33.048 -12.898 -24.207  0.00  0.00    +0.254 C 
ENDBRANCH  11  16
ENDBRANCH   8  11
ENDBRANCH   2   8
BRANCH   1  22
ATOM     22  C   UNL     1      35.025 -22.682 -17.906  0.00  0.00    -0.071 C 
BRANCH  22  26
ATOM     23  F   UNL     1      32.432 -22.759 -15.893  0.00  0.00    -0.204 F 
ATOM     24  O   UNL     1      39.178 -24.199 -14.834  0.00  0.00    -0.270 OA
ATOM     25  N   UNL     1      36.922 -23.776 -15.127  0.00  0.00    -0.255 N 
ATOM     26  C   UNL     1      35.420 -22.412 -16.461  0.00  0.00    +0.025 C 
ATOM     27  C   UNL     1      36.914 -22.761 -16.189  0.00  0.00    +0.101 C 
ATOM     28  C   UNL     1      34.702 -23.302 -15.484  0.00  0.00    +0.018 C 
ATOM     29  C   UNL     1      35.613 -24.047 -14.755  0.00  0.00    +0.052 C 
ATOM     30  C   UNL     1      35.278 -24.959 -13.775  0.00  0.00    +0.014 C 
ATOM     31  C   UNL     1      33.355 -23.461 -15.224  0.00  0.00    +0.137 C 
ATOM     32  C   UNL     1      38.001 -24.401 -14.544  0.00  0.00    +0.253 C 
ATOM     33  C   UNL     1      33.922 -25.127 -13.509  0.00  0.00    +0.004 C 
ATOM     34  C   UNL     1      32.968 -24.379 -14.232  0.00  0.00    +0.029 C 
ATOM     35  C   UNL     1      36.381 -25.653 -13.117  0.00  0.00    +0.006 C 
ATOM     36  C   UNL     1      37.651 -25.397 -13.472  0.00  0.00    +0.058 C 
ENDBRANCH  22  26
ENDBRANCH   1  22
TORSDOF 5
ENDMDL
MODEL 4
REMARK VINA RESULT:     -12.8      4.207     11.760
REMARK  Name = 119057475
REMARK  5 active torsions:
REMARK  status: ('A' for Active; 'I' for Inactive)
REMARK    1  A    between atoms: N_1  and  C_22
REMARK    2  A    between atoms: C_2  and  N_8
REMARK    3  A    between atoms: N_8  and  C_11
REMARK    4  A    between atoms: C_11  and  C_16
REMARK    5  A    between atoms: C_22  and  C_26
REMARK                            x       y       z     vdW  Elec       q    Type
REMARK                         _______ _______ _______ _____ _____    ______ ____
ROOT
ATOM      1  N   UNL     1      33.952 -14.578 -22.739  0.00  0.00    +0.387 N 
ATOM      2  C   UNL     1      34.985 -17.311 -22.894  0.00  0.00    -0.066 C 
ATOM      3  C   UNL     1      34.838 -15.099 -21.689  0.00  0.00    -0.079 C 
ATOM      4  C   UNL     1      34.256 -15.186 -24.042  0.00  0.00    -0.079 C 
ATOM      5  C   UNL     1      34.705 -16.619 -21.559  0.00  0.00    -0.044 C 
ATOM      6  C   UNL     1      34.103 -16.708 -23.991  0.00  0.00    -0.044 C 
ATOM      7  H   UNL     1      32.994 -14.826 -22.493  0.00  0.00    -0.080 HD
ENDROOT
BRANCH   2   8
ATOM      8  N   UNL     1      34.762 -18.750 -22.776  0.00  0.00    +0.389 N 
ATOM      9  H   UNL     1      34.954 -19.193 -23.675  0.00  0.00    -0.084 HD
ATOM     10  H   UNL     1      33.792 -18.910 -22.502  0.00  0.00    -0.084 HD
BRANCH   8  11
ATOM     11  C   UNL     1      35.633 -19.327 -21.763  0.00  0.00    -0.032 C 
BRANCH  11  16
ATOM     12  O   UNL     1      35.470 -22.538 -18.122  0.00  0.00    -0.467 OA
ATOM     13  O   UNL     1      32.600 -22.459 -18.315  0.00  0.00    -0.453 OA
ATOM     14  N   UNL     1      33.524 -20.137 -20.852  0.00  0.00    -0.151 NA
ATOM     15  N   UNL     1      32.790 -20.904 -19.999  0.00  0.00    -0.107 NA
ATOM     16  C   UNL     1      34.871 -20.191 -20.794  0.00  0.00    +0.062 C 
ATOM     17  C   UNL     1      35.552 -20.988 -19.896  0.00  0.00    +0.056 C 
ATOM     18  C   UNL     1      34.802 -21.758 -19.022  0.00  0.00    +0.194 C 
ATOM     19  C   UNL     1      33.422 -21.704 -19.115  0.00  0.00    +0.278 C 
ATOM     20  C   UNL     1      34.604 -23.027 -17.093  0.00  0.00    +0.253 C 
ATOM     21  C   UNL     1      33.307 -23.534 -17.693  0.00  0.00    +0.254 C 
ENDBRANCH  11  16
ENDBRANCH   8  11
ENDBRANCH   2   8
BRANCH   1  22
ATOM     22  C   UNL     1      34.053 -13.121 -22.818  0.00  0.00    -0.071 C 
BRANCH  22  26
ATOM     23  F   UNL     1      32.436 -13.654 -20.010  0.00  0.00    -0.204 F 
ATOM     24  O   UNL     1      32.149  -8.416 -24.611  0.00  0.00    -0.270 OA
ATOM     25  N   UNL     1      32.224 -10.100 -23.026  0.00  0.00    -0.255 N 
ATOM     26  C   UNL     1      32.674 -12.477 -22.826  0.00  0.00    +0.025 C 
ATOM     27  C   UNL     1      32.594 -11.280 -23.819  0.00  0.00    +0.101 C 
ATOM     28  C   UNL     1      32.326 -11.827 -21.515  0.00  0.00    +0.018 C 
ATOM     29  C   UNL     1      32.077 -10.478 -21.700  0.00  0.00    +0.052 C 
ATOM     30  C   UNL     1      31.730  -9.597 -20.696  0.00  0.00    +0.014 C 
ATOM     31  C   UNL     1      32.216 -12.354 -20.243  0.00  0.00    +0.137 C 
ATOM     32  C   UNL     1      32.033  -8.804 -23.452  0.00  0.00    +0.253 C 
ATOM     33  C   UNL     1      31.621 -10.120 -19.411  0.00  0.00    +0.004 C 
ATOM     34  C   UNL     1      31.863 -11.493 -19.189  0.00  0.00    +0.029 C 
ATOM     35  C   UNL     1      31.512  -8.207 -21.085  0.00  0.00    +0.006 C 
ATOM     36  C   UNL     1      31.652  -7.833 -22.368  0.00  0.00    +0.058 C 
ENDBRANCH  22  26
ENDBRANCH   1  22
TORSDOF 5
ENDMDL
MODEL 5
REMARK VINA RESULT:     -12.2      4.696     12.029
REMARK  Name = 119057475
REMARK  5 active torsions:
REMARK  status: ('A' for Active; 'I' for Inactive)
REMARK    1  A    between atoms: N_1  and  C_22
REMARK    2  A    between atoms: C_2  and  N_8
REMARK    3  A    between atoms: N_8  and  C_11
REMARK    4  A    between atoms: C_11  and  C_16
REMARK    5  A    between atoms: C_22  and  C_26
REMARK                            x       y       z     vdW  Elec       q    Type
REMARK                         _______ _______ _______ _____ _____    ______ ____
ROOT
ATOM      1  N   UNL     1      33.628 -13.533 -23.178  0.00  0.00    +0.387 N 
ATOM      2  C   UNL     1      34.627 -16.256 -23.562  0.00  0.00    -0.066 C 
ATOM      3  C   UNL     1      34.623 -14.098 -22.255  0.00  0.00    -0.079 C 
ATOM      4  C   UNL     1      33.784 -14.085 -24.531  0.00  0.00    -0.079 C 
ATOM      5  C   UNL     1      34.499 -15.622 -22.176  0.00  0.00    -0.044 C 
ATOM      6  C   UNL     1      33.632 -15.608 -24.528  0.00  0.00    -0.044 C 
ATOM      7  H   UNL     1      32.702 -13.793 -22.838  0.00  0.00    -0.080 HD
ENDROOT
BRANCH   2   8
ATOM      8  N   UNL     1      34.413 -17.700 -23.480  0.00  0.00    +0.389 N 
ATOM      9  H   UNL     1      34.289 -18.072 -24.422  0.00  0.00    -0.084 HD
ATOM     10  H   UNL     1      33.582 -17.876 -22.917  0.00  0.00    -0.084 HD
BRANCH   8  11
ATOM     11  C   UNL     1      35.550 -18.357 -22.853  0.00  0.00    -0.032 C 
BRANCH  11  16
ATOM     12  O   UNL     1      36.539 -21.371 -19.175  0.00  0.00    -0.467 OA
ATOM     13  O   UNL     1      33.716 -21.891 -18.975  0.00  0.00    -0.453 OA
ATOM     14  N   UNL     1      33.795 -19.541 -21.649  0.00  0.00    -0.151 NA
ATOM     15  N   UNL     1      33.355 -20.405 -20.693  0.00  0.00    -0.107 NA
ATOM     16  C   UNL     1      35.119 -19.315 -21.775  0.00  0.00    +0.062 C 
ATOM     17  C   UNL     1      36.062 -19.916 -20.967  0.00  0.00    +0.056 C 
ATOM     18  C   UNL     1      35.611 -20.784 -19.987  0.00  0.00    +0.194 C 
ATOM     19  C   UNL     1      34.250 -21.019 -19.891  0.00  0.00    +0.278 C 
ATOM     20  C   UNL     1      35.936 -21.982 -18.030  0.00  0.00    +0.253 C 
ATOM     21  C   UNL     1      34.707 -22.770 -18.439  0.00  0.00    +0.254 C 
ENDBRANCH  11  16
ENDBRANCH   8  11
ENDBRANCH   2   8
BRANCH   1  22
ATOM     22  C   UNL     1      33.725 -12.074 -23.205  0.00  0.00    -0.071 C 
BRANCH  22  26
ATOM     23  F   UNL     1      32.388 -13.123 -20.395  0.00  0.00    -0.204 F 
ATOM     24  O   UNL     1      31.775  -7.100 -23.866  0.00  0.00    -0.270 OA
ATOM     25  N   UNL     1      31.966  -9.056 -22.645  0.00  0.00    -0.255 N 
ATOM     26  C   UNL     1      32.370 -11.431 -22.946  0.00  0.00    +0.025 C 
ATOM     27  C   UNL     1      32.222 -10.065 -23.681  0.00  0.00    +0.101 C 
ATOM     28  C   UNL     1      32.174 -11.041 -21.507  0.00  0.00    +0.018 C 
ATOM     29  C   UNL     1      31.945  -9.680 -21.406  0.00  0.00    +0.052 C 
ATOM     30  C   UNL     1      31.725  -9.005 -20.222  0.00  0.00    +0.014 C 
ATOM     31  C   UNL     1      32.181 -11.801 -20.353  0.00  0.00    +0.137 C 
ATOM     32  C   UNL     1      31.767  -7.702 -22.795  0.00  0.00    +0.253 C 
ATOM     33  C   UNL     1      31.734  -9.763 -19.055  0.00  0.00    +0.004 C 
ATOM     34  C   UNL     1      31.960 -11.154 -19.125  0.00  0.00    +0.029 C 
ATOM     35  C   UNL     1      31.506  -7.565 -20.316  0.00  0.00    +0.006 C 
ATOM     36  C   UNL     1      31.525  -6.953 -21.513  0.00  0.00    +0.058 C 
ENDBRANCH  22  26
ENDBRANCH   1  22
TORSDOF 5
ENDMDL
MODEL 6
REMARK VINA RESULT:     -11.7      2.460     11.065
REMARK  Name = 119057475
REMARK  5 active torsions:
REMARK  status: ('A' for Active; 'I' for Inactive)
REMARK    1  A    between atoms: N_1  and  C_22
REMARK    2  A    between atoms: C_2  and  N_8
REMARK    3  A    between atoms: N_8  and  C_11
REMARK    4  A    between atoms: C_11  and  C_16
REMARK    5  A    between atoms: C_22  and  C_26
REMARK                            x       y       z     vdW  Elec       q    Type
REMARK                         _______ _______ _______ _____ _____    ______ ____
ROOT
ATOM      1  N   UNL     1      35.737 -18.589 -21.128  0.00  0.00    +0.387 N 
ATOM      2  C   UNL     1      35.899 -21.248 -19.917  0.00  0.00    -0.066 C 
ATOM      3  C   UNL     1      37.041 -19.232 -20.918  0.00  0.00    -0.079 C 
ATOM      4  C   UNL     1      34.686 -19.585 -21.376  0.00  0.00    -0.079 C 
ATOM      5  C   UNL     1      36.996 -20.197 -19.730  0.00  0.00    -0.044 C 
ATOM      6  C   UNL     1      34.561 -20.562 -20.204  0.00  0.00    -0.044 C 
ATOM      7  H   UNL     1      35.495 -18.084 -20.275  0.00  0.00    -0.080 HD
ENDROOT
BRANCH   2   8
ATOM      8  N   UNL     1      35.808 -22.101 -18.734  0.00  0.00    +0.389 N 
ATOM      9  H   UNL     1      35.827 -21.515 -17.899  0.00  0.00    -0.084 HD
ATOM     10  H   UNL     1      36.597 -22.746 -18.734  0.00  0.00    -0.084 HD
BRANCH   8  11
ATOM     11  C   UNL     1      34.574 -22.873 -18.747  0.00  0.00    -0.032 C 
BRANCH  11  16
ATOM     12  O   UNL     1      30.959 -23.552 -15.576  0.00  0.00    -0.467 OA
ATOM     13  O   UNL     1      32.951 -23.846 -13.522  0.00  0.00    -0.453 OA
ATOM     14  N   UNL     1      34.994 -23.319 -16.390  0.00  0.00    -0.151 NA
ATOM     15  N   UNL     1      34.586 -23.562 -15.114  0.00  0.00    -0.107 NA
ATOM     16  C   UNL     1      34.069 -23.145 -17.356  0.00  0.00    +0.062 C 
ATOM     17  C   UNL     1      32.711 -23.212 -17.115  0.00  0.00    +0.056 C 
ATOM     18  C   UNL     1      32.300 -23.471 -15.818  0.00  0.00    +0.194 C 
ATOM     19  C   UNL     1      33.266 -23.622 -14.839  0.00  0.00    +0.278 C 
ATOM     20  C   UNL     1      30.681 -24.125 -14.295  0.00  0.00    +0.253 C 
ATOM     21  C   UNL     1      31.588 -23.522 -13.240  0.00  0.00    +0.254 C 
ENDBRANCH  11  16
ENDBRANCH   8  11
ENDBRANCH   2   8
BRANCH   1  22
ATOM     22  C   UNL     1      35.809 -17.633 -22.233  0.00  0.00    -0.071 C 
BRANCH  22  26
ATOM     23  F   UNL     1      34.622 -16.035 -19.621  0.00  0.00    -0.204 F 
ATOM     24  O   UNL     1      33.671 -15.092 -26.470  0.00  0.00    -0.270 OA
ATOM     25  N   UNL     1      33.976 -15.324 -24.188  0.00  0.00    -0.255 N 
ATOM     26  C   UNL     1      34.445 -17.019 -22.514  0.00  0.00    +0.025 C 
ATOM     27  C   UNL     1      34.222 -16.764 -24.035  0.00  0.00    +0.101 C 
ATOM     28  C   UNL     1      34.295 -15.639 -21.935  0.00  0.00    +0.018 C 
ATOM     29  C   UNL     1      34.025 -14.725 -22.937  0.00  0.00    +0.052 C 
ATOM     30  C   UNL     1      33.831 -13.373 -22.738  0.00  0.00    +0.014 C 
ATOM     31  C   UNL     1      34.373 -15.191 -20.630  0.00  0.00    +0.137 C 
ATOM     32  C   UNL     1      33.727 -14.612 -25.340  0.00  0.00    +0.253 C 
ATOM     33  C   UNL     1      33.912 -12.913 -21.427  0.00  0.00    +0.004 C 
ATOM     34  C   UNL     1      34.181 -13.821 -20.381  0.00  0.00    +0.029 C 
ATOM     35  C   UNL     1      33.561 -12.564 -23.923  0.00  0.00    +0.006 C 
ATOM     36  C   UNL     1      33.512 -13.137 -25.137  0.00  0.00    +0.058 C 
ENDBRANCH  22  26
ENDBRANCH   1  22
TORSDOF 5
ENDMDL
MODEL 7
REMARK VINA RESULT:     -11.7      2.560     11.392
REMARK  Name = 119057475
REMARK  5 active torsions:
REMARK  status: ('A' for Active; 'I' for Inactive)
REMARK    1  A    between atoms: N_1  and  C_22
REMARK    2  A    between atoms: C_2  and  N_8
REMARK    3  A    between atoms: N_8  and  C_11
REMARK    4  A    between atoms: C_11  and  C_16
REMARK    5  A    between atoms: C_22  and  C_26
REMARK                            x       y       z     vdW  Elec       q    Type
REMARK                         _______ _______ _______ _____ _____    ______ ____
ROOT
ATOM      1  N   UNL     1      35.697 -18.638 -20.995  0.00  0.00    +0.387 N 
ATOM      2  C   UNL     1      35.743 -21.363 -19.928  0.00  0.00    -0.066 C 
ATOM      3  C   UNL     1      36.969 -19.360 -20.851  0.00  0.00    -0.079 C 
ATOM      4  C   UNL     1      34.588 -19.564 -21.269  0.00  0.00    -0.079 C 
ATOM      5  C   UNL     1      36.898 -20.383 -19.713  0.00  0.00    -0.044 C 
ATOM      6  C   UNL     1      34.437 -20.593 -20.145  0.00  0.00    -0.044 C 
ATOM      7  H   UNL     1      35.502 -18.168 -20.111  0.00  0.00    -0.080 HD
ENDROOT
BRANCH   2   8
ATOM      8  N   UNL     1      35.631 -22.271 -18.788  0.00  0.00    +0.389 N 
ATOM      9  H   UNL     1      35.900 -23.210 -19.083  0.00  0.00    -0.084 HD
ATOM     10  H   UNL     1      34.666 -22.266 -18.459  0.00  0.00    -0.084 HD
BRANCH   8  11
ATOM     11  C   UNL     1      36.498 -21.846 -17.700  0.00  0.00    -0.032 C 
BRANCH  11  16
ATOM     12  O   UNL     1      37.953 -23.423 -13.343  0.00  0.00    -0.467 OA
ATOM     13  O   UNL     1      35.615 -25.099 -13.282  0.00  0.00    -0.453 OA
ATOM     14  N   UNL     1      35.203 -23.459 -16.415  0.00  0.00    -0.151 NA
ATOM     15  N   UNL     1      34.993 -24.249 -15.326  0.00  0.00    -0.107 NA
ATOM     16  C   UNL     1      36.313 -22.694 -16.471  0.00  0.00    +0.062 C 
ATOM     17  C   UNL     1      37.254 -22.664 -15.462  0.00  0.00    +0.056 C 
ATOM     18  C   UNL     1      37.032 -23.459 -14.351  0.00  0.00    +0.194 C 
ATOM     19  C   UNL     1      35.899 -24.254 -14.325  0.00  0.00    +0.278 C 
ATOM     20  C   UNL     1      37.458 -24.030 -12.145  0.00  0.00    +0.253 C 
ATOM     21  C   UNL     1      36.764 -25.340 -12.467  0.00  0.00    +0.254 C 
ENDBRANCH  11  16
ENDBRANCH   8  11
ENDBRANCH   2   8
BRANCH   1  22
ATOM     22  C   UNL     1      35.796 -17.631 -22.050  0.00  0.00    -0.071 C 
BRANCH  22  26
ATOM     23  F   UNL     1      34.578 -15.947 -19.508  0.00  0.00    -0.204 F 
ATOM     24  O   UNL     1      33.685 -15.251 -26.394  0.00  0.00    -0.270 OA
ATOM     25  N   UNL     1      33.970 -15.401 -24.102  0.00  0.00    -0.255 N 
ATOM     26  C   UNL     1      34.432 -17.034 -22.366  0.00  0.00    +0.025 C 
ATOM     27  C   UNL     1      34.222 -16.834 -23.896  0.00  0.00    +0.101 C 
ATOM     28  C   UNL     1      34.271 -15.635 -21.837  0.00  0.00    +0.018 C 
ATOM     29  C   UNL     1      34.006 -14.758 -22.874  0.00  0.00    +0.052 C 
ATOM     30  C   UNL     1      33.804 -13.401 -22.724  0.00  0.00    +0.014 C 
ATOM     31  C   UNL     1      34.335 -15.141 -20.548  0.00  0.00    +0.137 C 
ATOM     32  C   UNL     1      33.729 -14.732 -25.281  0.00  0.00    +0.253 C 
ATOM     33  C   UNL     1      33.871 -12.895 -21.429  0.00  0.00    +0.004 C 
ATOM     34  C   UNL     1      34.135 -13.764 -20.349  0.00  0.00    +0.029 C 
ATOM     35  C   UNL     1      33.541 -12.636 -23.939  0.00  0.00    +0.006 C 
ATOM     36  C   UNL     1      33.506 -13.252 -25.133  0.00  0.00    +0.058 C 
ENDBRANCH  22  26
ENDBRANCH   1  22
TORSDOF 5
ENDMDL
MODEL 8
REMARK VINA RESULT:     -11.7      3.062     11.267
REMARK  Name = 119057475
REMARK  5 active torsions:
REMARK  status: ('A' for Active; 'I' for Inactive)
REMARK    1  A    between atoms: N_1  and  C_22
REMARK    2  A    between atoms: C_2  and  N_8
REMARK    3  A    between atoms: N_8  and  C_11
REMARK    4  A    between atoms: C_11  and  C_16
REMARK    5  A    between atoms: C_22  and  C_26
REMARK                            x       y       z     vdW  Elec       q    Type
REMARK                         _______ _______ _______ _____ _____    ______ ____
ROOT
ATOM      1  N   UNL     1      35.180 -18.722 -21.148  0.00  0.00    +0.387 N 
ATOM      2  C   UNL     1      36.372 -21.016 -19.778  0.00  0.00    -0.066 C 
ATOM      3  C   UNL     1      36.632 -18.946 -21.196  0.00  0.00    -0.079 C 
ATOM      4  C   UNL     1      34.449 -19.993 -21.051  0.00  0.00    -0.079 C 
ATOM      5  C   UNL     1      37.117 -19.691 -19.950  0.00  0.00    -0.044 C 
ATOM      6  C   UNL     1      34.860 -20.774 -19.800  0.00  0.00    -0.044 C 
ATOM      7  H   UNL     1      34.975 -18.177 -20.311  0.00  0.00    -0.080 HD
ENDROOT
BRANCH   2   8
ATOM      8  N   UNL     1      36.780 -21.669 -18.536  0.00  0.00    +0.389 N 
ATOM      9  H   UNL     1      37.177 -20.970 -17.907  0.00  0.00    -0.084 HD
ATOM     10  H   UNL     1      37.473 -22.384 -18.754  0.00  0.00    -0.084 HD
BRANCH   8  11
ATOM     11  C   UNL     1      35.642 -22.304 -17.888  0.00  0.00    -0.032 C 
BRANCH  11  16
ATOM     12  O   UNL     1      34.308 -23.927 -13.509  0.00  0.00    -0.467 OA
ATOM     13  O   UNL     1      37.070 -23.767 -12.719  0.00  0.00    -0.453 OA
ATOM     14  N   UNL     1      37.259 -22.686 -16.106  0.00  0.00    -0.151 NA
ATOM     15  N   UNL     1      37.599 -23.051 -14.840  0.00  0.00    -0.107 NA
ATOM     16  C   UNL     1      35.963 -22.724 -16.478  0.00  0.00    +0.062 C 
ATOM     17  C   UNL     1      34.952 -23.130 -15.631  0.00  0.00    +0.056 C 
ATOM     18  C   UNL     1      35.303 -23.512 -14.347  0.00  0.00    +0.194 C 
ATOM     19  C   UNL     1      36.635 -23.442 -13.980  0.00  0.00    +0.278 C 
ATOM     20  C   UNL     1      34.827 -24.581 -12.346  0.00  0.00    +0.253 C 
ATOM     21  C   UNL     1      35.994 -23.796 -11.779  0.00  0.00    +0.254 C 
ENDBRANCH  11  16
ENDBRANCH   8  11
ENDBRANCH   2   8
BRANCH   1  22
ATOM     22  C   UNL     1      34.739 -17.966 -22.320  0.00  0.00    -0.071 C 
BRANCH  22  26
ATOM     23  F   UNL     1      35.400 -16.571 -25.218  0.00  0.00    -0.204 F 
ATOM     24  O   UNL     1      32.754 -13.969 -19.309  0.00  0.00    -0.270 OA
ATOM     25  N   UNL     1      33.588 -14.776 -21.310  0.00  0.00    -0.255 N 
ATOM     26  C   UNL     1      35.076 -16.488 -22.176  0.00  0.00    +0.025 C 
ATOM     27  C   UNL     1      34.465 -15.874 -20.881  0.00  0.00    +0.101 C 
ATOM     28  C   UNL     1      34.458 -15.641 -23.253  0.00  0.00    +0.018 C 
ATOM     29  C   UNL     1      33.627 -14.685 -22.694  0.00  0.00    +0.052 C 
ATOM     30  C   UNL     1      32.911 -13.749 -23.412  0.00  0.00    +0.014 C 
ATOM     31  C   UNL     1      34.602 -15.674 -24.627  0.00  0.00    +0.137 C 
ATOM     32  C   UNL     1      32.825 -13.932 -20.535  0.00  0.00    +0.253 C 
ATOM     33  C   UNL     1      33.048 -13.778 -24.796  0.00  0.00    +0.004 C 
ATOM     34  C   UNL     1      33.891 -14.738 -25.397  0.00  0.00    +0.029 C 
ATOM     35  C   UNL     1      32.083 -12.823 -22.645  0.00  0.00    +0.006 C 
ATOM     36  C   UNL     1      32.039 -12.905 -21.304  0.00  0.00    +0.058 C 
ENDBRANCH  22  26
ENDBRANCH   1  22
TORSDOF 5
ENDMDL
MODEL 9
REMARK VINA RESULT:     -11.5      4.688     12.436
REMARK  Name = 119057475
REMARK  5 active torsions:
REMARK  status: ('A' for Active; 'I' for Inactive)
REMARK    1  A    between atoms: N_1  and  C_22
REMARK    2  A    between atoms: C_2  and  N_8
REMARK    3  A    between atoms: N_8  and  C_11
REMARK    4  A    between atoms: C_11  and  C_16
REMARK    5  A    between atoms: C_22  and  C_26
REMARK                            x       y       z     vdW  Elec       q    Type
REMARK                         _______ _______ _______ _____ _____    ______ ____
ROOT
ATOM      1  N   UNL     1      33.515 -13.333 -22.119  0.00  0.00    +0.387 N 
ATOM      2  C   UNL     1      34.475 -16.035 -22.701  0.00  0.00    -0.066 C 
ATOM      3  C   UNL     1      33.076 -14.033 -23.334  0.00  0.00    -0.079 C 
ATOM      4  C   UNL     1      33.782 -14.279 -21.027  0.00  0.00    -0.079 C 
ATOM      5  C   UNL     1      34.134 -15.034 -23.807  0.00  0.00    -0.044 C 
ATOM      6  C   UNL     1      34.863 -15.289 -21.421  0.00  0.00    -0.044 C 
ATOM      7  H   UNL     1      34.386 -12.848 -22.334  0.00  0.00    -0.080 HD
ENDROOT
BRANCH   2   8
ATOM      8  N   UNL     1      35.551 -16.923 -23.136  0.00  0.00    +0.389 N 
ATOM      9  H   UNL     1      36.337 -16.836 -22.490  0.00  0.00    -0.084 HD
ATOM     10  H   UNL     1      35.835 -16.656 -24.078  0.00  0.00    -0.084 HD
BRANCH   8  11
ATOM     11  C   UNL     1      35.103 -18.307 -23.159  0.00  0.00    -0.032 C 
BRANCH  11  16
ATOM     12  O   UNL     1      34.431 -21.671 -19.720  0.00  0.00    -0.467 OA
ATOM     13  O   UNL     1      36.997 -20.938 -18.644  0.00  0.00    -0.453 OA
ATOM     14  N   UNL     1      36.778 -18.754 -21.447  0.00  0.00    -0.151 NA
ATOM     15  N   UNL     1      37.235 -19.408 -20.344  0.00  0.00    -0.107 NA
ATOM     16  C   UNL     1      35.561 -19.065 -21.941  0.00  0.00    +0.062 C 
ATOM     17  C   UNL     1      34.750 -20.032 -21.383  0.00  0.00    +0.056 C 
ATOM     18  C   UNL     1      35.223 -20.703 -20.268  0.00  0.00    +0.194 C 
ATOM     19  C   UNL     1      36.464 -20.352 -19.765  0.00  0.00    +0.278 C 
ATOM     20  C   UNL     1      35.151 -22.488 -18.791  0.00  0.00    +0.253 C 
ATOM     21  C   UNL     1      36.002 -21.624 -17.881  0.00  0.00    +0.254 C 
ENDBRANCH  11  16
ENDBRANCH   8  11
ENDBRANCH   2   8
BRANCH   1  22
ATOM     22  C   UNL     1      32.518 -12.345 -21.708  0.00  0.00    -0.071 C 
BRANCH  22  26
ATOM     23  F   UNL     1      30.336 -10.067 -20.794  0.00  0.00    -0.204 F 
ATOM     24  O   UNL     1      36.115  -9.665 -24.684  0.00  0.00    -0.270 OA
ATOM     25  N   UNL     1      34.212  -9.721 -23.370  0.00  0.00    -0.255 N 
ATOM     26  C   UNL     1      32.413 -11.218 -22.726  0.00  0.00    +0.025 C 
ATOM     27  C   UNL     1      33.706 -11.083 -23.584  0.00  0.00    +0.101 C 
ATOM     28  C   UNL     1      32.312  -9.861 -22.086  0.00  0.00    +0.018 C 
ATOM     29  C   UNL     1      33.361  -9.058 -22.498  0.00  0.00    +0.052 C 
ATOM     30  C   UNL     1      33.558  -7.753 -22.094  0.00  0.00    +0.014 C 
ATOM     31  C   UNL     1      31.376  -9.337 -21.215  0.00  0.00    +0.137 C 
ATOM     32  C   UNL     1      35.330  -9.125 -23.908  0.00  0.00    +0.253 C 
ATOM     33  C   UNL     1      32.621  -7.219 -21.213  0.00  0.00    +0.004 C 
ATOM     34  C   UNL     1      31.537  -8.011 -20.779  0.00  0.00    +0.029 C 
ATOM     35  C   UNL     1      34.728  -7.066 -22.633  0.00  0.00    +0.006 C 
ATOM     36  C   UNL     1      35.557  -7.701 -23.478  0.00  0.00    +0.058 C 
ENDBRANCH  22  26
ENDBRANCH   1  22
TORSDOF 5
ENDMDL
