MODEL 1
REMARK VINA RESULT:     -13.5      0.000      0.000
REMARK  Name = 446399
REMARK  4 active torsions:
REMARK  status: ('A' for Active; 'I' for Inactive)
REMARK    1  A    between atoms: N_3  and  S_21
REMARK    2  A    between atoms: C_4  and  C_10
REMARK    3  A    between atoms: N_9  and  C_16
REMARK    4  A    between atoms: S_21  and  C_25
REMARK                            x       y       z     vdW  Elec       q    Type
REMARK                         _______ _______ _______ _____ _____    ______ ____
ROOT
ATOM      1  O   UNL     1      33.811 -16.205 -25.513  0.00  0.00    -0.275 OA
ATOM      2  N   UNL     1      34.082 -14.675 -23.786  0.00  0.00    -0.277 N 
ATOM      3  N   UNL     1      32.896 -12.482 -22.414  0.00  0.00    -0.152 NA
ATOM      4  C   UNL     1      34.211 -15.930 -24.378  0.00  0.00    +0.225 C 
ATOM      5  C   UNL     1      34.547 -14.315 -22.441  0.00  0.00    +0.113 C 
ATOM      6  C   UNL     1      33.502 -13.564 -24.543  0.00  0.00    +0.113 C 
ATOM      7  C   UNL     1      33.430 -13.646 -21.645  0.00  0.00    +0.117 C 
ATOM      8  C   UNL     1      32.380 -12.897 -23.755  0.00  0.00    +0.117 C 
ENDROOT
BRANCH   4  10
ATOM      9  N   UNL     1      34.765 -19.134 -21.618  0.00  0.00    -0.307 N 
ATOM     10  C   UNL     1      34.885 -16.998 -23.555  0.00  0.00    +0.080 C 
ATOM     11  C   UNL     1      34.295 -18.361 -23.908  0.00  0.00    +0.031 C 
ATOM     12  C   UNL     1      34.692 -16.714 -22.068  0.00  0.00    +0.031 C 
ATOM     13  C   UNL     1      34.889 -19.470 -23.040  0.00  0.00    +0.091 C 
ATOM     14  C   UNL     1      35.291 -17.824 -21.208  0.00  0.00    +0.091 C 
BRANCH   9  16
ATOM     15  N   UNL     1      34.802 -22.228 -18.746  0.00  0.00    -0.242 NA
ATOM     16  C   UNL     1      34.778 -20.160 -20.664  0.00  0.00    +0.051 C 
ATOM     17  C   UNL     1      35.986 -20.670 -20.165  0.00  0.00    +0.035 C 
ATOM     18  C   UNL     1      33.581 -20.712 -20.180  0.00  0.00    +0.035 C 
ATOM     19  C   UNL     1      35.945 -21.685 -19.223  0.00  0.00    +0.100 C 
ATOM     20  C   UNL     1      33.647 -21.725 -19.237  0.00  0.00    +0.100 C 
ENDBRANCH   9  16
ENDBRANCH   4  10
BRANCH   3  21
ATOM     21  S   UNL     1      31.876 -11.426 -21.533  0.00  0.00    +0.063 S 
ATOM     22  O   UNL     1      32.413 -11.254 -20.201  0.00  0.00    -0.153 OA
ATOM     23  O   UNL     1      30.500 -11.824 -21.737  0.00  0.00    -0.153 OA
BRANCH  21  25
ATOM     24 CL   UNL     1      34.363  -4.432 -25.605  0.00  0.00    -0.082 Cl
ATOM     25  C   UNL     1      32.145  -9.925 -22.423  0.00  0.00    +0.122 C 
ATOM     26  C   UNL     1      33.440  -9.473 -22.611  0.00  0.00    +0.020 C 
ATOM     27  C   UNL     1      31.059  -9.229 -22.917  0.00  0.00    +0.020 C 
ATOM     28  C   UNL     1      33.672  -8.280 -23.318  0.00  0.00    +0.001 C 
ATOM     29  C   UNL     1      32.570  -7.555 -23.830  0.00  0.00    +0.001 C 
ATOM     30  C   UNL     1      31.270  -8.043 -23.622  0.00  0.00    +0.001 C 
ATOM     31  C   UNL     1      34.972  -7.794 -23.527  0.00  0.00    +0.001 C 
ATOM     32  C   UNL     1      32.801  -6.364 -24.538  0.00  0.00    +0.011 C 
ATOM     33  C   UNL     1      35.183  -6.607 -24.231  0.00  0.00    +0.011 C 
ATOM     34  C   UNL     1      34.100  -5.894 -24.735  0.00  0.00    +0.058 C 
ENDBRANCH  21  25
ENDBRANCH   3  21
TORSDOF 4
ENDMDL
MODEL 2
REMARK VINA RESULT:     -13.2      1.005      1.702
REMARK  Name = 446399
REMARK  4 active torsions:
REMARK  status: ('A' for Active; 'I' for Inactive)
REMARK    1  A    between atoms: N_3  and  S_21
REMARK    2  A    between atoms: C_4  and  C_10
REMARK    3  A    between atoms: N_9  and  C_16
REMARK    4  A    between atoms: S_21  and  C_25
REMARK                            x       y       z     vdW  Elec       q    Type
REMARK                         _______ _______ _______ _____ _____    ______ ____
ROOT
ATOM      1  O   UNL     1      33.806 -16.109 -25.489  0.00  0.00    -0.275 OA
ATOM      2  N   UNL     1      34.056 -14.678 -23.677  0.00  0.00    -0.277 N 
ATOM      3  N   UNL     1      32.838 -12.586 -22.181  0.00  0.00    -0.152 NA
ATOM      4  C   UNL     1      34.203 -15.895 -24.341  0.00  0.00    +0.225 C 
ATOM      5  C   UNL     1      34.515 -14.391 -22.313  0.00  0.00    +0.113 C 
ATOM      6  C   UNL     1      33.459 -13.534 -24.368  0.00  0.00    +0.113 C 
ATOM      7  C   UNL     1      33.388 -13.786 -21.480  0.00  0.00    +0.117 C 
ATOM      8  C   UNL     1      32.329 -12.929 -23.544  0.00  0.00    +0.117 C 
ENDROOT
BRANCH   4  10
ATOM      9  N   UNL     1      34.837 -19.130 -21.633  0.00  0.00    -0.307 N 
ATOM     10  C   UNL     1      34.892 -16.999 -23.580  0.00  0.00    +0.080 C 
ATOM     11  C   UNL     1      34.199 -18.327 -23.873  0.00  0.00    +0.031 C 
ATOM     12  C   UNL     1      34.852 -16.708 -22.082  0.00  0.00    +0.031 C 
ATOM     13  C   UNL     1      34.810 -19.469 -23.061  0.00  0.00    +0.091 C 
ATOM     14  C   UNL     1      35.468 -17.851 -21.278  0.00  0.00    +0.091 C 
BRANCH   9  16
ATOM     15  N   UNL     1      34.973 -22.225 -18.766  0.00  0.00    -0.242 NA
ATOM     16  C   UNL     1      34.882 -20.157 -20.683  0.00  0.00    +0.051 C 
ATOM     17  C   UNL     1      33.704 -20.748 -20.199  0.00  0.00    +0.035 C 
ATOM     18  C   UNL     1      36.107 -20.626 -20.182  0.00  0.00    +0.035 C 
ATOM     19  C   UNL     1      33.803 -21.761 -19.259  0.00  0.00    +0.100 C 
ATOM     20  C   UNL     1      36.097 -21.645 -19.242  0.00  0.00    +0.100 C 
ENDBRANCH   9  16
ENDBRANCH   4  10
BRANCH   3  21
ATOM     21  S   UNL     1      31.803 -11.597 -21.241  0.00  0.00    +0.063 S 
ATOM     22  O   UNL     1      32.289 -11.566 -19.879  0.00  0.00    -0.153 OA
ATOM     23  O   UNL     1      30.429 -11.944 -21.535  0.00  0.00    -0.153 OA
BRANCH  21  25
ATOM     24 CL   UNL     1      32.603  -3.604 -23.916  0.00  0.00    -0.082 Cl
ATOM     25  C   UNL     1      32.135 -10.025 -21.970  0.00  0.00    +0.122 C 
ATOM     26  C   UNL     1      31.493  -8.900 -21.477  0.00  0.00    +0.020 C 
ATOM     27  C   UNL     1      33.030  -9.942 -23.019  0.00  0.00    +0.020 C 
ATOM     28  C   UNL     1      31.747  -7.641 -22.046  0.00  0.00    +0.001 C 
ATOM     29  C   UNL     1      32.661  -7.540 -23.122  0.00  0.00    +0.001 C 
ATOM     30  C   UNL     1      33.294  -8.699 -23.596  0.00  0.00    +0.001 C 
ATOM     31  C   UNL     1      31.114  -6.481 -21.571  0.00  0.00    +0.001 C 
ATOM     32  C   UNL     1      32.916  -6.280 -23.691  0.00  0.00    +0.011 C 
ATOM     33  C   UNL     1      31.378  -5.239 -22.149  0.00  0.00    +0.011 C 
ATOM     34  C   UNL     1      32.277  -5.139 -23.207  0.00  0.00    +0.058 C 
ENDBRANCH  21  25
ENDBRANCH   3  21
TORSDOF 4
ENDMDL
MODEL 3
REMARK VINA RESULT:     -12.7      4.612     11.407
REMARK  Name = 446399
REMARK  4 active torsions:
REMARK  status: ('A' for Active; 'I' for Inactive)
REMARK    1  A    between atoms: N_3  and  S_21
REMARK    2  A    between atoms: C_4  and  C_10
REMARK    3  A    between atoms: N_9  and  C_16
REMARK    4  A    between atoms: S_21  and  C_25
REMARK                            x       y       z     vdW  Elec       q    Type
REMARK                         _______ _______ _______ _____ _____    ______ ____
ROOT
ATOM      1  O   UNL     1      33.259 -13.772 -25.354  0.00  0.00    -0.275 OA
ATOM      2  N   UNL     1      33.642 -15.202 -23.564  0.00  0.00    -0.277 N 
ATOM      3  N   UNL     1      34.948 -17.589 -22.734  0.00  0.00    -0.152 NA
ATOM      4  C   UNL     1      33.456 -13.951 -24.149  0.00  0.00    +0.225 C 
ATOM      5  C   UNL     1      33.878 -15.449 -22.137  0.00  0.00    +0.113 C 
ATOM      6  C   UNL     1      33.542 -16.413 -24.379  0.00  0.00    +0.113 C 
ATOM      7  C   UNL     1      35.104 -16.335 -21.937  0.00  0.00    +0.117 C 
ATOM      8  C   UNL     1      34.768 -17.300 -24.189  0.00  0.00    +0.117 C 
ENDROOT
BRANCH   4  10
ATOM      9  N   UNL     1      32.571 -10.145 -22.436  0.00  0.00    -0.307 N 
ATOM     10  C   UNL     1      33.504 -12.760 -23.225  0.00  0.00    +0.080 C 
ATOM     11  C   UNL     1      32.138 -12.566 -22.573  0.00  0.00    +0.031 C 
ATOM     12  C   UNL     1      33.895 -11.507 -24.004  0.00  0.00    +0.031 C 
ATOM     13  C   UNL     1      32.112 -11.321 -21.687  0.00  0.00    +0.091 C 
ATOM     14  C   UNL     1      33.870 -10.268 -23.112  0.00  0.00    +0.091 C 
BRANCH   9  16
ATOM     15  N   UNL     1      31.395  -6.292 -21.176  0.00  0.00    -0.242 NA
ATOM     16  C   UNL     1      32.181  -8.867 -22.018  0.00  0.00    +0.051 C 
ATOM     17  C   UNL     1      31.373  -8.055 -22.829  0.00  0.00    +0.035 C 
ATOM     18  C   UNL     1      32.587  -8.358 -20.774  0.00  0.00    +0.035 C 
ATOM     19  C   UNL     1      31.014  -6.798 -22.370  0.00  0.00    +0.100 C 
ATOM     20  C   UNL     1      32.173  -7.087 -20.407  0.00  0.00    +0.100 C 
ENDBRANCH   9  16
ENDBRANCH   4  10
BRANCH   3  21
ATOM     21  S   UNL     1      36.067 -18.834 -22.368  0.00  0.00    +0.063 S 
ATOM     22  O   UNL     1      37.178 -18.270 -21.635  0.00  0.00    -0.153 OA
ATOM     23  O   UNL     1      36.284 -19.632 -23.556  0.00  0.00    -0.153 OA
BRANCH  21  25
ATOM     24 CL   UNL     1      32.524 -23.793 -16.491  0.00  0.00    -0.082 Cl
ATOM     25  C   UNL     1      35.104 -19.790 -21.239  0.00  0.00    +0.122 C 
ATOM     26  C   UNL     1      35.747 -20.575 -20.297  0.00  0.00    +0.020 C 
ATOM     27  C   UNL     1      33.725 -19.738 -21.315  0.00  0.00    +0.020 C 
ATOM     28  C   UNL     1      34.995 -21.342 -19.391  0.00  0.00    +0.001 C 
ATOM     29  C   UNL     1      33.582 -21.300 -19.455  0.00  0.00    +0.001 C 
ATOM     30  C   UNL     1      32.963 -20.494 -20.423  0.00  0.00    +0.001 C 
ATOM     31  C   UNL     1      35.615 -22.149 -18.423  0.00  0.00    +0.001 C 
ATOM     32  C   UNL     1      32.830 -22.066 -18.549  0.00  0.00    +0.011 C 
ATOM     33  C   UNL     1      34.852 -22.904 -17.531  0.00  0.00    +0.011 C 
ATOM     34  C   UNL     1      33.462 -22.863 -17.594  0.00  0.00    +0.058 C 
ENDBRANCH  21  25
ENDBRANCH   3  21
TORSDOF 4
ENDMDL
MODEL 4
REMARK VINA RESULT:     -12.2      4.504     11.537
REMARK  Name = 446399
REMARK  4 active torsions:
REMARK  status: ('A' for Active; 'I' for Inactive)
REMARK    1  A    between atoms: N_3  and  S_21
REMARK    2  A    between atoms: C_4  and  C_10
REMARK    3  A    between atoms: N_9  and  C_16
REMARK    4  A    between atoms: S_21  and  C_25
REMARK                            x       y       z     vdW  Elec       q    Type
REMARK                         _______ _______ _______ _____ _____    ______ ____
ROOT
ATOM      1  O   UNL     1      32.434 -13.932 -19.527  0.00  0.00    -0.275 OA
ATOM      2  N   UNL     1      33.950 -14.743 -21.088  0.00  0.00    -0.277 N 
ATOM      3  N   UNL     1      35.264 -17.072 -22.061  0.00  0.00    -0.152 NA
ATOM      4  C   UNL     1      32.921 -13.906 -20.660  0.00  0.00    +0.225 C 
ATOM      5  C   UNL     1      34.552 -14.739 -22.427  0.00  0.00    +0.113 C 
ATOM      6  C   UNL     1      34.568 -15.681 -20.150  0.00  0.00    +0.113 C 
ATOM      7  C   UNL     1      34.576 -16.148 -23.012  0.00  0.00    +0.117 C 
ATOM      8  C   UNL     1      34.590 -17.092 -20.727  0.00  0.00    +0.117 C 
ENDROOT
BRANCH   4  10
ATOM      9  N   UNL     1      32.028 -10.210 -22.593  0.00  0.00    -0.307 N 
ATOM     10  C   UNL     1      32.390 -12.920 -21.670  0.00  0.00    +0.080 C 
ATOM     11  C   UNL     1      33.549 -12.117 -22.255  0.00  0.00    +0.031 C 
ATOM     12  C   UNL     1      31.385 -11.981 -21.008  0.00  0.00    +0.031 C 
ATOM     13  C   UNL     1      33.054 -11.046 -23.227  0.00  0.00    +0.091 C 
ATOM     14  C   UNL     1      30.892 -10.917 -21.986  0.00  0.00    +0.091 C 
BRANCH   9  16
ATOM     15  N   UNL     1      31.330  -6.314 -24.063  0.00  0.00    -0.242 NA
ATOM     16  C   UNL     1      31.796  -8.918 -23.081  0.00  0.00    +0.051 C 
ATOM     17  C   UNL     1      31.959  -8.617 -24.442  0.00  0.00    +0.035 C 
ATOM     18  C   UNL     1      31.394  -7.882 -22.222  0.00  0.00    +0.035 C 
ATOM     19  C   UNL     1      31.718  -7.323 -24.874  0.00  0.00    +0.100 C 
ATOM     20  C   UNL     1      31.178  -6.621 -22.754  0.00  0.00    +0.100 C 
ENDBRANCH   9  16
ENDBRANCH   4  10
BRANCH   3  21
ATOM     21  S   UNL     1      35.674 -18.608 -22.697  0.00  0.00    +0.063 S 
ATOM     22  O   UNL     1      37.108 -18.781 -22.626  0.00  0.00    -0.153 OA
ATOM     23  O   UNL     1      34.959 -18.806 -23.940  0.00  0.00    -0.153 OA
BRANCH  21  25
ATOM     24 CL   UNL     1      33.311 -23.810 -16.449  0.00  0.00    -0.082 Cl
ATOM     25  C   UNL     1      34.943 -19.652 -21.476  0.00  0.00    +0.122 C 
ATOM     26  C   UNL     1      35.757 -20.301 -20.564  0.00  0.00    +0.020 C 
ATOM     27  C   UNL     1      33.568 -19.802 -21.451  0.00  0.00    +0.020 C 
ATOM     28  C   UNL     1      35.190 -21.135 -19.585  0.00  0.00    +0.001 C 
ATOM     29  C   UNL     1      33.785 -21.299 -19.546  0.00  0.00    +0.001 C 
ATOM     30  C   UNL     1      32.989 -20.626 -20.486  0.00  0.00    +0.001 C 
ATOM     31  C   UNL     1      35.987 -21.808 -18.645  0.00  0.00    +0.001 C 
ATOM     32  C   UNL     1      33.218 -22.133 -18.567  0.00  0.00    +0.011 C 
ATOM     33  C   UNL     1      35.407 -22.632 -17.680  0.00  0.00    +0.011 C 
ATOM     34  C   UNL     1      34.025 -22.794 -17.642  0.00  0.00    +0.058 C 
ENDBRANCH  21  25
ENDBRANCH   3  21
TORSDOF 4
ENDMDL
MODEL 5
REMARK VINA RESULT:     -11.2      4.117     11.486
REMARK  Name = 446399
REMARK  4 active torsions:
REMARK  status: ('A' for Active; 'I' for Inactive)
REMARK    1  A    between atoms: N_3  and  S_21
REMARK    2  A    between atoms: C_4  and  C_10
REMARK    3  A    between atoms: N_9  and  C_16
REMARK    4  A    between atoms: S_21  and  C_25
REMARK                            x       y       z     vdW  Elec       q    Type
REMARK                         _______ _______ _______ _____ _____    ______ ____
ROOT
ATOM      1  O   UNL     1      32.348 -12.257 -20.422  0.00  0.00    -0.275 OA
ATOM      2  N   UNL     1      33.520 -13.177 -22.203  0.00  0.00    -0.277 N 
ATOM      3  N   UNL     1      34.294 -15.602 -23.473  0.00  0.00    -0.152 NA
ATOM      4  C   UNL     1      32.705 -12.219 -21.602  0.00  0.00    +0.225 C 
ATOM      5  C   UNL     1      33.962 -13.162 -23.603  0.00  0.00    +0.113 C 
ATOM      6  C   UNL     1      34.065 -14.278 -21.408  0.00  0.00    +0.113 C 
ATOM      7  C   UNL     1      33.677 -14.502 -24.274  0.00  0.00    +0.117 C 
ATOM      8  C   UNL     1      33.777 -15.620 -22.070  0.00  0.00    +0.117 C 
ENDROOT
BRANCH   4  10
ATOM      9  N   UNL     1      32.018  -8.253 -23.016  0.00  0.00    -0.307 N 
ATOM     10  C   UNL     1      32.245 -11.080 -22.476  0.00  0.00    +0.080 C 
ATOM     11  C   UNL     1      33.453 -10.252 -22.910  0.00  0.00    +0.031 C 
ATOM     12  C   UNL     1      31.255 -10.201 -21.715  0.00  0.00    +0.031 C 
ATOM     13  C   UNL     1      33.031  -9.035 -23.733  0.00  0.00    +0.091 C 
ATOM     14  C   UNL     1      30.836  -8.990 -22.545  0.00  0.00    +0.091 C 
BRANCH   9  16
ATOM     15  N   UNL     1      31.516  -4.164 -23.937  0.00  0.00    -0.242 NA
ATOM     16  C   UNL     1      31.852  -6.896 -23.321  0.00  0.00    +0.051 C 
ATOM     17  C   UNL     1      31.515  -5.966 -22.326  0.00  0.00    +0.035 C 
ATOM     18  C   UNL     1      32.016  -6.425 -24.633  0.00  0.00    +0.035 C 
ATOM     19  C   UNL     1      31.362  -4.635 -22.679  0.00  0.00    +0.100 C 
ATOM     20  C   UNL     1      31.840  -5.074 -24.883  0.00  0.00    +0.100 C 
ENDBRANCH   9  16
ENDBRANCH   4  10
BRANCH   3  21
ATOM     21  S   UNL     1      34.359 -17.128 -24.249  0.00  0.00    +0.063 S 
ATOM     22  O   UNL     1      35.362 -17.085 -25.290  0.00  0.00    -0.153 OA
ATOM     23  O   UNL     1      33.009 -17.568 -24.529  0.00  0.00    -0.153 OA
BRANCH  21  25
ATOM     24 CL   UNL     1      36.252 -22.332 -17.844  0.00  0.00    -0.082 Cl
ATOM     25  C   UNL     1      34.990 -18.117 -22.930  0.00  0.00    +0.122 C 
ATOM     26  C   UNL     1      34.143 -18.997 -22.277  0.00  0.00    +0.020 C 
ATOM     27  C   UNL     1      36.320 -17.997 -22.573  0.00  0.00    +0.020 C 
ATOM     28  C   UNL     1      34.630 -19.791 -21.226  0.00  0.00    +0.001 C 
ATOM     29  C   UNL     1      35.989 -19.680 -20.848  0.00  0.00    +0.001 C 
ATOM     30  C   UNL     1      36.821 -18.779 -21.531  0.00  0.00    +0.001 C 
ATOM     31  C   UNL     1      33.798 -20.693 -20.543  0.00  0.00    +0.001 C 
ATOM     32  C   UNL     1      36.477 -20.475 -19.797  0.00  0.00    +0.011 C 
ATOM     33  C   UNL     1      34.299 -21.474 -19.501  0.00  0.00    +0.011 C 
ATOM     34  C   UNL     1      35.636 -21.365 -19.128  0.00  0.00    +0.058 C 
ENDBRANCH  21  25
ENDBRANCH   3  21
TORSDOF 4
ENDMDL
MODEL 6
REMARK VINA RESULT:     -11.1      4.053      7.184
REMARK  Name = 446399
REMARK  4 active torsions:
REMARK  status: ('A' for Active; 'I' for Inactive)
REMARK    1  A    between atoms: N_3  and  S_21
REMARK    2  A    between atoms: C_4  and  C_10
REMARK    3  A    between atoms: N_9  and  C_16
REMARK    4  A    between atoms: S_21  and  C_25
REMARK                            x       y       z     vdW  Elec       q    Type
REMARK                         _______ _______ _______ _____ _____    ______ ____
ROOT
ATOM      1  O   UNL     1      32.695  -8.641 -20.158  0.00  0.00    -0.275 OA
ATOM      2  N   UNL     1      31.486  -7.440 -21.736  0.00  0.00    -0.277 N 
ATOM      3  N   UNL     1      31.155  -4.897 -22.969  0.00  0.00    -0.152 NA
ATOM      4  C   UNL     1      32.116  -8.582 -21.247  0.00  0.00    +0.225 C 
ATOM      5  C   UNL     1      30.790  -7.336 -23.024  0.00  0.00    +0.113 C 
ATOM      6  C   UNL     1      31.422  -6.230 -20.914  0.00  0.00    +0.113 C 
ATOM      7  C   UNL     1      31.286  -6.125 -23.809  0.00  0.00    +0.117 C 
ATOM      8  C   UNL     1      31.922  -5.018 -21.692  0.00  0.00    +0.117 C 
ENDROOT
BRANCH   4  10
ATOM      9  N   UNL     1      33.091 -12.398 -22.886  0.00  0.00    -0.307 N 
ATOM     10  C   UNL     1      32.074  -9.805 -22.127  0.00  0.00    +0.080 C 
ATOM     11  C   UNL     1      31.822 -11.042 -21.268  0.00  0.00    +0.031 C 
ATOM     12  C   UNL     1      33.393  -9.954 -22.883  0.00  0.00    +0.031 C 
ATOM     13  C   UNL     1      31.851 -12.321 -22.105  0.00  0.00    +0.091 C 
ATOM     14  C   UNL     1      33.412 -11.231 -23.719  0.00  0.00    +0.091 C 
BRANCH   9  16
ATOM     15  N   UNL     1      34.487 -16.162 -24.192  0.00  0.00    -0.242 NA
ATOM     16  C   UNL     1      33.554 -13.647 -23.319  0.00  0.00    +0.051 C 
ATOM     17  C   UNL     1      33.177 -14.165 -24.568  0.00  0.00    +0.035 C 
ATOM     18  C   UNL     1      34.409 -14.419 -22.517  0.00  0.00    +0.035 C 
ATOM     19  C   UNL     1      33.663 -15.405 -24.950  0.00  0.00    +0.100 C 
ATOM     20  C   UNL     1      34.840 -15.648 -22.992  0.00  0.00    +0.100 C 
ENDBRANCH   9  16
ENDBRANCH   4  10
BRANCH   3  21
ATOM     21  S   UNL     1      31.350  -3.413 -23.802  0.00  0.00    +0.063 S 
ATOM     22  O   UNL     1      32.187  -2.536 -23.014  0.00  0.00    -0.153 OA
ATOM     23  O   UNL     1      30.058  -2.975 -24.287  0.00  0.00    -0.153 OA
BRANCH  21  25
ATOM     24 CL   UNL     1      36.559  -6.656 -29.635  0.00  0.00    -0.082 Cl
ATOM     25  C   UNL     1      32.294  -3.961 -25.188  0.00  0.00    +0.122 C 
ATOM     26  C   UNL     1      33.376  -4.801 -24.982  0.00  0.00    +0.020 C 
ATOM     27  C   UNL     1      31.937  -3.543 -26.457  0.00  0.00    +0.020 C 
ATOM     28  C   UNL     1      34.138  -5.246 -26.075  0.00  0.00    +0.001 C 
ATOM     29  C   UNL     1      33.785  -4.828 -27.380  0.00  0.00    +0.001 C 
ATOM     30  C   UNL     1      32.683  -3.976 -27.554  0.00  0.00    +0.001 C 
ATOM     31  C   UNL     1      35.240  -6.098 -25.901  0.00  0.00    +0.001 C 
ATOM     32  C   UNL     1      34.546  -5.274 -28.474  0.00  0.00    +0.011 C 
ATOM     33  C   UNL     1      35.986  -6.531 -26.999  0.00  0.00    +0.011 C 
ATOM     34  C   UNL     1      35.639  -6.119 -28.283  0.00  0.00    +0.058 C 
ENDBRANCH  21  25
ENDBRANCH   3  21
TORSDOF 4
ENDMDL
MODEL 7
REMARK VINA RESULT:     -11.1      4.982      8.483
REMARK  Name = 446399
REMARK  4 active torsions:
REMARK  status: ('A' for Active; 'I' for Inactive)
REMARK    1  A    between atoms: N_3  and  S_21
REMARK    2  A    between atoms: C_4  and  C_10
REMARK    3  A    between atoms: N_9  and  C_16
REMARK    4  A    between atoms: S_21  and  C_25
REMARK                            x       y       z     vdW  Elec       q    Type
REMARK                         _______ _______ _______ _____ _____    ______ ____
ROOT
ATOM      1  O   UNL     1      31.977 -21.648 -17.970  0.00  0.00    -0.275 OA
ATOM      2  N   UNL     1      33.799 -21.691 -19.410  0.00  0.00    -0.277 N 
ATOM      3  N   UNL     1      35.491 -20.114 -21.068  0.00  0.00    -0.152 NA
ATOM      4  C   UNL     1      33.082 -22.098 -18.287  0.00  0.00    +0.225 C 
ATOM      5  C   UNL     1      35.113 -22.205 -19.814  0.00  0.00    +0.113 C 
ATOM      6  C   UNL     1      33.217 -20.721 -20.339  0.00  0.00    +0.113 C 
ATOM      7  C   UNL     1      36.086 -21.057 -20.074  0.00  0.00    +0.117 C 
ATOM      8  C   UNL     1      34.182 -19.568 -20.596  0.00  0.00    +0.117 C 
ENDROOT
BRANCH   4  10
ATOM      9  N   UNL     1      34.723 -24.049 -14.867  0.00  0.00    -0.307 N 
ATOM     10  C   UNL     1      33.724 -23.153 -17.422  0.00  0.00    +0.080 C 
ATOM     11  C   UNL     1      32.778 -23.521 -16.282  0.00  0.00    +0.031 C 
ATOM     12  C   UNL     1      35.046 -22.637 -16.859  0.00  0.00    +0.031 C 
ATOM     13  C   UNL     1      33.416 -24.531 -15.329  0.00  0.00    +0.091 C 
ATOM     14  C   UNL     1      35.679 -23.653 -15.910  0.00  0.00    +0.091 C 
BRANCH   9  16
ATOM     15  N   UNL     1      36.308 -25.506 -11.236  0.00  0.00    -0.242 NA
ATOM     16  C   UNL     1      35.249 -24.533 -13.662  0.00  0.00    +0.051 C 
ATOM     17  C   UNL     1      34.709 -24.140 -12.428  0.00  0.00    +0.035 C 
ATOM     18  C   UNL     1      36.333 -25.425 -13.652  0.00  0.00    +0.035 C 
ATOM     19  C   UNL     1      35.266 -24.647 -11.264  0.00  0.00    +0.100 C 
ATOM     20  C   UNL     1      36.815 -25.875 -12.434  0.00  0.00    +0.100 C 
ENDBRANCH   9  16
ENDBRANCH   4  10
BRANCH   3  21
ATOM     21  S   UNL     1      36.573 -18.958 -21.721  0.00  0.00    +0.063 S 
ATOM     22  O   UNL     1      36.757 -19.226 -23.130  0.00  0.00    -0.153 OA
ATOM     23  O   UNL     1      37.707 -18.824 -20.832  0.00  0.00    -0.153 OA
BRANCH  21  25
ATOM     24 CL   UNL     1      31.839 -11.957 -22.233  0.00  0.00    -0.082 Cl
ATOM     25  C   UNL     1      35.591 -17.499 -21.572  0.00  0.00    +0.122 C 
ATOM     26  C   UNL     1      35.147 -16.861 -22.718  0.00  0.00    +0.020 C 
ATOM     27  C   UNL     1      35.280 -17.019 -20.313  0.00  0.00    +0.020 C 
ATOM     28  C   UNL     1      34.364 -15.698 -22.616  0.00  0.00    +0.001 C 
ATOM     29  C   UNL     1      34.037 -15.195 -21.335  0.00  0.00    +0.001 C 
ATOM     30  C   UNL     1      34.503 -15.866 -20.194  0.00  0.00    +0.001 C 
ATOM     31  C   UNL     1      33.898 -15.027 -23.758  0.00  0.00    +0.001 C 
ATOM     32  C   UNL     1      33.253 -14.033 -21.233  0.00  0.00    +0.011 C 
ATOM     33  C   UNL     1      33.121 -13.874 -23.638  0.00  0.00    +0.011 C 
ATOM     34  C   UNL     1      32.800 -13.378 -22.378  0.00  0.00    +0.058 C 
ENDBRANCH  21  25
ENDBRANCH   3  21
TORSDOF 4
ENDMDL
MODEL 8
REMARK VINA RESULT:     -10.9      2.867      4.862
REMARK  Name = 446399
REMARK  4 active torsions:
REMARK  status: ('A' for Active; 'I' for Inactive)
REMARK    1  A    between atoms: N_3  and  S_21
REMARK    2  A    between atoms: C_4  and  C_10
REMARK    3  A    between atoms: N_9  and  C_16
REMARK    4  A    between atoms: S_21  and  C_25
REMARK                            x       y       z     vdW  Elec       q    Type
REMARK                         _______ _______ _______ _____ _____    ______ ____
ROOT
ATOM      1  O   UNL     1      30.910 -12.064 -20.881  0.00  0.00    -0.275 OA
ATOM      2  N   UNL     1      31.899 -10.672 -22.455  0.00  0.00    -0.277 N 
ATOM      3  N   UNL     1      32.283  -7.968 -23.253  0.00  0.00    -0.152 NA
ATOM      4  C   UNL     1      31.850 -11.798 -21.635  0.00  0.00    +0.225 C 
ATOM      5  C   UNL     1      33.001 -10.326 -23.362  0.00  0.00    +0.113 C 
ATOM      6  C   UNL     1      30.759  -9.756 -22.510  0.00  0.00    +0.113 C 
ATOM      7  C   UNL     1      33.455  -8.887 -23.134  0.00  0.00    +0.117 C 
ATOM      8  C   UNL     1      31.207  -8.317 -22.277  0.00  0.00    +0.117 C 
ENDROOT
BRANCH   4  10
ATOM      9  N   UNL     1      34.151 -15.369 -22.015  0.00  0.00    -0.307 N 
ATOM     10  C   UNL     1      33.036 -12.727 -21.692  0.00  0.00    +0.080 C 
ATOM     11  C   UNL     1      33.081 -13.411 -23.056  0.00  0.00    +0.031 C 
ATOM     12  C   UNL     1      32.937 -13.774 -20.586  0.00  0.00    +0.031 C 
ATOM     13  C   UNL     1      34.220 -14.426 -23.137  0.00  0.00    +0.091 C 
ATOM     14  C   UNL     1      34.081 -14.781 -20.670  0.00  0.00    +0.091 C 
BRANCH   9  16
ATOM     15  N   UNL     1      35.960 -19.166 -22.382  0.00  0.00    -0.242 NA
ATOM     16  C   UNL     1      34.751 -16.629 -22.137  0.00  0.00    +0.051 C 
ATOM     17  C   UNL     1      34.754 -17.314 -23.362  0.00  0.00    +0.035 C 
ATOM     18  C   UNL     1      35.368 -17.245 -21.037  0.00  0.00    +0.035 C 
ATOM     19  C   UNL     1      35.361 -18.558 -23.430  0.00  0.00    +0.100 C 
ATOM     20  C   UNL     1      35.948 -18.492 -21.210  0.00  0.00    +0.100 C 
ENDBRANCH   9  16
ENDBRANCH   4  10
BRANCH   3  21
ATOM     21  S   UNL     1      32.665  -6.302 -23.357  0.00  0.00    +0.063 S 
ATOM     22  O   UNL     1      33.570  -5.957 -22.283  0.00  0.00    -0.153 OA
ATOM     23  O   UNL     1      31.445  -5.555 -23.575  0.00  0.00    -0.153 OA
BRANCH  21  25
ATOM     24 CL   UNL     1      37.853  -5.499 -30.000  0.00  0.00    -0.082 Cl
ATOM     25  C   UNL     1      33.584  -6.291 -24.864  0.00  0.00    +0.122 C 
ATOM     26  C   UNL     1      34.747  -5.543 -24.943  0.00  0.00    +0.020 C 
ATOM     27  C   UNL     1      33.129  -7.031 -25.939  0.00  0.00    +0.020 C 
ATOM     28  C   UNL     1      35.491  -5.524 -26.135  0.00  0.00    +0.001 C 
ATOM     29  C   UNL     1      35.038  -6.276 -27.245  0.00  0.00    +0.001 C 
ATOM     30  C   UNL     1      33.855  -7.023 -27.131  0.00  0.00    +0.001 C 
ATOM     31  C   UNL     1      36.674  -4.776 -26.248  0.00  0.00    +0.001 C 
ATOM     32  C   UNL     1      35.782  -6.258 -28.436  0.00  0.00    +0.011 C 
ATOM     33  C   UNL     1      37.400  -4.769 -27.440  0.00  0.00    +0.011 C 
ATOM     34  C   UNL     1      36.954  -5.508 -28.532  0.00  0.00    +0.058 C 
ENDBRANCH  21  25
ENDBRANCH   3  21
TORSDOF 4
ENDMDL
MODEL 9
REMARK VINA RESULT:     -10.6      4.163     11.424
REMARK  Name = 446399
REMARK  4 active torsions:
REMARK  status: ('A' for Active; 'I' for Inactive)
REMARK    1  A    between atoms: N_3  and  S_21
REMARK    2  A    between atoms: C_4  and  C_10
REMARK    3  A    between atoms: N_9  and  C_16
REMARK    4  A    between atoms: S_21  and  C_25
REMARK                            x       y       z     vdW  Elec       q    Type
REMARK                         _______ _______ _______ _____ _____    ______ ____
ROOT
ATOM      1  O   UNL     1      30.867 -11.540 -21.266  0.00  0.00    -0.275 OA
ATOM      2  N   UNL     1      32.825 -12.346 -22.221  0.00  0.00    -0.277 N 
ATOM      3  N   UNL     1      33.965 -14.442 -23.771  0.00  0.00    -0.152 NA
ATOM      4  C   UNL     1      31.944 -11.338 -21.834  0.00  0.00    +0.225 C 
ATOM      5  C   UNL     1      34.112 -12.141 -22.897  0.00  0.00    +0.113 C 
ATOM      6  C   UNL     1      32.529 -13.742 -21.896  0.00  0.00    +0.113 C 
ATOM      7  C   UNL     1      34.214 -13.017 -24.142  0.00  0.00    +0.117 C 
ATOM      8  C   UNL     1      32.623 -14.621 -23.137  0.00  0.00    +0.117 C 
ENDROOT
BRANCH   4  10
ATOM      9  N   UNL     1      31.723  -7.129 -22.492  0.00  0.00    -0.307 N 
ATOM     10  C   UNL     1      32.360  -9.922 -22.145  0.00  0.00    +0.080 C 
ATOM     11  C   UNL     1      32.041  -9.025 -20.952  0.00  0.00    +0.031 C 
ATOM     12  C   UNL     1      31.629  -9.421 -23.387  0.00  0.00    +0.031 C 
ATOM     13  C   UNL     1      32.370  -7.562 -21.248  0.00  0.00    +0.091 C 
ATOM     14  C   UNL     1      31.966  -7.961 -23.679  0.00  0.00    +0.091 C 
BRANCH   9  16
ATOM     15  N   UNL     1      30.970  -3.023 -23.119  0.00  0.00    -0.242 NA
ATOM     16  C   UNL     1      31.474  -5.767 -22.700  0.00  0.00    +0.051 C 
ATOM     17  C   UNL     1      31.411  -4.869 -21.623  0.00  0.00    +0.035 C 
ATOM     18  C   UNL     1      31.277  -5.257 -23.993  0.00  0.00    +0.035 C 
ATOM     19  C   UNL     1      31.162  -3.531 -21.882  0.00  0.00    +0.100 C 
ATOM     20  C   UNL     1      31.034  -3.901 -24.146  0.00  0.00    +0.100 C 
ENDBRANCH   9  16
ENDBRANCH   4  10
BRANCH   3  21
ATOM     21  S   UNL     1      34.366 -15.594 -24.973  0.00  0.00    +0.063 S 
ATOM     22  O   UNL     1      35.674 -15.284 -25.507  0.00  0.00    -0.153 OA
ATOM     23  O   UNL     1      33.227 -15.775 -25.847  0.00  0.00    -0.153 OA
BRANCH  21  25
ATOM     24 CL   UNL     1      35.924 -21.891 -19.531  0.00  0.00    -0.082 Cl
ATOM     25  C   UNL     1      34.519 -17.041 -23.974  0.00  0.00    +0.122 C 
ATOM     26  C   UNL     1      35.400 -17.036 -22.905  0.00  0.00    +0.020 C 
ATOM     27  C   UNL     1      33.756 -18.154 -24.274  0.00  0.00    +0.020 C 
ATOM     28  C   UNL     1      35.534 -18.179 -22.099  0.00  0.00    +0.001 C 
ATOM     29  C   UNL     1      34.760 -19.327 -22.394  0.00  0.00    +0.001 C 
ATOM     30  C   UNL     1      33.876 -19.298 -23.484  0.00  0.00    +0.001 C 
ATOM     31  C   UNL     1      36.417 -18.207 -21.008  0.00  0.00    +0.001 C 
ATOM     32  C   UNL     1      34.892 -20.470 -21.588  0.00  0.00    +0.011 C 
ATOM     33  C   UNL     1      36.537 -19.352 -20.219  0.00  0.00    +0.011 C 
ATOM     34  C   UNL     1      35.776 -20.481 -20.509  0.00  0.00    +0.058 C 
ENDBRANCH  21  25
ENDBRANCH   3  21
TORSDOF 4
ENDMDL
