MODEL 1
REMARK VINA RESULT:     -11.2      0.000      0.000
REMARK  Name = 5287459
REMARK  5 active torsions:
REMARK  status: ('A' for Active; 'I' for Inactive)
REMARK    1  A    between atoms: C_1  and  C_7
REMARK    2  A    between atoms: C_4  and  C_21
REMARK    3  A    between atoms: C_5  and  C_25
REMARK    4  A    between atoms: C_8  and  C_13
REMARK    5  A    between atoms: C_25  and  O_26
REMARK                            x       y       z     vdW  Elec       q    Type
REMARK                         _______ _______ _______ _____ _____    ______ ____
ROOT
ATOM      1  C   UNL     1      37.174 -24.089 -14.767  0.00  0.00    +0.000 C 
ATOM      2  C   UNL     1      36.611 -24.038 -13.492  0.00  0.00    +0.005 C 
ATOM      3  C   UNL     1      38.355 -24.798 -14.980  0.00  0.00    +0.006 C 
ATOM      4  C   UNL     1      37.229 -24.699 -12.430  0.00  0.00    +0.053 C 
ATOM      5  C   UNL     1      38.974 -25.459 -13.919  0.00  0.00    +0.076 C 
ATOM      6  C   UNL     1      38.410 -25.408 -12.643  0.00  0.00    +0.011 C 
ENDROOT
BRANCH   1   7
ATOM      7  C   UNL     1      36.533 -23.404 -15.868  0.00  0.00    +0.000 C 
ATOM      8  C   UNL     1      35.296 -22.083 -17.992  0.00  0.00    +0.000 C 
ATOM      9  C   UNL     1      35.185 -23.636 -16.144  0.00  0.00    +0.000 C 
ATOM     10  C   UNL     1      37.262 -22.511 -16.653  0.00  0.00    +0.000 C 
ATOM     11  C   UNL     1      34.567 -22.976 -17.206  0.00  0.00    +0.000 C 
ATOM     12  C   UNL     1      36.643 -21.851 -17.716  0.00  0.00    +0.000 C 
BRANCH   8  13
ATOM     13  C   UNL     1      34.655 -21.399 -19.094  0.00  0.00    +0.000 C 
ATOM     14  C   UNL     1      33.265 -21.388 -19.196  0.00  0.00    +0.000 C 
ATOM     15  C   UNL     1      35.430 -20.749 -20.054  0.00  0.00    +0.000 C 
ATOM     16  C   UNL     1      32.648 -20.727 -20.258  0.00  0.00    +0.000 C 
ATOM     17  C   UNL     1      34.814 -20.089 -21.118  0.00  0.00    +0.000 C 
ATOM     18  C   UNL     1      33.423 -20.077 -21.220  0.00  0.00    +0.000 C 
ENDBRANCH   8  13
ENDBRANCH   1   7
BRANCH   4  21
ATOM     19  O   UNL     1      35.902 -25.555 -10.682  0.00  0.00    -0.270 OA
ATOM     20  N   UNL     1      36.950 -23.551 -10.299  0.00  0.00    -0.325 N 
ATOM     21  C   UNL     1      36.643 -24.646 -11.100  0.00  0.00    +0.243 C 
ATOM     22  H   UNL     1      36.570 -23.481  -9.393  0.00  0.00    +0.145 HD
ATOM     23  H   UNL     1      37.547 -22.845 -10.638  0.00  0.00    +0.145 HD
ENDBRANCH   4  21
BRANCH   5  25
ATOM     24  O   UNL     1      40.895 -26.724 -13.261  0.00  0.00    -0.245 OA
ATOM     25  C   UNL     1      40.206 -26.198 -14.141  0.00  0.00    +0.338 C 
BRANCH  25  26
ATOM     26  O   UNL     1      40.543 -26.262 -15.459  0.00  0.00    -0.477 OA
ATOM     27  H   UNL     1      39.926 -26.002 -16.114  0.00  0.00    +0.295 HD
ENDBRANCH  25  26
ENDBRANCH   5  25
TORSDOF 5
ENDMDL
MODEL 2
REMARK VINA RESULT:     -11.0      1.364      3.102
REMARK  Name = 5287459
REMARK  5 active torsions:
REMARK  status: ('A' for Active; 'I' for Inactive)
REMARK    1  A    between atoms: C_1  and  C_7
REMARK    2  A    between atoms: C_4  and  C_21
REMARK    3  A    between atoms: C_5  and  C_25
REMARK    4  A    between atoms: C_8  and  C_13
REMARK    5  A    between atoms: C_25  and  O_26
REMARK                            x       y       z     vdW  Elec       q    Type
REMARK                         _______ _______ _______ _____ _____    ______ ____
ROOT
ATOM      1  C   UNL     1      36.999 -23.907 -14.735  0.00  0.00    +0.000 C 
ATOM      2  C   UNL     1      38.282 -24.442 -14.838  0.00  0.00    +0.005 C 
ATOM      3  C   UNL     1      36.297 -24.006 -13.534  0.00  0.00    +0.006 C 
ATOM      4  C   UNL     1      38.865 -25.075 -13.739  0.00  0.00    +0.053 C 
ATOM      5  C   UNL     1      36.878 -24.639 -12.435  0.00  0.00    +0.076 C 
ATOM      6  C   UNL     1      38.162 -25.174 -12.539  0.00  0.00    +0.011 C 
ENDROOT
BRANCH   1   7
ATOM      7  C   UNL     1      36.395 -23.251 -15.874  0.00  0.00    +0.000 C 
ATOM      8  C   UNL     1      35.229 -21.986 -18.071  0.00  0.00    +0.000 C 
ATOM      9  C   UNL     1      35.053 -23.478 -16.179  0.00  0.00    +0.000 C 
ATOM     10  C   UNL     1      37.154 -22.391 -16.667  0.00  0.00    +0.000 C 
ATOM     11  C   UNL     1      34.470 -22.847 -17.278  0.00  0.00    +0.000 C 
ATOM     12  C   UNL     1      36.572 -21.759 -17.766  0.00  0.00    +0.000 C 
BRANCH   8  13
ATOM     13  C   UNL     1      34.626 -21.331 -19.211  0.00  0.00    +0.000 C 
ATOM     14  C   UNL     1      33.239 -21.311 -19.352  0.00  0.00    +0.000 C 
ATOM     15  C   UNL     1      35.433 -20.719 -20.169  0.00  0.00    +0.000 C 
ATOM     16  C   UNL     1      32.658 -20.679 -20.451  0.00  0.00    +0.000 C 
ATOM     17  C   UNL     1      34.852 -20.086 -21.269  0.00  0.00    +0.000 C 
ATOM     18  C   UNL     1      33.465 -20.066 -21.410  0.00  0.00    +0.000 C 
ENDBRANCH   8  13
ENDBRANCH   1   7
BRANCH   4  21
ATOM     19  O   UNL     1      41.166 -24.940 -14.224  0.00  0.00    -0.270 OA
ATOM     20  N   UNL     1      40.380 -26.968 -13.497  0.00  0.00    -0.325 N 
ATOM     21  C   UNL     1      40.203 -25.633 -13.847  0.00  0.00    +0.243 C 
ATOM     22  H   UNL     1      41.272 -27.380 -13.558  0.00  0.00    +0.145 HD
ATOM     23  H   UNL     1      39.611 -27.501 -13.188  0.00  0.00    +0.145 HD
ENDBRANCH   4  21
BRANCH   5  25
ATOM     24  O   UNL     1      36.534 -24.321 -10.089  0.00  0.00    -0.245 OA
ATOM     25  C   UNL     1      36.145 -24.742 -11.183  0.00  0.00    +0.338 C 
BRANCH  25  26
ATOM     26  O   UNL     1      34.945 -25.368 -11.333  0.00  0.00    -0.477 OA
ATOM     27  H   UNL     1      34.204 -24.891 -11.651  0.00  0.00    +0.295 HD
ENDBRANCH  25  26
ENDBRANCH   5  25
TORSDOF 5
ENDMDL
MODEL 3
REMARK VINA RESULT:     -10.9      3.192      5.658
REMARK  Name = 5287459
REMARK  5 active torsions:
REMARK  status: ('A' for Active; 'I' for Inactive)
REMARK    1  A    between atoms: C_1  and  C_7
REMARK    2  A    between atoms: C_4  and  C_21
REMARK    3  A    between atoms: C_5  and  C_25
REMARK    4  A    between atoms: C_8  and  C_13
REMARK    5  A    between atoms: C_25  and  O_26
REMARK                            x       y       z     vdW  Elec       q    Type
REMARK                         _______ _______ _______ _____ _____    ______ ____
ROOT
ATOM      1  C   UNL     1      33.619 -22.787 -17.409  0.00  0.00    +0.000 C 
ATOM      2  C   UNL     1      34.708 -23.335 -16.732  0.00  0.00    +0.005 C 
ATOM      3  C   UNL     1      32.321 -23.071 -16.988  0.00  0.00    +0.006 C 
ATOM      4  C   UNL     1      34.498 -24.166 -15.631  0.00  0.00    +0.053 C 
ATOM      5  C   UNL     1      32.110 -23.902 -15.888  0.00  0.00    +0.076 C 
ATOM      6  C   UNL     1      33.199 -24.449 -15.209  0.00  0.00    +0.011 C 
ENDROOT
BRANCH   1   7
ATOM      7  C   UNL     1      33.837 -21.926 -18.551  0.00  0.00    +0.000 C 
ATOM      8  C   UNL     1      34.258 -20.265 -20.753  0.00  0.00    +0.000 C 
ATOM      9  C   UNL     1      35.134 -21.683 -19.004  0.00  0.00    +0.000 C 
ATOM     10  C   UNL     1      32.751 -21.338 -19.199  0.00  0.00    +0.000 C 
ATOM     11  C   UNL     1      35.345 -20.852 -20.105  0.00  0.00    +0.000 C 
ATOM     12  C   UNL     1      32.961 -20.507 -20.300  0.00  0.00    +0.000 C 
BRANCH   8  13
ATOM     13  C   UNL     1      34.476 -19.402 -21.894  0.00  0.00    +0.000 C 
ATOM     14  C   UNL     1      33.972 -19.758 -23.144  0.00  0.00    +0.000 C 
ATOM     15  C   UNL     1      35.190 -18.214 -21.742  0.00  0.00    +0.000 C 
ATOM     16  C   UNL     1      34.181 -18.926 -24.244  0.00  0.00    +0.000 C 
ATOM     17  C   UNL     1      35.400 -17.381 -22.842  0.00  0.00    +0.000 C 
ATOM     18  C   UNL     1      34.896 -17.736 -24.093  0.00  0.00    +0.000 C 
ENDBRANCH   8  13
ENDBRANCH   1   7
BRANCH   4  21
ATOM     19  O   UNL     1      36.801 -24.412 -15.204  0.00  0.00    -0.270 OA
ATOM     20  N   UNL     1      35.372 -25.651 -13.907  0.00  0.00    -0.325 N 
ATOM     21  C   UNL     1      35.633 -24.737 -14.924  0.00  0.00    +0.243 C 
ATOM     22  H   UNL     1      36.115 -26.059 -13.408  0.00  0.00    +0.145 HD
ATOM     23  H   UNL     1      34.442 -25.889 -13.688  0.00  0.00    +0.145 HD
ENDBRANCH   4  21
BRANCH   5  25
ATOM     24  O   UNL     1      30.439 -25.090 -14.654  0.00  0.00    -0.245 OA
ATOM     25  C   UNL     1      30.756 -24.198 -15.448  0.00  0.00    +0.338 C 
BRANCH  25  26
ATOM     26  O   UNL     1      29.833 -23.370 -16.012  0.00  0.00    -0.477 OA
ATOM     27  H   UNL     1      29.458 -23.583 -16.844  0.00  0.00    +0.295 HD
ENDBRANCH  25  26
ENDBRANCH   5  25
TORSDOF 5
ENDMDL
MODEL 4
REMARK VINA RESULT:     -10.9      3.177      5.004
REMARK  Name = 5287459
REMARK  5 active torsions:
REMARK  status: ('A' for Active; 'I' for Inactive)
REMARK    1  A    between atoms: C_1  and  C_7
REMARK    2  A    between atoms: C_4  and  C_21
REMARK    3  A    between atoms: C_5  and  C_25
REMARK    4  A    between atoms: C_8  and  C_13
REMARK    5  A    between atoms: C_25  and  O_26
REMARK                            x       y       z     vdW  Elec       q    Type
REMARK                         _______ _______ _______ _____ _____    ______ ____
ROOT
ATOM      1  C   UNL     1      33.660 -22.804 -17.347  0.00  0.00    +0.000 C 
ATOM      2  C   UNL     1      32.364 -23.110 -16.933  0.00  0.00    +0.005 C 
ATOM      3  C   UNL     1      34.754 -23.317 -16.653  0.00  0.00    +0.006 C 
ATOM      4  C   UNL     1      32.163 -23.932 -15.824  0.00  0.00    +0.053 C 
ATOM      5  C   UNL     1      34.554 -24.138 -15.543  0.00  0.00    +0.076 C 
ATOM      6  C   UNL     1      33.257 -24.445 -15.129  0.00  0.00    +0.011 C 
ENDROOT
BRANCH   1   7
ATOM      7  C   UNL     1      33.869 -21.951 -18.498  0.00  0.00    +0.000 C 
ATOM      8  C   UNL     1      34.273 -20.307 -20.716  0.00  0.00    +0.000 C 
ATOM      9  C   UNL     1      35.162 -21.712 -18.963  0.00  0.00    +0.000 C 
ATOM     10  C   UNL     1      32.777 -21.369 -19.142  0.00  0.00    +0.000 C 
ATOM     11  C   UNL     1      35.364 -20.890 -20.072  0.00  0.00    +0.000 C 
ATOM     12  C   UNL     1      32.979 -20.546 -20.250  0.00  0.00    +0.000 C 
BRANCH   8  13
ATOM     13  C   UNL     1      34.481 -19.454 -21.865  0.00  0.00    +0.000 C 
ATOM     14  C   UNL     1      33.933 -19.799 -23.100  0.00  0.00    +0.000 C 
ATOM     15  C   UNL     1      35.231 -18.285 -21.737  0.00  0.00    +0.000 C 
ATOM     16  C   UNL     1      34.134 -18.975 -24.208  0.00  0.00    +0.000 C 
ATOM     17  C   UNL     1      35.432 -17.461 -22.845  0.00  0.00    +0.000 C 
ATOM     18  C   UNL     1      34.884 -17.806 -24.080  0.00  0.00    +0.000 C 
ENDBRANCH   8  13
ENDBRANCH   1   7
BRANCH   4  21
ATOM     19  O   UNL     1      30.594 -25.144 -14.551  0.00  0.00    -0.270 OA
ATOM     20  N   UNL     1      29.765 -23.515 -15.936  0.00  0.00    -0.325 N 
ATOM     21  C   UNL     1      30.812 -24.252 -15.392  0.00  0.00    +0.243 C 
ATOM     22  H   UNL     1      28.836 -23.704 -15.668  0.00  0.00    +0.145 HD
ATOM     23  H   UNL     1      29.952 -22.803 -16.591  0.00  0.00    +0.145 HD
ENDBRANCH   4  21
BRANCH   5  25
ATOM     24  O   UNL     1      35.638 -25.311 -13.762  0.00  0.00    -0.245 OA
ATOM     25  C   UNL     1      35.695 -24.673 -14.818  0.00  0.00    +0.338 C 
BRANCH  25  26
ATOM     26  O   UNL     1      36.878 -24.398 -15.434  0.00  0.00    -0.477 OA
ATOM     27  H   UNL     1      37.018 -24.664 -16.321  0.00  0.00    +0.295 HD
ENDBRANCH  25  26
ENDBRANCH   5  25
TORSDOF 5
ENDMDL
MODEL 5
REMARK VINA RESULT:     -10.8      2.472      3.767
REMARK  Name = 5287459
REMARK  5 active torsions:
REMARK  status: ('A' for Active; 'I' for Inactive)
REMARK    1  A    between atoms: C_1  and  C_7
REMARK    2  A    between atoms: C_4  and  C_21
REMARK    3  A    between atoms: C_5  and  C_25
REMARK    4  A    between atoms: C_8  and  C_13
REMARK    5  A    between atoms: C_25  and  O_26
REMARK                            x       y       z     vdW  Elec       q    Type
REMARK                         _______ _______ _______ _____ _____    ______ ____
ROOT
ATOM      1  C   UNL     1      35.270 -22.729 -16.967  0.00  0.00    +0.000 C 
ATOM      2  C   UNL     1      34.110 -23.234 -16.381  0.00  0.00    +0.005 C 
ATOM      3  C   UNL     1      36.514 -23.000 -16.398  0.00  0.00    +0.006 C 
ATOM      4  C   UNL     1      34.194 -24.011 -15.225  0.00  0.00    +0.053 C 
ATOM      5  C   UNL     1      36.598 -23.776 -15.242  0.00  0.00    +0.076 C 
ATOM      6  C   UNL     1      35.438 -24.282 -14.656  0.00  0.00    +0.011 C 
ENDROOT
BRANCH   1   7
ATOM      7  C   UNL     1      35.183 -21.923 -18.166  0.00  0.00    +0.000 C 
ATOM      8  C   UNL     1      35.014 -20.369 -20.477  0.00  0.00    +0.000 C 
ATOM      9  C   UNL     1      33.945 -21.708 -18.773  0.00  0.00    +0.000 C 
ATOM     10  C   UNL     1      36.336 -21.361 -18.714  0.00  0.00    +0.000 C 
ATOM     11  C   UNL     1      33.861 -20.931 -19.929  0.00  0.00    +0.000 C 
ATOM     12  C   UNL     1      36.251 -20.584 -19.869  0.00  0.00    +0.000 C 
BRANCH   8  13
ATOM     13  C   UNL     1      34.927 -19.564 -21.676  0.00  0.00    +0.000 C 
ATOM     14  C   UNL     1      35.294 -18.219 -21.641  0.00  0.00    +0.000 C 
ATOM     15  C   UNL     1      34.477 -20.134 -22.866  0.00  0.00    +0.000 C 
ATOM     16  C   UNL     1      35.211 -17.444 -22.798  0.00  0.00    +0.000 C 
ATOM     17  C   UNL     1      34.394 -19.359 -24.023  0.00  0.00    +0.000 C 
ATOM     18  C   UNL     1      34.760 -18.014 -23.990  0.00  0.00    +0.000 C 
ENDBRANCH   8  13
ENDBRANCH   1   7
BRANCH   4  21
ATOM     19  O   UNL     1      31.858 -24.263 -15.066  0.00  0.00    -0.270 OA
ATOM     20  N   UNL     1      33.126 -25.375 -13.511  0.00  0.00    -0.325 N 
ATOM     21  C   UNL     1      32.984 -24.537 -14.613  0.00  0.00    +0.243 C 
ATOM     22  H   UNL     1      32.329 -25.749 -13.071  0.00  0.00    +0.145 HD
ATOM     23  H   UNL     1      34.024 -25.594 -13.172  0.00  0.00    +0.145 HD
ENDBRANCH   4  21
BRANCH   5  25
ATOM     24  O   UNL     1      38.092 -24.363 -13.468  0.00  0.00    -0.245 OA
ATOM     25  C   UNL     1      37.896 -24.058 -14.649  0.00  0.00    +0.338 C 
BRANCH  25  26
ATOM     26  O   UNL     1      38.913 -23.954 -15.548  0.00  0.00    -0.477 OA
ATOM     27  H   UNL     1      38.731 -23.982 -16.466  0.00  0.00    +0.295 HD
ENDBRANCH  25  26
ENDBRANCH   5  25
TORSDOF 5
ENDMDL
MODEL 6
REMARK VINA RESULT:     -10.7      2.418      4.481
REMARK  Name = 5287459
REMARK  5 active torsions:
REMARK  status: ('A' for Active; 'I' for Inactive)
REMARK    1  A    between atoms: C_1  and  C_7
REMARK    2  A    between atoms: C_4  and  C_21
REMARK    3  A    between atoms: C_5  and  C_25
REMARK    4  A    between atoms: C_8  and  C_13
REMARK    5  A    between atoms: C_25  and  O_26
REMARK                            x       y       z     vdW  Elec       q    Type
REMARK                         _______ _______ _______ _____ _____    ______ ____
ROOT
ATOM      1  C   UNL     1      34.856 -23.532 -16.020  0.00  0.00    +0.000 C 
ATOM      2  C   UNL     1      35.975 -24.125 -15.437  0.00  0.00    +0.005 C 
ATOM      3  C   UNL     1      33.591 -23.739 -15.471  0.00  0.00    +0.006 C 
ATOM      4  C   UNL     1      35.830 -24.923 -14.303  0.00  0.00    +0.053 C 
ATOM      5  C   UNL     1      33.445 -24.538 -14.336  0.00  0.00    +0.076 C 
ATOM      6  C   UNL     1      34.566 -25.130 -13.753  0.00  0.00    +0.011 C 
ENDROOT
BRANCH   1   7
ATOM      7  C   UNL     1      35.006 -22.704 -17.197  0.00  0.00    +0.000 C 
ATOM      8  C   UNL     1      35.297 -21.107 -19.466  0.00  0.00    +0.000 C 
ATOM      9  C   UNL     1      36.238 -22.115 -17.483  0.00  0.00    +0.000 C 
ATOM     10  C   UNL     1      33.919 -22.495 -18.046  0.00  0.00    +0.000 C 
ATOM     11  C   UNL     1      36.383 -21.316 -18.617  0.00  0.00    +0.000 C 
ATOM     12  C   UNL     1      34.065 -21.696 -19.181  0.00  0.00    +0.000 C 
BRANCH   8  13
ATOM     13  C   UNL     1      35.446 -20.277 -20.642  0.00  0.00    +0.000 C 
ATOM     14  C   UNL     1      36.614 -19.539 -20.832  0.00  0.00    +0.000 C 
ATOM     15  C   UNL     1      34.422 -20.217 -21.586  0.00  0.00    +0.000 C 
ATOM     16  C   UNL     1      36.758 -18.741 -21.967  0.00  0.00    +0.000 C 
ATOM     17  C   UNL     1      34.565 -19.418 -22.721  0.00  0.00    +0.000 C 
ATOM     18  C   UNL     1      35.733 -18.680 -22.912  0.00  0.00    +0.000 C 
ENDBRANCH   8  13
ENDBRANCH   1   7
BRANCH   4  21
ATOM     19  O   UNL     1      38.151 -25.194 -14.006  0.00  0.00    -0.270 OA
ATOM     20  N   UNL     1      36.785 -26.527 -12.735  0.00  0.00    -0.325 N 
ATOM     21  C   UNL     1      36.998 -25.541 -13.694  0.00  0.00    +0.243 C 
ATOM     22  H   UNL     1      37.551 -26.968 -12.303  0.00  0.00    +0.145 HD
ATOM     23  H   UNL     1      35.866 -26.783 -12.489  0.00  0.00    +0.145 HD
ENDBRANCH   4  21
BRANCH   5  25
ATOM     24  O   UNL     1      31.074 -24.258 -14.179  0.00  0.00    -0.245 OA
ATOM     25  C   UNL     1      32.126 -24.754 -13.763  0.00  0.00    +0.338 C 
BRANCH  25  26
ATOM     26  O   UNL     1      32.158 -25.586 -12.685  0.00  0.00    -0.477 OA
ATOM     27  H   UNL     1      31.907 -26.483 -12.778  0.00  0.00    +0.295 HD
ENDBRANCH  25  26
ENDBRANCH   5  25
TORSDOF 5
ENDMDL
MODEL 7
REMARK VINA RESULT:      -9.5     12.273     15.978
REMARK  Name = 5287459
REMARK  5 active torsions:
REMARK  status: ('A' for Active; 'I' for Inactive)
REMARK    1  A    between atoms: C_1  and  C_7
REMARK    2  A    between atoms: C_4  and  C_21
REMARK    3  A    between atoms: C_5  and  C_25
REMARK    4  A    between atoms: C_8  and  C_13
REMARK    5  A    between atoms: C_25  and  O_26
REMARK                            x       y       z     vdW  Elec       q    Type
REMARK                         _______ _______ _______ _____ _____    ______ ____
ROOT
ATOM      1  C   UNL     1      32.876 -11.728 -22.982  0.00  0.00    +0.000 C 
ATOM      2  C   UNL     1      32.954 -12.437 -21.784  0.00  0.00    +0.005 C 
ATOM      3  C   UNL     1      33.040 -12.392 -24.197  0.00  0.00    +0.006 C 
ATOM      4  C   UNL     1      33.194 -13.811 -21.801  0.00  0.00    +0.053 C 
ATOM      5  C   UNL     1      33.281 -13.766 -24.215  0.00  0.00    +0.076 C 
ATOM      6  C   UNL     1      33.358 -14.475 -23.016  0.00  0.00    +0.011 C 
ENDROOT
BRANCH   1   7
ATOM      7  C   UNL     1      32.627 -10.303 -22.964  0.00  0.00    +0.000 C 
ATOM      8  C   UNL     1      32.148  -7.555 -22.930  0.00  0.00    +0.000 C 
ATOM      9  C   UNL     1      33.652  -9.412 -23.281  0.00  0.00    +0.000 C 
ATOM     10  C   UNL     1      31.361  -9.820 -22.631  0.00  0.00    +0.000 C 
ATOM     11  C   UNL     1      33.413  -8.038 -23.263  0.00  0.00    +0.000 C 
ATOM     12  C   UNL     1      31.122  -8.446 -22.613  0.00  0.00    +0.000 C 
BRANCH   8  13
ATOM     13  C   UNL     1      31.898  -6.129 -22.911  0.00  0.00    +0.000 C 
ATOM     14  C   UNL     1      31.569  -5.463 -24.090  0.00  0.00    +0.000 C 
ATOM     15  C   UNL     1      31.987  -5.423 -21.711  0.00  0.00    +0.000 C 
ATOM     16  C   UNL     1      31.328  -4.089 -24.071  0.00  0.00    +0.000 C 
ATOM     17  C   UNL     1      31.747  -4.049 -21.691  0.00  0.00    +0.000 C 
ATOM     18  C   UNL     1      31.417  -3.381 -22.871  0.00  0.00    +0.000 C 
ENDBRANCH   8  13
ENDBRANCH   1   7
BRANCH   4  21
ATOM     19  O   UNL     1      32.337 -14.549 -19.735  0.00  0.00    -0.270 OA
ATOM     20  N   UNL     1      34.436 -15.279 -20.302  0.00  0.00    -0.325 N 
ATOM     21  C   UNL     1      33.276 -14.551 -20.551  0.00  0.00    +0.243 C 
ATOM     22  H   UNL     1      34.527 -15.791 -19.466  0.00  0.00    +0.145 HD
ATOM     23  H   UNL     1      35.166 -15.281 -20.963  0.00  0.00    +0.145 HD
ENDBRANCH   4  21
BRANCH   5  25
ATOM     24  O   UNL     1      33.846 -13.942 -26.533  0.00  0.00    -0.245 OA
ATOM     25  C   UNL     1      33.452 -14.458 -25.482  0.00  0.00    +0.338 C 
BRANCH  25  26
ATOM     26  O   UNL     1      33.127 -15.778 -25.401  0.00  0.00    -0.477 OA
ATOM     27  H   UNL     1      32.828 -16.139 -24.590  0.00  0.00    +0.295 HD
ENDBRANCH  25  26
ENDBRANCH   5  25
TORSDOF 5
ENDMDL
MODEL 8
REMARK VINA RESULT:      -9.2     12.278     16.043
REMARK  Name = 5287459
REMARK  5 active torsions:
REMARK  status: ('A' for Active; 'I' for Inactive)
REMARK    1  A    between atoms: C_1  and  C_7
REMARK    2  A    between atoms: C_4  and  C_21
REMARK    3  A    between atoms: C_5  and  C_25
REMARK    4  A    between atoms: C_8  and  C_13
REMARK    5  A    between atoms: C_25  and  O_26
REMARK                            x       y       z     vdW  Elec       q    Type
REMARK                         _______ _______ _______ _____ _____    ______ ____
ROOT
ATOM      1  C   UNL     1      32.955 -11.829 -22.920  0.00  0.00    +0.000 C 
ATOM      2  C   UNL     1      33.074 -12.492 -24.141  0.00  0.00    +0.005 C 
ATOM      3  C   UNL     1      33.079 -12.539 -21.726  0.00  0.00    +0.006 C 
ATOM      4  C   UNL     1      33.320 -13.865 -24.169  0.00  0.00    +0.053 C 
ATOM      5  C   UNL     1      33.324 -13.912 -21.753  0.00  0.00    +0.076 C 
ATOM      6  C   UNL     1      33.444 -14.575 -22.975  0.00  0.00    +0.011 C 
ENDROOT
BRANCH   1   7
ATOM      7  C   UNL     1      32.701 -10.405 -22.891  0.00  0.00    +0.000 C 
ATOM      8  C   UNL     1      32.211  -7.659 -22.837  0.00  0.00    +0.000 C 
ATOM      9  C   UNL     1      33.708  -9.509 -23.250  0.00  0.00    +0.000 C 
ATOM     10  C   UNL     1      31.448  -9.928 -22.506  0.00  0.00    +0.000 C 
ATOM     11  C   UNL     1      33.464  -8.136 -23.222  0.00  0.00    +0.000 C 
ATOM     12  C   UNL     1      31.203  -8.555 -22.478  0.00  0.00    +0.000 C 
BRANCH   8  13
ATOM     13  C   UNL     1      31.957  -6.235 -22.807  0.00  0.00    +0.000 C 
ATOM     14  C   UNL     1      32.098  -5.525 -21.615  0.00  0.00    +0.000 C 
ATOM     15  C   UNL     1      31.570  -5.572 -23.971  0.00  0.00    +0.000 C 
ATOM     16  C   UNL     1      31.854  -4.152 -21.587  0.00  0.00    +0.000 C 
ATOM     17  C   UNL     1      31.324  -4.199 -23.944  0.00  0.00    +0.000 C 
ATOM     18  C   UNL     1      31.466  -3.489 -22.752  0.00  0.00    +0.000 C 
ENDBRANCH   8  13
ENDBRANCH   1   7
BRANCH   4  21
ATOM     19  O   UNL     1      33.532 -15.796 -25.500  0.00  0.00    -0.270 OA
ATOM     20  N   UNL     1      33.444 -13.785 -26.601  0.00  0.00    -0.325 N 
ATOM     21  C   UNL     1      33.444 -14.556 -25.442  0.00  0.00    +0.243 C 
ATOM     22  H   UNL     1      33.527 -14.219 -27.481  0.00  0.00    +0.145 HD
ATOM     23  H   UNL     1      33.361 -12.806 -26.541  0.00  0.00    +0.145 HD
ENDBRANCH   4  21
BRANCH   5  25
ATOM     24  O   UNL     1      34.437 -15.320 -20.170  0.00  0.00    -0.245 OA
ATOM     25  C   UNL     1      33.454 -14.653 -20.508  0.00  0.00    +0.338 C 
BRANCH  25  26
ATOM     26  O   UNL     1      32.351 -14.538 -19.718  0.00  0.00    -0.477 OA
ATOM     27  H   UNL     1      31.579 -14.122 -20.048  0.00  0.00    +0.295 HD
ENDBRANCH  25  26
ENDBRANCH   5  25
TORSDOF 5
ENDMDL
MODEL 9
REMARK VINA RESULT:      -8.6      8.321     11.844
REMARK  Name = 5287459
REMARK  5 active torsions:
REMARK  status: ('A' for Active; 'I' for Inactive)
REMARK    1  A    between atoms: C_1  and  C_7
REMARK    2  A    between atoms: C_4  and  C_21
REMARK    3  A    between atoms: C_5  and  C_25
REMARK    4  A    between atoms: C_8  and  C_13
REMARK    5  A    between atoms: C_25  and  O_26
REMARK                            x       y       z     vdW  Elec       q    Type
REMARK                         _______ _______ _______ _____ _____    ______ ____
ROOT
ATOM      1  C   UNL     1      34.679 -16.620 -22.877  0.00  0.00    +0.000 C 
ATOM      2  C   UNL     1      34.084 -17.537 -23.742  0.00  0.00    +0.005 C 
ATOM      3  C   UNL     1      35.673 -17.038 -21.994  0.00  0.00    +0.006 C 
ATOM      4  C   UNL     1      34.484 -18.873 -23.725  0.00  0.00    +0.053 C 
ATOM      5  C   UNL     1      36.074 -18.374 -21.975  0.00  0.00    +0.076 C 
ATOM      6  C   UNL     1      35.479 -19.292 -22.842  0.00  0.00    +0.011 C 
ENDROOT
BRANCH   1   7
ATOM      7  C   UNL     1      34.263 -15.234 -22.895  0.00  0.00    +0.000 C 
ATOM      8  C   UNL     1      33.462 -12.562 -22.930  0.00  0.00    +0.000 C 
ATOM      9  C   UNL     1      33.854 -14.644 -24.091  0.00  0.00    +0.000 C 
ATOM     10  C   UNL     1      34.270 -14.488 -21.716  0.00  0.00    +0.000 C 
ATOM     11  C   UNL     1      33.454 -13.307 -24.108  0.00  0.00    +0.000 C 
ATOM     12  C   UNL     1      33.870 -13.152 -21.733  0.00  0.00    +0.000 C 
BRANCH   8  13
ATOM     13  C   UNL     1      33.047 -11.176 -22.947  0.00  0.00    +0.000 C 
ATOM     14  C   UNL     1      31.771 -10.823 -22.511  0.00  0.00    +0.000 C 
ATOM     15  C   UNL     1      33.926 -10.192 -23.400  0.00  0.00    +0.000 C 
ATOM     16  C   UNL     1      31.372  -9.486 -22.527  0.00  0.00    +0.000 C 
ATOM     17  C   UNL     1      33.528  -8.855 -23.417  0.00  0.00    +0.000 C 
ATOM     18  C   UNL     1      32.251  -8.502 -22.981  0.00  0.00    +0.000 C 
ENDBRANCH   8  13
ENDBRANCH   1   7
BRANCH   4  21
ATOM     19  O   UNL     1      34.465 -20.854 -25.000  0.00  0.00    -0.270 OA
ATOM     20  N   UNL     1      32.563 -19.573 -25.051  0.00  0.00    -0.325 N 
ATOM     21  C   UNL     1      33.863 -19.830 -24.628  0.00  0.00    +0.243 C 
ATOM     22  H   UNL     1      32.111 -20.199 -25.663  0.00  0.00    +0.145 HD
ATOM     23  H   UNL     1      32.094 -18.765 -24.738  0.00  0.00    +0.145 HD
ENDBRANCH   4  21
BRANCH   5  25
ATOM     24  O   UNL     1      36.917 -19.285 -19.930  0.00  0.00    -0.245 OA
ATOM     25  C   UNL     1      37.111 -18.810 -21.054  0.00  0.00    +0.338 C 
BRANCH  25  26
ATOM     26  O   UNL     1      38.362 -18.643 -21.563  0.00  0.00    -0.477 OA
ATOM     27  H   UNL     1      38.946 -18.019 -21.178  0.00  0.00    +0.295 HD
ENDBRANCH  25  26
ENDBRANCH   5  25
TORSDOF 5
ENDMDL
