MODEL 1
REMARK VINA RESULT:     -11.0      0.000      0.000
REMARK  Name = 71242808
REMARK  7 active torsions:
REMARK  status: ('A' for Active; 'I' for Inactive)
REMARK    1  A    between atoms: N_1  and  C_6
REMARK    2  A    between atoms: C_2  and  N_17
REMARK    3  A    between atoms: C_11  and  C_12
REMARK    4  A    between atoms: C_12  and  C_14
REMARK    5  A    between atoms: C_14  and  O_15
REMARK    6  A    between atoms: N_17  and  C_20
REMARK    7  A    between atoms: C_20  and  C_22
REMARK                            x       y       z     vdW  Elec       q    Type
REMARK                         _______ _______ _______ _____ _____    ______ ____
ROOT
ATOM      1  N   UNL     1      33.163 -12.955 -22.331  0.00  0.00    -0.310 N 
ATOM      2  C   UNL     1      31.606 -11.198 -22.196  0.00  0.00    -0.040 C 
ATOM      3  C   UNL     1      32.656 -10.847 -23.244  0.00  0.00    +0.002 C 
ATOM      4  C   UNL     1      32.313 -12.268 -21.357  0.00  0.00    +0.070 C 
ATOM      5  C   UNL     1      33.258 -12.209 -23.585  0.00  0.00    +0.089 C 
ENDROOT
BRANCH   1   6
ATOM      6  C   UNL     1      33.799 -14.155 -22.094  0.00  0.00    +0.048 C 
ATOM      7  C   UNL     1      33.991 -14.596 -20.784  0.00  0.00    +0.014 C 
ATOM      8  C   UNL     1      34.249 -14.929 -23.163  0.00  0.00    +0.014 C 
ATOM      9  C   UNL     1      34.633 -15.810 -20.544  0.00  0.00    -0.002 C 
ATOM     10  C   UNL     1      34.892 -16.143 -22.923  0.00  0.00    -0.002 C 
ATOM     11  C   UNL     1      35.084 -16.583 -21.614  0.00  0.00    -0.011 C 
BRANCH  11  12
ATOM     12  C   UNL     1      35.772 -17.882 -21.358  0.00  0.00    +0.136 C 
BRANCH  12  14
ATOM     13  O   UNL     1      34.540 -19.495 -22.702  0.00  0.00    -0.250 OA
ATOM     14  C   UNL     1      34.891 -19.091 -21.603  0.00  0.00    +0.318 C 
BRANCH  14  15
ATOM     15  O   UNL     1      34.522 -19.693 -20.441  0.00  0.00    -0.480 OA
ATOM     16  H   UNL     1      35.085 -19.652 -19.693  0.00  0.00    +0.295 HD
ENDBRANCH  14  15
ENDBRANCH  12  14
ENDBRANCH  11  12
ENDBRANCH   1   6
BRANCH   2  17
ATOM     17  N   UNL     1      31.169 -10.057 -21.410  0.00  0.00    +0.390 N 
ATOM     18  H   UNL     1      30.714 -10.389 -20.560  0.00  0.00    -0.084 HD
ATOM     19  H   UNL     1      30.514  -9.504 -21.964  0.00  0.00    -0.084 HD
BRANCH  17  20
ATOM     20  C   UNL     1      32.320  -9.213 -21.048  0.00  0.00    -0.038 C 
ATOM     21  C   UNL     1      32.424  -9.141 -19.515  0.00  0.00    -0.019 C 
BRANCH  20  22
ATOM     22  C   UNL     1      32.246  -7.857 -21.678  0.00  0.00    -0.042 C 
ATOM     23  C   UNL     1      33.238  -7.387 -22.554  0.00  0.00    -0.006 C 
ATOM     24  C   UNL     1      31.143  -7.063 -21.362  0.00  0.00    -0.006 C 
ATOM     25  C   UNL     1      33.111  -6.095 -23.115  0.00  0.00    -0.000 C 
ATOM     26  C   UNL     1      34.354  -8.173 -22.884  0.00  0.00    -0.000 C 
ATOM     27  C   UNL     1      31.018  -5.792 -21.914  0.00  0.00    -0.000 C 
ATOM     28  C   UNL     1      31.994  -5.310 -22.786  0.00  0.00    -0.000 C 
ATOM     29  C   UNL     1      34.103  -5.626 -23.991  0.00  0.00    -0.000 C 
ATOM     30  C   UNL     1      35.332  -7.691 -23.755  0.00  0.00    -0.000 C 
ATOM     31  C   UNL     1      35.206  -6.420 -24.308  0.00  0.00    -0.000 C 
ENDBRANCH  20  22
ENDBRANCH  17  20
ENDBRANCH   2  17
TORSDOF 7
ENDMDL
MODEL 2
REMARK VINA RESULT:     -10.8      1.493      2.272
REMARK  Name = 71242808
REMARK  7 active torsions:
REMARK  status: ('A' for Active; 'I' for Inactive)
REMARK    1  A    between atoms: N_1  and  C_6
REMARK    2  A    between atoms: C_2  and  N_17
REMARK    3  A    between atoms: C_11  and  C_12
REMARK    4  A    between atoms: C_12  and  C_14
REMARK    5  A    between atoms: C_14  and  O_15
REMARK    6  A    between atoms: N_17  and  C_20
REMARK    7  A    between atoms: C_20  and  C_22
REMARK                            x       y       z     vdW  Elec       q    Type
REMARK                         _______ _______ _______ _____ _____    ______ ____
ROOT
ATOM      1  N   UNL     1      32.469 -12.311 -22.025  0.00  0.00    -0.310 N 
ATOM      2  C   UNL     1      32.099 -10.109 -21.287  0.00  0.00    -0.040 C 
ATOM      3  C   UNL     1      30.977 -10.999 -20.764  0.00  0.00    +0.002 C 
ATOM      4  C   UNL     1      32.658 -10.925 -22.457  0.00  0.00    +0.070 C 
ATOM      5  C   UNL     1      31.585 -12.397 -20.863  0.00  0.00    +0.089 C 
ENDROOT
BRANCH   1   6
ATOM      6  C   UNL     1      33.050 -13.400 -22.639  0.00  0.00    +0.048 C 
ATOM      7  C   UNL     1      32.779 -13.671 -23.980  0.00  0.00    +0.014 C 
ATOM      8  C   UNL     1      33.909 -14.231 -21.919  0.00  0.00    +0.014 C 
ATOM      9  C   UNL     1      33.367 -14.772 -24.602  0.00  0.00    -0.002 C 
ATOM     10  C   UNL     1      34.496 -15.332 -22.540  0.00  0.00    -0.002 C 
ATOM     11  C   UNL     1      34.225 -15.603 -23.882  0.00  0.00    -0.011 C 
BRANCH  11  12
ATOM     12  C   UNL     1      34.854 -16.781 -24.545  0.00  0.00    +0.136 C 
BRANCH  12  14
ATOM     13  O   UNL     1      34.387 -18.996 -23.648  0.00  0.00    -0.250 OA
ATOM     14  C   UNL     1      34.065 -18.064 -24.372  0.00  0.00    +0.318 C 
BRANCH  14  15
ATOM     15  O   UNL     1      32.934 -18.071 -25.127  0.00  0.00    -0.480 OA
ATOM     16  H   UNL     1      32.660 -18.860 -25.552  0.00  0.00    +0.295 HD
ENDBRANCH  14  15
ENDBRANCH  12  14
ENDBRANCH  11  12
ENDBRANCH   1   6
BRANCH   2  17
ATOM     17  N   UNL     1      31.650  -8.785 -21.681  0.00  0.00    +0.390 N 
ATOM     18  H   UNL     1      30.779  -8.568 -21.198  0.00  0.00    -0.084 HD
ATOM     19  H   UNL     1      31.504  -8.771 -22.690  0.00  0.00    -0.084 HD
BRANCH  17  20
ATOM     20  C   UNL     1      32.664  -7.775 -21.332  0.00  0.00    -0.038 C 
ATOM     21  C   UNL     1      32.560  -7.461 -19.830  0.00  0.00    -0.019 C 
BRANCH  20  22
ATOM     22  C   UNL     1      32.554  -6.547 -22.180  0.00  0.00    -0.042 C 
ATOM     23  C   UNL     1      33.404  -6.318 -23.275  0.00  0.00    -0.006 C 
ATOM     24  C   UNL     1      31.566  -5.622 -21.843  0.00  0.00    -0.006 C 
ATOM     25  C   UNL     1      33.250  -5.137 -24.036  0.00  0.00    -0.000 C 
ATOM     26  C   UNL     1      34.404  -7.239 -23.629  0.00  0.00    -0.000 C 
ATOM     27  C   UNL     1      31.414  -4.460 -22.592  0.00  0.00    -0.000 C 
ATOM     28  C   UNL     1      32.250  -4.216 -23.682  0.00  0.00    -0.000 C 
ATOM     29  C   UNL     1      34.100  -4.909 -25.131  0.00  0.00    -0.000 C 
ATOM     30  C   UNL     1      35.241  -6.996 -24.719  0.00  0.00    -0.000 C 
ATOM     31  C   UNL     1      35.089  -5.833 -25.469  0.00  0.00    -0.000 C 
ENDBRANCH  20  22
ENDBRANCH  17  20
ENDBRANCH   2  17
TORSDOF 7
ENDMDL
MODEL 3
REMARK VINA RESULT:     -10.7      6.687     13.373
REMARK  Name = 71242808
REMARK  7 active torsions:
REMARK  status: ('A' for Active; 'I' for Inactive)
REMARK    1  A    between atoms: N_1  and  C_6
REMARK    2  A    between atoms: C_2  and  N_17
REMARK    3  A    between atoms: C_11  and  C_12
REMARK    4  A    between atoms: C_12  and  C_14
REMARK    5  A    between atoms: C_14  and  O_15
REMARK    6  A    between atoms: N_17  and  C_20
REMARK    7  A    between atoms: C_20  and  C_22
REMARK                            x       y       z     vdW  Elec       q    Type
REMARK                         _______ _______ _______ _____ _____    ______ ____
ROOT
ATOM      1  N   UNL     1      34.668 -20.119 -20.697  0.00  0.00    -0.310 N 
ATOM      2  C   UNL     1      33.853 -21.498 -18.977  0.00  0.00    -0.040 C 
ATOM      3  C   UNL     1      35.239 -21.985 -19.384  0.00  0.00    +0.002 C 
ATOM      4  C   UNL     1      33.413 -20.679 -20.195  0.00  0.00    +0.070 C 
ATOM      5  C   UNL     1      35.830 -20.764 -20.088  0.00  0.00    +0.089 C 
ENDROOT
BRANCH   1   6
ATOM      6  C   UNL     1      34.746 -19.109 -21.633  0.00  0.00    +0.048 C 
ATOM      7  C   UNL     1      34.399 -19.360 -22.961  0.00  0.00    +0.014 C 
ATOM      8  C   UNL     1      35.170 -17.836 -21.252  0.00  0.00    +0.014 C 
ATOM      9  C   UNL     1      34.476 -18.339 -23.907  0.00  0.00    -0.002 C 
ATOM     10  C   UNL     1      35.249 -16.815 -22.198  0.00  0.00    -0.002 C 
ATOM     11  C   UNL     1      34.902 -17.066 -23.526  0.00  0.00    -0.011 C 
BRANCH  11  12
ATOM     12  C   UNL     1      34.986 -15.974 -24.537  0.00  0.00    +0.136 C 
BRANCH  12  14
ATOM     13  O   UNL     1      33.155 -14.540 -23.816  0.00  0.00    -0.250 OA
ATOM     14  C   UNL     1      33.695 -15.196 -24.696  0.00  0.00    +0.318 C 
BRANCH  14  15
ATOM     15  O   UNL     1      33.185 -15.308 -25.952  0.00  0.00    -0.480 OA
ATOM     16  H   UNL     1      32.737 -14.584 -26.341  0.00  0.00    +0.295 HD
ENDBRANCH  14  15
ENDBRANCH  12  14
ENDBRANCH  11  12
ENDBRANCH   1   6
BRANCH   2  17
ATOM     17  N   UNL     1      32.933 -22.575 -18.654  0.00  0.00    +0.390 N 
ATOM     18  H   UNL     1      32.676 -23.065 -19.509  0.00  0.00    -0.084 HD
ATOM     19  H   UNL     1      32.103 -22.181 -18.212  0.00  0.00    -0.084 HD
BRANCH  17  20
ATOM     20  C   UNL     1      33.564 -23.525 -17.721  0.00  0.00    -0.038 C 
ATOM     21  C   UNL     1      33.605 -24.916 -18.377  0.00  0.00    -0.019 C 
BRANCH  20  22
ATOM     22  C   UNL     1      32.884 -23.544 -16.388  0.00  0.00    -0.042 C 
ATOM     23  C   UNL     1      33.567 -23.882 -15.208  0.00  0.00    -0.006 C 
ATOM     24  C   UNL     1      31.530 -23.210 -16.355  0.00  0.00    -0.006 C 
ATOM     25  C   UNL     1      32.867 -23.882 -13.979  0.00  0.00    -0.000 C 
ATOM     26  C   UNL     1      34.930 -24.219 -15.222  0.00  0.00    -0.000 C 
ATOM     27  C   UNL     1      30.842 -23.210 -15.145  0.00  0.00    -0.000 C 
ATOM     28  C   UNL     1      31.504 -23.544 -13.964  0.00  0.00    -0.000 C 
ATOM     29  C   UNL     1      33.550 -24.220 -12.799  0.00  0.00    -0.000 C 
ATOM     30  C   UNL     1      35.593 -24.553 -14.041  0.00  0.00    -0.000 C 
ATOM     31  C   UNL     1      34.905 -24.553 -12.831  0.00  0.00    -0.000 C 
ENDBRANCH  20  22
ENDBRANCH  17  20
ENDBRANCH   2  17
TORSDOF 7
ENDMDL
MODEL 4
REMARK VINA RESULT:     -10.3      1.459      2.859
REMARK  Name = 71242808
REMARK  7 active torsions:
REMARK  status: ('A' for Active; 'I' for Inactive)
REMARK    1  A    between atoms: N_1  and  C_6
REMARK    2  A    between atoms: C_2  and  N_17
REMARK    3  A    between atoms: C_11  and  C_12
REMARK    4  A    between atoms: C_12  and  C_14
REMARK    5  A    between atoms: C_14  and  O_15
REMARK    6  A    between atoms: N_17  and  C_20
REMARK    7  A    between atoms: C_20  and  C_22
REMARK                            x       y       z     vdW  Elec       q    Type
REMARK                         _______ _______ _______ _____ _____    ______ ____
ROOT
ATOM      1  N   UNL     1      32.485 -12.220 -22.168  0.00  0.00    -0.310 N 
ATOM      2  C   UNL     1      32.106  -9.976 -21.578  0.00  0.00    -0.040 C 
ATOM      3  C   UNL     1      31.015 -10.840 -20.955  0.00  0.00    +0.002 C 
ATOM      4  C   UNL     1      32.639 -10.867 -22.704  0.00  0.00    +0.070 C 
ATOM      5  C   UNL     1      31.641 -12.234 -20.974  0.00  0.00    +0.089 C 
ENDROOT
BRANCH   1   6
ATOM      6  C   UNL     1      33.062 -13.343 -22.722  0.00  0.00    +0.048 C 
ATOM      7  C   UNL     1      33.878 -14.164 -21.943  0.00  0.00    +0.014 C 
ATOM      8  C   UNL     1      32.830 -13.659 -24.060  0.00  0.00    +0.014 C 
ATOM      9  C   UNL     1      34.461 -15.300 -22.503  0.00  0.00    -0.002 C 
ATOM     10  C   UNL     1      33.414 -14.795 -24.621  0.00  0.00    -0.002 C 
ATOM     11  C   UNL     1      34.229 -15.615 -23.842  0.00  0.00    -0.011 C 
BRANCH  11  12
ATOM     12  C   UNL     1      34.853 -16.830 -24.442  0.00  0.00    +0.136 C 
BRANCH  12  14
ATOM     13  O   UNL     1      32.955 -18.198 -25.115  0.00  0.00    -0.250 OA
ATOM     14  C   UNL     1      33.950 -18.047 -24.420  0.00  0.00    +0.318 C 
BRANCH  14  15
ATOM     15  O   UNL     1      34.373 -18.976 -23.521  0.00  0.00    -0.480 OA
ATOM     16  H   UNL     1      34.191 -19.884 -23.667  0.00  0.00    +0.295 HD
ENDBRANCH  14  15
ENDBRANCH  12  14
ENDBRANCH  11  12
ENDBRANCH   1   6
BRANCH   2  17
ATOM     17  N   UNL     1      31.624  -8.689 -22.050  0.00  0.00    +0.390 N 
ATOM     18  H   UNL     1      30.668  -8.550 -21.728  0.00  0.00    -0.084 HD
ATOM     19  H   UNL     1      31.656  -8.677 -23.069  0.00  0.00    -0.084 HD
BRANCH  17  20
ATOM     20  C   UNL     1      32.475  -7.603 -21.533  0.00  0.00    -0.038 C 
ATOM     21  C   UNL     1      31.580  -6.534 -20.883  0.00  0.00    -0.019 C 
BRANCH  20  22
ATOM     22  C   UNL     1      33.368  -7.033 -22.591  0.00  0.00    -0.042 C 
ATOM     23  C   UNL     1      32.940  -6.012 -23.456  0.00  0.00    -0.006 C 
ATOM     24  C   UNL     1      34.656  -7.556 -22.691  0.00  0.00    -0.006 C 
ATOM     25  C   UNL     1      33.832  -5.516 -24.435  0.00  0.00    -0.000 C 
ATOM     26  C   UNL     1      31.646  -5.473 -23.368  0.00  0.00    -0.000 C 
ATOM     27  C   UNL     1      35.534  -7.068 -23.655  0.00  0.00    -0.000 C 
ATOM     28  C   UNL     1      35.126  -6.055 -24.523  0.00  0.00    -0.000 C 
ATOM     29  C   UNL     1      33.404  -4.495 -25.300  0.00  0.00    -0.000 C 
ATOM     30  C   UNL     1      31.238  -4.458 -24.236  0.00  0.00    -0.000 C 
ATOM     31  C   UNL     1      32.115  -3.971 -25.199  0.00  0.00    -0.000 C 
ENDBRANCH  20  22
ENDBRANCH  17  20
ENDBRANCH   2  17
TORSDOF 7
ENDMDL
MODEL 5
REMARK VINA RESULT:     -10.2      6.888     13.457
REMARK  Name = 71242808
REMARK  7 active torsions:
REMARK  status: ('A' for Active; 'I' for Inactive)
REMARK    1  A    between atoms: N_1  and  C_6
REMARK    2  A    between atoms: C_2  and  N_17
REMARK    3  A    between atoms: C_11  and  C_12
REMARK    4  A    between atoms: C_12  and  C_14
REMARK    5  A    between atoms: C_14  and  O_15
REMARK    6  A    between atoms: N_17  and  C_20
REMARK    7  A    between atoms: C_20  and  C_22
REMARK                            x       y       z     vdW  Elec       q    Type
REMARK                         _______ _______ _______ _____ _____    ______ ____
ROOT
ATOM      1  N   UNL     1      34.393 -20.500 -20.526  0.00  0.00    -0.310 N 
ATOM      2  C   UNL     1      34.731 -22.476 -19.298  0.00  0.00    -0.040 C 
ATOM      3  C   UNL     1      33.479 -21.780 -18.777  0.00  0.00    +0.002 C 
ATOM      4  C   UNL     1      35.474 -21.342 -20.012  0.00  0.00    +0.070 C 
ATOM      5  C   UNL     1      33.104 -20.854 -19.934  0.00  0.00    +0.089 C 
ENDROOT
BRANCH   1   6
ATOM      6  C   UNL     1      34.569 -19.495 -21.454  0.00  0.00    +0.048 C 
ATOM      7  C   UNL     1      34.170 -19.689 -22.776  0.00  0.00    +0.014 C 
ATOM      8  C   UNL     1      35.145 -18.285 -21.069  0.00  0.00    +0.014 C 
ATOM      9  C   UNL     1      34.346 -18.672 -23.714  0.00  0.00    -0.002 C 
ATOM     10  C   UNL     1      35.323 -17.268 -22.007  0.00  0.00    -0.002 C 
ATOM     11  C   UNL     1      34.924 -17.462 -23.329  0.00  0.00    -0.011 C 
BRANCH  11  12
ATOM     12  C   UNL     1      35.115 -16.374 -24.332  0.00  0.00    +0.136 C 
BRANCH  12  14
ATOM     13  O   UNL     1      33.366 -14.806 -23.691  0.00  0.00    -0.250 OA
ATOM     14  C   UNL     1      33.879 -15.521 -24.540  0.00  0.00    +0.318 C 
BRANCH  14  15
ATOM     15  O   UNL     1      33.388 -15.639 -25.803  0.00  0.00    -0.480 OA
ATOM     16  H   UNL     1      33.889 -16.080 -26.460  0.00  0.00    +0.295 HD
ENDBRANCH  14  15
ENDBRANCH  12  14
ENDBRANCH  11  12
ENDBRANCH   1   6
BRANCH   2  17
ATOM     17  N   UNL     1      35.521 -23.104 -18.253  0.00  0.00    +0.390 N 
ATOM     18  H   UNL     1      36.484 -23.200 -18.571  0.00  0.00    -0.084 HD
ATOM     19  H   UNL     1      35.127 -24.023 -18.046  0.00  0.00    -0.084 HD
BRANCH  17  20
ATOM     20  C   UNL     1      35.492 -22.287 -17.028  0.00  0.00    -0.038 C 
ATOM     21  C   UNL     1      36.755 -21.410 -16.983  0.00  0.00    -0.019 C 
BRANCH  20  22
ATOM     22  C   UNL     1      35.334 -23.122 -15.795  0.00  0.00    -0.042 C 
ATOM     23  C   UNL     1      34.075 -23.541 -15.335  0.00  0.00    -0.006 C 
ATOM     24  C   UNL     1      36.496 -23.475 -15.108  0.00  0.00    -0.006 C 
ATOM     25  C   UNL     1      33.993 -24.328 -14.163  0.00  0.00    -0.000 C 
ATOM     26  C   UNL     1      32.896 -23.196 -16.015  0.00  0.00    -0.000 C 
ATOM     27  C   UNL     1      36.415 -24.249 -13.955  0.00  0.00    -0.000 C 
ATOM     28  C   UNL     1      35.173 -24.673 -13.483  0.00  0.00    -0.000 C 
ATOM     29  C   UNL     1      32.734 -24.747 -13.703  0.00  0.00    -0.000 C 
ATOM     30  C   UNL     1      31.653 -23.620 -15.544  0.00  0.00    -0.000 C 
ATOM     31  C   UNL     1      31.572 -24.394 -14.390  0.00  0.00    -0.000 C 
ENDBRANCH  20  22
ENDBRANCH  17  20
ENDBRANCH   2  17
TORSDOF 7
ENDMDL
MODEL 6
REMARK VINA RESULT:     -10.2      1.441      2.381
REMARK  Name = 71242808
REMARK  7 active torsions:
REMARK  status: ('A' for Active; 'I' for Inactive)
REMARK    1  A    between atoms: N_1  and  C_6
REMARK    2  A    between atoms: C_2  and  N_17
REMARK    3  A    between atoms: C_11  and  C_12
REMARK    4  A    between atoms: C_12  and  C_14
REMARK    5  A    between atoms: C_14  and  O_15
REMARK    6  A    between atoms: N_17  and  C_20
REMARK    7  A    between atoms: C_20  and  C_22
REMARK                            x       y       z     vdW  Elec       q    Type
REMARK                         _______ _______ _______ _____ _____    ______ ____
ROOT
ATOM      1  N   UNL     1      32.591 -12.260 -22.581  0.00  0.00    -0.310 N 
ATOM      2  C   UNL     1      32.250  -9.963 -22.213  0.00  0.00    -0.040 C 
ATOM      3  C   UNL     1      31.059 -10.734 -21.654  0.00  0.00    +0.002 C 
ATOM      4  C   UNL     1      32.864 -10.962 -23.199  0.00  0.00    +0.070 C 
ATOM      5  C   UNL     1      31.620 -12.146 -21.494  0.00  0.00    +0.089 C 
ENDROOT
BRANCH   1   6
ATOM      6  C   UNL     1      33.175 -13.445 -22.977  0.00  0.00    +0.048 C 
ATOM      7  C   UNL     1      32.949 -13.938 -24.262  0.00  0.00    +0.014 C 
ATOM      8  C   UNL     1      33.992 -14.149 -22.094  0.00  0.00    +0.014 C 
ATOM      9  C   UNL     1      33.540 -15.135 -24.663  0.00  0.00    -0.002 C 
ATOM     10  C   UNL     1      34.582 -15.347 -22.494  0.00  0.00    -0.002 C 
ATOM     11  C   UNL     1      34.356 -15.840 -23.779  0.00  0.00    -0.011 C 
BRANCH  11  12
ATOM     12  C   UNL     1      34.988 -17.122 -24.207  0.00  0.00    +0.136 C 
BRANCH  12  14
ATOM     13  O   UNL     1      34.246 -18.981 -22.821  0.00  0.00    -0.250 OA
ATOM     14  C   UNL     1      35.095 -18.144 -23.093  0.00  0.00    +0.318 C 
BRANCH  14  15
ATOM     15  O   UNL     1      36.264 -18.028 -22.408  0.00  0.00    -0.480 OA
ATOM     16  H   UNL     1      36.993 -17.588 -22.799  0.00  0.00    +0.295 HD
ENDBRANCH  14  15
ENDBRANCH  12  14
ENDBRANCH  11  12
ENDBRANCH   1   6
BRANCH   2  17
ATOM     17  N   UNL     1      31.882  -8.702 -22.834  0.00  0.00    +0.390 N 
ATOM     18  H   UNL     1      31.065  -8.320 -22.361  0.00  0.00    -0.084 HD
ATOM     19  H   UNL     1      31.673  -8.867 -23.819  0.00  0.00    -0.084 HD
BRANCH  17  20
ATOM     20  C   UNL     1      32.994  -7.741 -22.737  0.00  0.00    -0.038 C 
ATOM     21  C   UNL     1      33.320  -7.502 -21.253  0.00  0.00    -0.019 C 
BRANCH  20  22
ATOM     22  C   UNL     1      32.704  -6.467 -23.468  0.00  0.00    -0.042 C 
ATOM     23  C   UNL     1      33.618  -5.902 -24.373  0.00  0.00    -0.006 C 
ATOM     24  C   UNL     1      31.478  -5.850 -23.218  0.00  0.00    -0.006 C 
ATOM     25  C   UNL     1      33.284  -4.695 -25.031  0.00  0.00    -0.000 C 
ATOM     26  C   UNL     1      34.856  -6.510 -24.637  0.00  0.00    -0.000 C 
ATOM     27  C   UNL     1      31.150  -4.663 -23.866  0.00  0.00    -0.000 C 
ATOM     28  C   UNL     1      32.046  -4.087 -24.767  0.00  0.00    -0.000 C 
ATOM     29  C   UNL     1      34.199  -4.131 -25.936  0.00  0.00    -0.000 C 
ATOM     30  C   UNL     1      35.753  -5.935 -25.539  0.00  0.00    -0.000 C 
ATOM     31  C   UNL     1      35.425  -4.748 -26.187  0.00  0.00    -0.000 C 
ENDBRANCH  20  22
ENDBRANCH  17  20
ENDBRANCH   2  17
TORSDOF 7
ENDMDL
MODEL 7
REMARK VINA RESULT:     -10.1      1.736      2.167
REMARK  Name = 71242808
REMARK  7 active torsions:
REMARK  status: ('A' for Active; 'I' for Inactive)
REMARK    1  A    between atoms: N_1  and  C_6
REMARK    2  A    between atoms: C_2  and  N_17
REMARK    3  A    between atoms: C_11  and  C_12
REMARK    4  A    between atoms: C_12  and  C_14
REMARK    5  A    between atoms: C_14  and  O_15
REMARK    6  A    between atoms: N_17  and  C_20
REMARK    7  A    between atoms: C_20  and  C_22
REMARK                            x       y       z     vdW  Elec       q    Type
REMARK                         _______ _______ _______ _____ _____    ______ ____
ROOT
ATOM      1  N   UNL     1      33.656 -13.767 -22.747  0.00  0.00    -0.310 N 
ATOM      2  C   UNL     1      32.127 -11.985 -22.869  0.00  0.00    -0.040 C 
ATOM      3  C   UNL     1      33.492 -11.496 -23.340  0.00  0.00    +0.002 C 
ATOM      4  C   UNL     1      32.480 -13.236 -22.057  0.00  0.00    +0.070 C 
ATOM      5  C   UNL     1      34.211 -12.798 -23.691  0.00  0.00    +0.089 C 
ENDROOT
BRANCH   1   6
ATOM      6  C   UNL     1      34.178 -15.025 -22.531  0.00  0.00    +0.048 C 
ATOM      7  C   UNL     1      34.493 -15.436 -21.236  0.00  0.00    +0.014 C 
ATOM      8  C   UNL     1      34.391 -15.885 -23.607  0.00  0.00    +0.014 C 
ATOM      9  C   UNL     1      35.021 -16.708 -21.017  0.00  0.00    -0.002 C 
ATOM     10  C   UNL     1      34.920 -17.157 -23.389  0.00  0.00    -0.002 C 
ATOM     11  C   UNL     1      35.235 -17.569 -22.094  0.00  0.00    -0.011 C 
BRANCH  11  12
ATOM     12  C   UNL     1      35.800 -18.929 -21.861  0.00  0.00    +0.136 C 
BRANCH  12  14
ATOM     13  O   UNL     1      37.160 -19.101 -19.849  0.00  0.00    -0.250 OA
ATOM     14  C   UNL     1      37.085 -18.920 -21.056  0.00  0.00    +0.318 C 
BRANCH  14  15
ATOM     15  O   UNL     1      38.172 -18.681 -21.838  0.00  0.00    -0.480 OA
ATOM     16  H   UNL     1      39.033 -18.754 -21.476  0.00  0.00    +0.295 HD
ENDBRANCH  14  15
ENDBRANCH  12  14
ENDBRANCH  11  12
ENDBRANCH   1   6
BRANCH   2  17
ATOM     17  N   UNL     1      31.393 -10.995 -22.099  0.00  0.00    +0.390 N 
ATOM     18  H   UNL     1      30.556 -11.427 -21.709  0.00  0.00    -0.084 HD
ATOM     19  H   UNL     1      31.136 -10.222 -22.712  0.00  0.00    -0.084 HD
BRANCH  17  20
ATOM     20  C   UNL     1      32.228 -10.478 -21.001  0.00  0.00    -0.038 C 
ATOM     21  C   UNL     1      31.700 -11.031 -19.667  0.00  0.00    -0.019 C 
BRANCH  20  22
ATOM     22  C   UNL     1      32.305  -8.982 -21.007  0.00  0.00    -0.042 C 
ATOM     23  C   UNL     1      31.995  -8.225 -22.149  0.00  0.00    -0.006 C 
ATOM     24  C   UNL     1      32.700  -8.357 -19.825  0.00  0.00    -0.006 C 
ATOM     25  C   UNL     1      32.088  -6.815 -22.090  0.00  0.00    -0.000 C 
ATOM     26  C   UNL     1      31.594  -8.838 -23.347  0.00  0.00    -0.000 C 
ATOM     27  C   UNL     1      32.791  -6.969 -19.767  0.00  0.00    -0.000 C 
ATOM     28  C   UNL     1      32.488  -6.202 -20.892  0.00  0.00    -0.000 C 
ATOM     29  C   UNL     1      31.778  -6.057 -23.232  0.00  0.00    -0.000 C 
ATOM     30  C   UNL     1      31.291  -8.070 -24.473  0.00  0.00    -0.000 C 
ATOM     31  C   UNL     1      31.382  -6.683 -24.415  0.00  0.00    -0.000 C 
ENDBRANCH  20  22
ENDBRANCH  17  20
ENDBRANCH   2  17
TORSDOF 7
ENDMDL
MODEL 8
REMARK VINA RESULT:     -10.1      1.232      2.145
REMARK  Name = 71242808
REMARK  7 active torsions:
REMARK  status: ('A' for Active; 'I' for Inactive)
REMARK    1  A    between atoms: N_1  and  C_6
REMARK    2  A    between atoms: C_2  and  N_17
REMARK    3  A    between atoms: C_11  and  C_12
REMARK    4  A    between atoms: C_12  and  C_14
REMARK    5  A    between atoms: C_14  and  O_15
REMARK    6  A    between atoms: N_17  and  C_20
REMARK    7  A    between atoms: C_20  and  C_22
REMARK                            x       y       z     vdW  Elec       q    Type
REMARK                         _______ _______ _______ _____ _____    ______ ____
ROOT
ATOM      1  N   UNL     1      33.068 -12.930 -22.267  0.00  0.00    -0.310 N 
ATOM      2  C   UNL     1      32.567 -10.668 -22.665  0.00  0.00    -0.040 C 
ATOM      3  C   UNL     1      31.504 -11.253 -21.743  0.00  0.00    +0.002 C 
ATOM      4  C   UNL     1      33.170 -11.916 -23.317  0.00  0.00    +0.070 C 
ATOM      5  C   UNL     1      32.196 -12.493 -21.178  0.00  0.00    +0.089 C 
ENDROOT
BRANCH   1   6
ATOM      6  C   UNL     1      33.712 -14.149 -22.302  0.00  0.00    +0.048 C 
ATOM      7  C   UNL     1      34.180 -14.724 -21.121  0.00  0.00    +0.014 C 
ATOM      8  C   UNL     1      33.895 -14.807 -23.518  0.00  0.00    +0.014 C 
ATOM      9  C   UNL     1      34.830 -15.957 -21.155  0.00  0.00    -0.002 C 
ATOM     10  C   UNL     1      34.546 -16.040 -23.553  0.00  0.00    -0.002 C 
ATOM     11  C   UNL     1      35.014 -16.615 -22.372  0.00  0.00    -0.011 C 
BRANCH  11  12
ATOM     12  C   UNL     1      35.711 -17.933 -22.410  0.00  0.00    +0.136 C 
BRANCH  12  14
ATOM     13  O   UNL     1      34.619 -19.285 -20.705  0.00  0.00    -0.250 OA
ATOM     14  C   UNL     1      35.617 -18.704 -21.108  0.00  0.00    +0.318 C 
BRANCH  14  15
ATOM     15  O   UNL     1      36.788 -18.680 -20.418  0.00  0.00    -0.480 OA
ATOM     16  H   UNL     1      37.586 -18.461 -20.859  0.00  0.00    +0.295 HD
ENDBRANCH  14  15
ENDBRANCH  12  14
ENDBRANCH  11  12
ENDBRANCH   1   6
BRANCH   2  17
ATOM     17  N   UNL     1      32.037  -9.721 -23.631  0.00  0.00    +0.390 N 
ATOM     18  H   UNL     1      31.118  -9.406 -23.323  0.00  0.00    -0.084 HD
ATOM     19  H   UNL     1      31.963 -10.181 -24.539  0.00  0.00    -0.084 HD
BRANCH  17  20
ATOM     20  C   UNL     1      32.933  -8.560 -23.756  0.00  0.00    -0.038 C 
ATOM     21  C   UNL     1      34.315  -8.932 -23.192  0.00  0.00    -0.019 C 
BRANCH  20  22
ATOM     22  C   UNL     1      32.365  -7.336 -23.107  0.00  0.00    -0.042 C 
ATOM     23  C   UNL     1      32.405  -6.077 -23.729  0.00  0.00    -0.006 C 
ATOM     24  C   UNL     1      31.786  -7.489 -21.848  0.00  0.00    -0.006 C 
ATOM     25  C   UNL     1      31.852  -4.958 -23.063  0.00  0.00    -0.000 C 
ATOM     26  C   UNL     1      32.984  -5.905 -24.997  0.00  0.00    -0.000 C 
ATOM     27  C   UNL     1      31.242  -6.388 -21.193  0.00  0.00    -0.000 C 
ATOM     28  C   UNL     1      31.274  -5.130 -21.795  0.00  0.00    -0.000 C 
ATOM     29  C   UNL     1      31.892  -3.699 -23.685  0.00  0.00    -0.000 C 
ATOM     30  C   UNL     1      33.016  -4.647 -25.600  0.00  0.00    -0.000 C 
ATOM     31  C   UNL     1      32.471  -3.546 -24.945  0.00  0.00    -0.000 C 
ENDBRANCH  20  22
ENDBRANCH  17  20
ENDBRANCH   2  17
TORSDOF 7
ENDMDL
MODEL 9
REMARK VINA RESULT:     -10.1      6.768     13.269
REMARK  Name = 71242808
REMARK  7 active torsions:
REMARK  status: ('A' for Active; 'I' for Inactive)
REMARK    1  A    between atoms: N_1  and  C_6
REMARK    2  A    between atoms: C_2  and  N_17
REMARK    3  A    between atoms: C_11  and  C_12
REMARK    4  A    between atoms: C_12  and  C_14
REMARK    5  A    between atoms: C_14  and  O_15
REMARK    6  A    between atoms: N_17  and  C_20
REMARK    7  A    between atoms: C_20  and  C_22
REMARK                            x       y       z     vdW  Elec       q    Type
REMARK                         _______ _______ _______ _____ _____    ______ ____
ROOT
ATOM      1  N   UNL     1      34.719 -20.213 -20.583  0.00  0.00    -0.310 N 
ATOM      2  C   UNL     1      33.928 -21.541 -18.811  0.00  0.00    -0.040 C 
ATOM      3  C   UNL     1      35.320 -22.022 -19.203  0.00  0.00    +0.002 C 
ATOM      4  C   UNL     1      33.474 -20.773 -20.058  0.00  0.00    +0.070 C 
ATOM      5  C   UNL     1      35.891 -20.819 -19.952  0.00  0.00    +0.089 C 
ENDROOT
BRANCH   1   6
ATOM      6  C   UNL     1      34.781 -19.237 -21.555  0.00  0.00    +0.048 C 
ATOM      7  C   UNL     1      34.351 -19.518 -22.852  0.00  0.00    +0.014 C 
ATOM      8  C   UNL     1      35.271 -17.970 -21.241  0.00  0.00    +0.014 C 
ATOM      9  C   UNL     1      34.412 -18.531 -23.835  0.00  0.00    -0.002 C 
ATOM     10  C   UNL     1      35.333 -16.983 -22.225  0.00  0.00    -0.002 C 
ATOM     11  C   UNL     1      34.904 -17.263 -23.522  0.00  0.00    -0.011 C 
BRANCH  11  12
ATOM     12  C   UNL     1      34.971 -16.208 -24.573  0.00  0.00    +0.136 C 
BRANCH  12  14
ATOM     13  O   UNL     1      33.278 -14.688 -23.704  0.00  0.00    -0.250 OA
ATOM     14  C   UNL     1      33.730 -15.338 -24.636  0.00  0.00    +0.318 C 
BRANCH  14  15
ATOM     15  O   UNL     1      33.157 -15.360 -25.869  0.00  0.00    -0.480 OA
ATOM     16  H   UNL     1      33.579 -14.931 -26.588  0.00  0.00    +0.295 HD
ENDBRANCH  14  15
ENDBRANCH  12  14
ENDBRANCH  11  12
ENDBRANCH   1   6
BRANCH   2  17
ATOM     17  N   UNL     1      33.024 -22.619 -18.447  0.00  0.00    +0.390 N 
ATOM     18  H   UNL     1      32.588 -22.990 -19.290  0.00  0.00    -0.084 HD
ATOM     19  H   UNL     1      32.312 -22.255 -17.814  0.00  0.00    -0.084 HD
BRANCH  17  20
ATOM     20  C   UNL     1      33.762 -23.697 -17.767  0.00  0.00    -0.038 C 
ATOM     21  C   UNL     1      33.480 -25.027 -18.486  0.00  0.00    -0.019 C 
BRANCH  20  22
ATOM     22  C   UNL     1      33.445 -23.762 -16.304  0.00  0.00    -0.042 C 
ATOM     23  C   UNL     1      32.151 -23.526 -15.811  0.00  0.00    -0.006 C 
ATOM     24  C   UNL     1      34.492 -24.069 -15.436  0.00  0.00    -0.006 C 
ATOM     25  C   UNL     1      31.918 -23.601 -14.418  0.00  0.00    -0.000 C 
ATOM     26  C   UNL     1      31.085 -23.216 -16.671  0.00  0.00    -0.000 C 
ATOM     27  C   UNL     1      34.262 -24.144 -14.066  0.00  0.00    -0.000 C 
ATOM     28  C   UNL     1      32.984 -23.911 -13.558  0.00  0.00    -0.000 C 
ATOM     29  C   UNL     1      30.624 -23.365 -13.925  0.00  0.00    -0.000 C 
ATOM     30  C   UNL     1      29.806 -22.983 -16.164  0.00  0.00    -0.000 C 
ATOM     31  C   UNL     1      29.576 -23.058 -14.793  0.00  0.00    -0.000 C 
ENDBRANCH  20  22
ENDBRANCH  17  20
ENDBRANCH   2  17
TORSDOF 7
ENDMDL
