MODEL 1
REMARK VINA RESULT:     -12.2      0.000      0.000
REMARK  Name = 23586146
REMARK  5 active torsions:
REMARK  status: ('A' for Active; 'I' for Inactive)
REMARK    1  A    between atoms: N_1  and  C_12
REMARK    2  A    between atoms: C_8  and  N_18
REMARK    3  A    between atoms: N_18  and  C_20
REMARK    4  A    between atoms: C_23  and  S_26
REMARK    5  A    between atoms: S_26  and  N_29
REMARK                            x       y       z     vdW  Elec       q    Type
REMARK                         _______ _______ _______ _____ _____    ______ ____
ROOT
ATOM      1  N   UNL     1      35.543 -24.530 -14.023  0.00  0.00    -0.309 N 
ATOM      2  N   UNL     1      33.308 -24.004 -14.045  0.00  0.00    -0.321 NA
ATOM      3  N   UNL     1      32.274 -23.424 -16.134  0.00  0.00    -0.106 N 
ATOM      4  N   UNL     1      31.043 -23.064 -16.588  0.00  0.00    -0.139 NA
ATOM      5  N   UNL     1      30.978 -23.410 -14.338  0.00  0.00    -0.145 NA
ATOM      6  C   UNL     1      34.438 -24.164 -14.693  0.00  0.00    +0.196 C 
ATOM      7  C   UNL     1      34.562 -23.953 -16.178  0.00  0.00    +0.081 C 
ATOM      8  C   UNL     1      33.461 -23.587 -16.852  0.00  0.00    +0.140 C 
ATOM      9  C   UNL     1      32.209 -23.632 -14.755  0.00  0.00    +0.176 C 
ATOM     10  C   UNL     1      30.317 -23.073 -15.474  0.00  0.00    +0.230 C 
ATOM     11  H   UNL     1      36.385 -24.630 -14.522  0.00  0.00    +0.149 HD
ENDROOT
BRANCH   1  12
ATOM     12  C   UNL     1      35.547 -24.784 -12.594  0.00  0.00    +0.071 C 
ATOM     13  C   UNL     1      36.488 -25.949 -12.270  0.00  0.00    +0.020 C 
ATOM     14  C   UNL     1      35.944 -23.513 -11.836  0.00  0.00    +0.020 C 
ATOM     15  C   UNL     1      37.963 -25.583 -12.442  0.00  0.00    +0.002 C 
ATOM     16  C   UNL     1      37.420 -23.157 -12.009  0.00  0.00    +0.002 C 
ATOM     17  C   UNL     1      38.328 -24.330 -11.654  0.00  0.00    +0.000 C 
ENDBRANCH   1  12
BRANCH   8  18
ATOM     18  N   UNL     1      33.425 -23.360 -18.198  0.00  0.00    -0.299 N 
ATOM     19  H   UNL     1      32.927 -24.021 -18.731  0.00  0.00    +0.153 HD
BRANCH  18  20
ATOM     20  C   UNL     1      34.003 -22.308 -18.917  0.00  0.00    +0.049 C 
ATOM     21  C   UNL     1      35.392 -22.171 -18.957  0.00  0.00    +0.016 C 
ATOM     22  C   UNL     1      33.194 -21.396 -19.592  0.00  0.00    +0.016 C 
ATOM     23  C   UNL     1      35.157 -20.211 -20.350  0.00  0.00    +0.122 C 
ATOM     24  C   UNL     1      35.968 -21.123 -19.674  0.00  0.00    +0.021 C 
ATOM     25  C   UNL     1      33.770 -20.348 -20.309  0.00  0.00    +0.021 C 
BRANCH  23  26
ATOM     26  S   UNL     1      35.880 -18.899 -21.246  0.00  0.00    +0.057 S 
ATOM     27  O   UNL     1      35.754 -19.190 -22.668  0.00  0.00    -0.153 OA
ATOM     28  O   UNL     1      35.372 -17.641 -20.718  0.00  0.00    -0.153 OA
BRANCH  26  29
ATOM     29  N   UNL     1      37.521 -19.061 -20.795  0.00  0.00    -0.203 NA
ATOM     30  H   UNL     1      37.845 -18.191 -20.375  0.00  0.00    +0.144 HD
ATOM     31  H   UNL     1      38.081 -19.270 -21.621  0.00  0.00    +0.144 HD
ENDBRANCH  26  29
ENDBRANCH  23  26
ENDBRANCH  18  20
ENDBRANCH   8  18
TORSDOF 5
ENDMDL
MODEL 2
REMARK VINA RESULT:     -10.3      1.717      4.550
REMARK  Name = 23586146
REMARK  5 active torsions:
REMARK  status: ('A' for Active; 'I' for Inactive)
REMARK    1  A    between atoms: N_1  and  C_12
REMARK    2  A    between atoms: C_8  and  N_18
REMARK    3  A    between atoms: N_18  and  C_20
REMARK    4  A    between atoms: C_23  and  S_26
REMARK    5  A    between atoms: S_26  and  N_29
REMARK                            x       y       z     vdW  Elec       q    Type
REMARK                         _______ _______ _______ _____ _____    ______ ____
ROOT
ATOM      1  N   UNL     1      30.815 -23.107 -15.765  0.00  0.00    -0.309 N 
ATOM      2  N   UNL     1      32.838 -23.333 -14.705  0.00  0.00    -0.321 NA
ATOM      3  N   UNL     1      34.848 -23.291 -16.020  0.00  0.00    -0.106 N 
ATOM      4  N   UNL     1      36.190 -23.384 -15.820  0.00  0.00    -0.139 NA
ATOM      5  N   UNL     1      35.089 -23.551 -13.834  0.00  0.00    -0.145 NA
ATOM      6  C   UNL     1      32.156 -23.172 -15.814  0.00  0.00    +0.196 C 
ATOM      7  C   UNL     1      32.810 -23.054 -17.164  0.00  0.00    +0.081 C 
ATOM      8  C   UNL     1      34.149 -23.119 -17.218  0.00  0.00    +0.140 C 
ATOM      9  C   UNL     1      34.195 -23.395 -14.791  0.00  0.00    +0.176 C 
ATOM     10  C   UNL     1      36.270 -23.537 -14.502  0.00  0.00    +0.230 C 
ATOM     11  H   UNL     1      30.318 -23.002 -16.608  0.00  0.00    +0.149 HD
ENDROOT
BRANCH   1  12
ATOM     12  C   UNL     1      30.069 -23.186 -14.523  0.00  0.00    +0.071 C 
ATOM     13  C   UNL     1      28.575 -23.361 -14.817  0.00  0.00    +0.020 C 
ATOM     14  C   UNL     1      30.609 -24.328 -13.658  0.00  0.00    +0.020 C 
ATOM     15  C   UNL     1      28.240 -24.745 -15.373  0.00  0.00    +0.002 C 
ATOM     16  C   UNL     1      30.266 -25.709 -14.217  0.00  0.00    +0.002 C 
ATOM     17  C   UNL     1      28.769 -25.857 -14.474  0.00  0.00    +0.000 C 
ENDBRANCH   1  12
BRANCH   8  18
ATOM     18  N   UNL     1      34.876 -23.028 -18.369  0.00  0.00    -0.299 N 
ATOM     19  H   UNL     1      35.342 -23.849 -18.648  0.00  0.00    +0.153 HD
BRANCH  18  20
ATOM     20  C   UNL     1      35.044 -21.918 -19.204  0.00  0.00    +0.049 C 
ATOM     21  C   UNL     1      36.322 -21.412 -19.445  0.00  0.00    +0.016 C 
ATOM     22  C   UNL     1      33.934 -21.316 -19.796  0.00  0.00    +0.016 C 
ATOM     23  C   UNL     1      35.377 -19.704 -20.870  0.00  0.00    +0.122 C 
ATOM     24  C   UNL     1      36.489 -20.306 -20.278  0.00  0.00    +0.021 C 
ATOM     25  C   UNL     1      34.101 -20.210 -20.629  0.00  0.00    +0.021 C 
BRANCH  23  26
ATOM     26  S   UNL     1      35.587 -18.320 -21.911  0.00  0.00    +0.057 S 
ATOM     27  O   UNL     1      34.914 -18.589 -23.174  0.00  0.00    -0.153 OA
ATOM     28  O   UNL     1      35.257 -17.118 -21.158  0.00  0.00    -0.153 OA
BRANCH  26  29
ATOM     29  N   UNL     1      37.276 -18.358 -22.169  0.00  0.00    -0.203 NA
ATOM     30  H   UNL     1      37.558 -17.536 -22.701  0.00  0.00    +0.144 HD
ATOM     31  H   UNL     1      37.521 -19.201 -22.690  0.00  0.00    +0.144 HD
ENDBRANCH  26  29
ENDBRANCH  23  26
ENDBRANCH  18  20
ENDBRANCH   8  18
TORSDOF 5
ENDMDL
MODEL 3
REMARK VINA RESULT:      -9.4      8.018     11.771
REMARK  Name = 23586146
REMARK  5 active torsions:
REMARK  status: ('A' for Active; 'I' for Inactive)
REMARK    1  A    between atoms: N_1  and  C_12
REMARK    2  A    between atoms: C_8  and  N_18
REMARK    3  A    between atoms: N_18  and  C_20
REMARK    4  A    between atoms: C_23  and  S_26
REMARK    5  A    between atoms: S_26  and  N_29
REMARK                            x       y       z     vdW  Elec       q    Type
REMARK                         _______ _______ _______ _____ _____    ______ ____
ROOT
ATOM      1  N   UNL     1      35.324 -17.226 -21.813  0.00  0.00    -0.309 N 
ATOM      2  N   UNL     1      34.630 -16.429 -23.851  0.00  0.00    -0.321 NA
ATOM      3  N   UNL     1      33.454 -14.336 -23.938  0.00  0.00    -0.106 N 
ATOM      4  N   UNL     1      32.891 -13.531 -24.878  0.00  0.00    -0.139 NA
ATOM      5  N   UNL     1      33.794 -15.373 -25.865  0.00  0.00    -0.145 NA
ATOM      6  C   UNL     1      34.711 -16.285 -22.549  0.00  0.00    +0.196 C 
ATOM      7  C   UNL     1      34.138 -15.097 -21.823  0.00  0.00    +0.081 C 
ATOM      8  C   UNL     1      33.524 -14.155 -22.554  0.00  0.00    +0.140 C 
ATOM      9  C   UNL     1      34.001 -15.457 -24.565  0.00  0.00    +0.176 C 
ATOM     10  C   UNL     1      33.125 -14.200 -26.002  0.00  0.00    +0.230 C 
ATOM     11  H   UNL     1      35.362 -17.111 -20.837  0.00  0.00    +0.149 HD
ENDROOT
BRANCH   1  12
ATOM     12  C   UNL     1      35.935 -18.406 -22.397  0.00  0.00    +0.071 C 
ATOM     13  C   UNL     1      37.189 -18.795 -21.609  0.00  0.00    +0.020 C 
ATOM     14  C   UNL     1      34.921 -19.554 -22.442  0.00  0.00    +0.020 C 
ATOM     15  C   UNL     1      36.867 -19.364 -20.226  0.00  0.00    +0.002 C 
ATOM     16  C   UNL     1      34.607 -20.121 -21.057  0.00  0.00    +0.002 C 
ATOM     17  C   UNL     1      35.876 -20.520 -20.311  0.00  0.00    +0.000 C 
ENDBRANCH   1  12
BRANCH   8  18
ATOM     18  N   UNL     1      32.959 -13.026 -22.033  0.00  0.00    -0.299 N 
ATOM     19  H   UNL     1      32.441 -13.149 -21.205  0.00  0.00    +0.153 HD
BRANCH  18  20
ATOM     20  C   UNL     1      33.023 -11.718 -22.525  0.00  0.00    +0.049 C 
ATOM     21  C   UNL     1      31.910 -10.881 -22.429  0.00  0.00    +0.016 C 
ATOM     22  C   UNL     1      34.198 -11.249 -23.112  0.00  0.00    +0.016 C 
ATOM     23  C   UNL     1      33.150  -9.109 -23.506  0.00  0.00    +0.122 C 
ATOM     24  C   UNL     1      31.974  -9.576 -22.918  0.00  0.00    +0.021 C 
ATOM     25  C   UNL     1      34.261  -9.945 -23.602  0.00  0.00    +0.021 C 
BRANCH  23  26
ATOM     26  S   UNL     1      33.229  -7.476 -24.119  0.00  0.00    +0.057 S 
ATOM     27  O   UNL     1      34.454  -7.335 -24.894  0.00  0.00    -0.153 OA
ATOM     28  O   UNL     1      31.947  -7.147 -24.726  0.00  0.00    -0.153 OA
BRANCH  26  29
ATOM     29  N   UNL     1      33.392  -6.590 -22.666  0.00  0.00    -0.203 NA
ATOM     30  H   UNL     1      33.943  -5.751 -22.840  0.00  0.00    +0.144 HD
ATOM     31  H   UNL     1      33.861  -7.167 -21.967  0.00  0.00    +0.144 HD
ENDBRANCH  26  29
ENDBRANCH  23  26
ENDBRANCH  18  20
ENDBRANCH   8  18
TORSDOF 5
ENDMDL
MODEL 4
REMARK VINA RESULT:      -9.3     10.691     15.214
REMARK  Name = 23586146
REMARK  5 active torsions:
REMARK  status: ('A' for Active; 'I' for Inactive)
REMARK    1  A    between atoms: N_1  and  C_12
REMARK    2  A    between atoms: C_8  and  N_18
REMARK    3  A    between atoms: N_18  and  C_20
REMARK    4  A    between atoms: C_23  and  S_26
REMARK    5  A    between atoms: S_26  and  N_29
REMARK                            x       y       z     vdW  Elec       q    Type
REMARK                         _______ _______ _______ _____ _____    ______ ____
ROOT
ATOM      1  N   UNL     1      33.599  -7.834 -23.649  0.00  0.00    -0.309 N 
ATOM      2  N   UNL     1      32.897  -7.970 -21.468  0.00  0.00    -0.321 NA
ATOM      3  N   UNL     1      31.947 -10.032 -20.683  0.00  0.00    -0.106 N 
ATOM      4  N   UNL     1      31.428 -10.532 -19.529  0.00  0.00    -0.139 NA
ATOM      5  N   UNL     1      32.081  -8.372 -19.222  0.00  0.00    -0.145 NA
ATOM      6  C   UNL     1      33.055  -8.536 -22.642  0.00  0.00    +0.196 C 
ATOM      7  C   UNL     1      32.647  -9.957 -22.924  0.00  0.00    +0.081 C 
ATOM      8  C   UNL     1      32.102 -10.661 -21.921  0.00  0.00    +0.140 C 
ATOM      9  C   UNL     1      32.341  -8.709 -20.471  0.00  0.00    +0.176 C 
ATOM     10  C   UNL     1      31.535  -9.499 -18.699  0.00  0.00    +0.230 C 
ATOM     11  H   UNL     1      33.696  -8.268 -24.527  0.00  0.00    +0.149 HD
ENDROOT
BRANCH   1  12
ATOM     12  C   UNL     1      34.052  -6.464 -23.498  0.00  0.00    +0.071 C 
ATOM     13  C   UNL     1      35.333  -6.240 -24.309  0.00  0.00    +0.020 C 
ATOM     14  C   UNL     1      32.944  -5.495 -23.921  0.00  0.00    +0.020 C 
ATOM     15  C   UNL     1      35.085  -6.234 -25.818  0.00  0.00    +0.002 C 
ATOM     16  C   UNL     1      32.704  -5.491 -25.431  0.00  0.00    +0.002 C 
ATOM     17  C   UNL     1      33.995  -5.241 -26.205  0.00  0.00    +0.000 C 
ENDBRANCH   1  12
BRANCH   8  18
ATOM     18  N   UNL     1      31.685 -11.957 -22.030  0.00  0.00    -0.299 N 
ATOM     19  H   UNL     1      30.760 -12.135 -21.747  0.00  0.00    +0.153 HD
BRANCH  18  20
ATOM     20  C   UNL     1      32.406 -13.063 -22.493  0.00  0.00    +0.049 C 
ATOM     21  C   UNL     1      33.119 -13.858 -21.595  0.00  0.00    +0.016 C 
ATOM     22  C   UNL     1      32.412 -13.372 -23.853  0.00  0.00    +0.016 C 
ATOM     23  C   UNL     1      33.842 -15.269 -23.417  0.00  0.00    +0.122 C 
ATOM     24  C   UNL     1      33.837 -14.961 -22.057  0.00  0.00    +0.021 C 
ATOM     25  C   UNL     1      33.130 -14.475 -24.315  0.00  0.00    +0.021 C 
BRANCH  23  26
ATOM     26  S   UNL     1      34.741 -16.650 -23.995  0.00  0.00    +0.057 S 
ATOM     27  O   UNL     1      33.867 -17.814 -23.961  0.00  0.00    -0.153 OA
ATOM     28  O   UNL     1      35.409 -16.283 -25.236  0.00  0.00    -0.153 OA
BRANCH  26  29
ATOM     29  N   UNL     1      35.918 -16.810 -22.765  0.00  0.00    -0.203 NA
ATOM     30  H   UNL     1      36.196 -17.787 -22.686  0.00  0.00    +0.144 HD
ATOM     31  H   UNL     1      35.527 -16.494 -21.877  0.00  0.00    +0.144 HD
ENDBRANCH  26  29
ENDBRANCH  23  26
ENDBRANCH  18  20
ENDBRANCH   8  18
TORSDOF 5
ENDMDL
