MODEL 1
REMARK VINA RESULT:     -11.8      0.000      0.000
REMARK  Name = 24779674
REMARK  2 active torsions:
REMARK  status: ('A' for Active; 'I' for Inactive)
REMARK    1  A    between atoms: N_2  and  C_14
REMARK    2  A    between atoms: N_5  and  C_20
REMARK                            x       y       z     vdW  Elec       q    Type
REMARK                         _______ _______ _______ _____ _____    ______ ____
ROOT
ATOM      1  N   UNL     1      35.023 -23.534 -14.844  0.00  0.00    -0.124 N 
ATOM      2  N   UNL     1      32.793 -24.134 -14.346  0.00  0.00    -0.274 N 
ATOM      3  N   UNL     1      33.436 -23.333 -16.482  0.00  0.00    -0.295 NA
ATOM      4  N   UNL     1      35.701 -22.735 -16.950  0.00  0.00    -0.315 NA
ATOM      5  N   UNL     1      34.089 -22.533 -18.607  0.00  0.00    -0.238 N 
ATOM      6  N   UNL     1      35.449 -23.840 -13.606  0.00  0.00    -0.171 NA
ATOM      7  C   UNL     1      33.706 -23.666 -15.254  0.00  0.00    +0.279 C 
ATOM      8  C   UNL     1      36.002 -23.076 -15.677  0.00  0.00    +0.206 C 
ATOM      9  C   UNL     1      34.447 -22.868 -17.321  0.00  0.00    +0.207 C 
ATOM     10  C   UNL     1      37.156 -23.085 -14.927  0.00  0.00    +0.127 C 
ATOM     11  C   UNL     1      36.755 -23.564 -13.663  0.00  0.00    +0.101 C 
ATOM     12  H   UNL     1      33.136 -24.348 -13.449  0.00  0.00    +0.156 HD
ATOM     13  H   UNL     1      33.334 -23.030 -18.998  0.00  0.00    +0.166 HD
ENDROOT
BRANCH   2  14
ATOM     14  C   UNL     1      31.429 -24.339 -14.558  0.00  0.00    +0.051 C 
ATOM     15  C   UNL     1      30.829 -25.526 -14.136  0.00  0.00    +0.015 C 
ATOM     16  C   UNL     1      30.666 -23.358 -15.191  0.00  0.00    +0.015 C 
ATOM     17  C   UNL     1      29.466 -25.732 -14.348  0.00  0.00    +0.001 C 
ATOM     18  C   UNL     1      29.303 -23.564 -15.403  0.00  0.00    +0.001 C 
ATOM     19  C   UNL     1      28.703 -24.751 -14.981  0.00  0.00    +0.000 C 
ENDBRANCH   2  14
BRANCH   5  20
ATOM     20  C   UNL     1      34.683 -21.565 -19.411  0.00  0.00    +0.058 C 
ATOM     21  C   UNL     1      36.071 -21.424 -19.422  0.00  0.00    +0.015 C 
ATOM     22  C   UNL     1      33.891 -20.737 -20.206  0.00  0.00    +0.015 C 
ATOM     23  C   UNL     1      36.667 -20.453 -20.228  0.00  0.00    +0.001 C 
ATOM     24  C   UNL     1      34.487 -19.767 -21.011  0.00  0.00    +0.001 C 
ATOM     25  C   UNL     1      35.875 -19.625 -21.022  0.00  0.00    +0.000 C 
ENDBRANCH   5  20
TORSDOF 2
ENDMDL
MODEL 2
REMARK VINA RESULT:     -11.1      1.517      6.476
REMARK  Name = 24779674
REMARK  2 active torsions:
REMARK  status: ('A' for Active; 'I' for Inactive)
REMARK    1  A    between atoms: N_2  and  C_14
REMARK    2  A    between atoms: N_5  and  C_20
REMARK                            x       y       z     vdW  Elec       q    Type
REMARK                         _______ _______ _______ _____ _____    ______ ____
ROOT
ATOM      1  N   UNL     1      35.266 -22.843 -17.073  0.00  0.00    -0.124 N 
ATOM      2  N   UNL     1      36.746 -23.303 -15.291  0.00  0.00    -0.274 N 
ATOM      3  N   UNL     1      34.450 -23.883 -15.204  0.00  0.00    -0.295 NA
ATOM      4  N   UNL     1      32.981 -23.402 -17.026  0.00  0.00    -0.315 NA
ATOM      5  N   UNL     1      32.159 -24.456 -15.129  0.00  0.00    -0.238 N 
ATOM      6  N   UNL     1      36.234 -22.278 -17.816  0.00  0.00    -0.171 NA
ATOM      7  C   UNL     1      35.479 -23.367 -15.808  0.00  0.00    +0.279 C 
ATOM      8  C   UNL     1      34.039 -22.860 -17.671  0.00  0.00    +0.206 C 
ATOM      9  C   UNL     1      33.203 -23.894 -15.827  0.00  0.00    +0.207 C 
ATOM     10  C   UNL     1      34.219 -22.263 -18.897  0.00  0.00    +0.127 C 
ATOM     11  C   UNL     1      35.587 -21.926 -18.931  0.00  0.00    +0.101 C 
ATOM     12  H   UNL     1      37.431 -22.884 -15.859  0.00  0.00    +0.156 HD
ATOM     13  H   UNL     1      32.387 -25.182 -14.503  0.00  0.00    +0.166 HD
ENDROOT
BRANCH   2  14
ATOM     14  C   UNL     1      37.168 -23.770 -14.046  0.00  0.00    +0.051 C 
ATOM     15  C   UNL     1      37.969 -24.909 -13.963  0.00  0.00    +0.015 C 
ATOM     16  C   UNL     1      36.788 -23.099 -12.884  0.00  0.00    +0.015 C 
ATOM     17  C   UNL     1      38.391 -25.377 -12.718  0.00  0.00    +0.001 C 
ATOM     18  C   UNL     1      37.210 -23.566 -11.639  0.00  0.00    +0.001 C 
ATOM     19  C   UNL     1      38.011 -24.705 -11.556  0.00  0.00    +0.000 C 
ENDBRANCH   2  14
BRANCH   5  20
ATOM     20  C   UNL     1      30.815 -24.105 -15.216  0.00  0.00    +0.058 C 
ATOM     21  C   UNL     1      30.392 -22.852 -14.774  0.00  0.00    +0.015 C 
ATOM     22  C   UNL     1      29.892 -25.007 -15.745  0.00  0.00    +0.015 C 
ATOM     23  C   UNL     1      29.044 -22.501 -14.861  0.00  0.00    +0.001 C 
ATOM     24  C   UNL     1      28.546 -24.656 -15.832  0.00  0.00    +0.001 C 
ATOM     25  C   UNL     1      28.121 -23.403 -15.389  0.00  0.00    +0.000 C 
ENDBRANCH   5  20
TORSDOF 2
ENDMDL
MODEL 3
REMARK VINA RESULT:     -10.8     10.944     15.036
REMARK  Name = 24779674
REMARK  2 active torsions:
REMARK  status: ('A' for Active; 'I' for Inactive)
REMARK    1  A    between atoms: N_2  and  C_14
REMARK    2  A    between atoms: N_5  and  C_20
REMARK                            x       y       z     vdW  Elec       q    Type
REMARK                         _______ _______ _______ _____ _____    ______ ____
ROOT
ATOM      1  N   UNL     1      32.101 -10.123 -21.294  0.00  0.00    -0.124 N 
ATOM      2  N   UNL     1      32.895  -8.252 -22.497  0.00  0.00    -0.274 N 
ATOM      3  N   UNL     1      33.120 -10.464 -23.316  0.00  0.00    -0.295 NA
ATOM      4  N   UNL     1      32.305 -12.334 -22.072  0.00  0.00    -0.315 NA
ATOM      5  N   UNL     1      33.339 -12.674 -24.122  0.00  0.00    -0.238 N 
ATOM      6  N   UNL     1      31.645  -9.362 -20.285  0.00  0.00    -0.171 NA
ATOM      7  C   UNL     1      32.730  -9.609 -22.417  0.00  0.00    +0.279 C 
ATOM      8  C   UNL     1      31.893 -11.461 -21.126  0.00  0.00    +0.206 C 
ATOM      9  C   UNL     1      32.899 -11.828 -23.130  0.00  0.00    +0.207 C 
ATOM     10  C   UNL     1      31.251 -11.583 -19.915  0.00  0.00    +0.127 C 
ATOM     11  C   UNL     1      31.126 -10.261 -19.443  0.00  0.00    +0.101 C 
ATOM     12  H   UNL     1      32.551  -7.723 -21.742  0.00  0.00    +0.156 HD
ATOM     13  H   UNL     1      33.349 -12.312 -25.038  0.00  0.00    +0.166 HD
ENDROOT
BRANCH   2  14
ATOM     14  C   UNL     1      33.497  -7.540 -23.535  0.00  0.00    +0.051 C 
ATOM     15  C   UNL     1      34.789  -7.036 -23.379  0.00  0.00    +0.015 C 
ATOM     16  C   UNL     1      32.808  -7.332 -24.730  0.00  0.00    +0.015 C 
ATOM     17  C   UNL     1      35.391  -6.325 -24.416  0.00  0.00    +0.001 C 
ATOM     18  C   UNL     1      33.409  -6.620 -25.767  0.00  0.00    +0.001 C 
ATOM     19  C   UNL     1      34.701  -6.117 -25.611  0.00  0.00    +0.000 C 
ENDBRANCH   2  14
BRANCH   5  20
ATOM     20  C   UNL     1      33.770 -13.988 -23.965  0.00  0.00    +0.058 C 
ATOM     21  C   UNL     1      33.477 -14.939 -24.942  0.00  0.00    +0.015 C 
ATOM     22  C   UNL     1      34.495 -14.352 -22.831  0.00  0.00    +0.015 C 
ATOM     23  C   UNL     1      33.909 -16.257 -24.784  0.00  0.00    +0.001 C 
ATOM     24  C   UNL     1      34.926 -15.669 -22.673  0.00  0.00    +0.001 C 
ATOM     25  C   UNL     1      34.633 -16.621 -23.650  0.00  0.00    +0.000 C 
ENDBRANCH   5  20
TORSDOF 2
ENDMDL
MODEL 4
REMARK VINA RESULT:     -10.8     10.960     15.051
REMARK  Name = 24779674
REMARK  2 active torsions:
REMARK  status: ('A' for Active; 'I' for Inactive)
REMARK    1  A    between atoms: N_2  and  C_14
REMARK    2  A    between atoms: N_5  and  C_20
REMARK                            x       y       z     vdW  Elec       q    Type
REMARK                         _______ _______ _______ _____ _____    ______ ____
ROOT
ATOM      1  N   UNL     1      32.109 -10.099 -21.332  0.00  0.00    -0.124 N 
ATOM      2  N   UNL     1      32.916  -8.235 -22.537  0.00  0.00    -0.274 N 
ATOM      3  N   UNL     1      33.132 -10.450 -23.349  0.00  0.00    -0.295 NA
ATOM      4  N   UNL     1      32.304 -12.313 -22.103  0.00  0.00    -0.315 NA
ATOM      5  N   UNL     1      33.343 -12.664 -24.149  0.00  0.00    -0.238 N 
ATOM      6  N   UNL     1      31.654  -9.332 -20.326  0.00  0.00    -0.171 NA
ATOM      7  C   UNL     1      32.744  -9.591 -22.454  0.00  0.00    +0.279 C 
ATOM      8  C   UNL     1      31.893 -11.435 -21.160  0.00  0.00    +0.206 C 
ATOM      9  C   UNL     1      32.904 -11.812 -23.160  0.00  0.00    +0.207 C 
ATOM     10  C   UNL     1      31.248 -11.551 -19.950  0.00  0.00    +0.127 C 
ATOM     11  C   UNL     1      31.127 -10.226 -19.483  0.00  0.00    +0.101 C 
ATOM     12  H   UNL     1      32.572  -7.702 -21.785  0.00  0.00    +0.156 HD
ATOM     13  H   UNL     1      33.357 -12.304 -25.066  0.00  0.00    +0.166 HD
ENDROOT
BRANCH   2  14
ATOM     14  C   UNL     1      33.524  -7.529 -23.576  0.00  0.00    +0.051 C 
ATOM     15  C   UNL     1      32.840  -7.321 -24.773  0.00  0.00    +0.015 C 
ATOM     16  C   UNL     1      34.817  -7.030 -23.416  0.00  0.00    +0.015 C 
ATOM     17  C   UNL     1      33.448  -6.616 -25.812  0.00  0.00    +0.001 C 
ATOM     18  C   UNL     1      35.425  -6.325 -24.454  0.00  0.00    +0.001 C 
ATOM     19  C   UNL     1      34.741  -6.117 -25.652  0.00  0.00    +0.000 C 
ENDBRANCH   2  14
BRANCH   5  20
ATOM     20  C   UNL     1      33.766 -13.979 -23.986  0.00  0.00    +0.058 C 
ATOM     21  C   UNL     1      34.479 -14.346 -22.845  0.00  0.00    +0.015 C 
ATOM     22  C   UNL     1      33.478 -14.930 -24.966  0.00  0.00    +0.015 C 
ATOM     23  C   UNL     1      34.904 -15.666 -22.683  0.00  0.00    +0.001 C 
ATOM     24  C   UNL     1      33.904 -16.248 -24.803  0.00  0.00    +0.001 C 
ATOM     25  C   UNL     1      34.617 -16.616 -23.662  0.00  0.00    +0.000 C 
ENDBRANCH   5  20
TORSDOF 2
ENDMDL
MODEL 5
REMARK VINA RESULT:     -10.4      1.568      5.146
REMARK  Name = 24779674
REMARK  2 active torsions:
REMARK  status: ('A' for Active; 'I' for Inactive)
REMARK    1  A    between atoms: N_2  and  C_14
REMARK    2  A    between atoms: N_5  and  C_20
REMARK                            x       y       z     vdW  Elec       q    Type
REMARK                         _______ _______ _______ _____ _____    ______ ____
ROOT
ATOM      1  N   UNL     1      34.020 -22.648 -17.602  0.00  0.00    -0.124 N 
ATOM      2  N   UNL     1      31.778 -23.137 -17.045  0.00  0.00    -0.274 N 
ATOM      3  N   UNL     1      33.578 -23.647 -15.591  0.00  0.00    -0.295 NA
ATOM      4  N   UNL     1      35.835 -23.138 -16.187  0.00  0.00    -0.315 NA
ATOM      5  N   UNL     1      35.381 -24.152 -14.149  0.00  0.00    -0.238 N 
ATOM      6  N   UNL     1      33.677 -22.118 -18.789  0.00  0.00    -0.171 NA
ATOM      7  C   UNL     1      33.103 -23.167 -16.702  0.00  0.00    +0.279 C 
ATOM      8  C   UNL     1      35.361 -22.634 -17.349  0.00  0.00    +0.206 C 
ATOM      9  C   UNL     1      34.950 -23.626 -15.345  0.00  0.00    +0.207 C 
ATOM     10  C   UNL     1      35.938 -22.050 -18.453  0.00  0.00    +0.127 C 
ATOM     11  C   UNL     1      34.855 -21.754 -19.305  0.00  0.00    +0.101 C 
ATOM     12  H   UNL     1      31.559 -22.743 -17.920  0.00  0.00    +0.156 HD
ATOM     13  H   UNL     1      34.758 -24.085 -13.389  0.00  0.00    +0.166 HD
ENDROOT
BRANCH   2  14
ATOM     14  C   UNL     1      30.704 -23.604 -16.285  0.00  0.00    +0.051 C 
ATOM     15  C   UNL     1      30.854 -24.742 -15.492  0.00  0.00    +0.015 C 
ATOM     16  C   UNL     1      29.482 -22.933 -16.318  0.00  0.00    +0.015 C 
ATOM     17  C   UNL     1      29.782 -25.209 -14.733  0.00  0.00    +0.001 C 
ATOM     18  C   UNL     1      28.410 -23.400 -15.558  0.00  0.00    +0.001 C 
ATOM     19  C   UNL     1      28.559 -24.538 -14.765  0.00  0.00    +0.000 C 
ENDBRANCH   2  14
BRANCH   5  20
ATOM     20  C   UNL     1      36.604 -24.767 -13.903  0.00  0.00    +0.058 C 
ATOM     21  C   UNL     1      37.481 -24.225 -12.963  0.00  0.00    +0.015 C 
ATOM     22  C   UNL     1      36.954 -25.926 -14.596  0.00  0.00    +0.015 C 
ATOM     23  C   UNL     1      38.708 -24.842 -12.717  0.00  0.00    +0.001 C 
ATOM     24  C   UNL     1      38.180 -26.542 -14.350  0.00  0.00    +0.001 C 
ATOM     25  C   UNL     1      39.057 -26.000 -13.410  0.00  0.00    +0.000 C 
ENDBRANCH   5  20
TORSDOF 2
ENDMDL
MODEL 6
REMARK VINA RESULT:      -9.9      1.051      6.579
REMARK  Name = 24779674
REMARK  2 active torsions:
REMARK  status: ('A' for Active; 'I' for Inactive)
REMARK    1  A    between atoms: N_2  and  C_14
REMARK    2  A    between atoms: N_5  and  C_20
REMARK                            x       y       z     vdW  Elec       q    Type
REMARK                         _______ _______ _______ _____ _____    ______ ____
ROOT
ATOM      1  N   UNL     1      35.881 -23.648 -15.591  0.00  0.00    -0.124 N 
ATOM      2  N   UNL     1      36.179 -22.404 -17.576  0.00  0.00    -0.274 N 
ATOM      3  N   UNL     1      34.039 -22.766 -16.626  0.00  0.00    -0.295 NA
ATOM      4  N   UNL     1      33.774 -24.030 -14.616  0.00  0.00    -0.315 NA
ATOM      5  N   UNL     1      31.910 -23.134 -15.670  0.00  0.00    -0.238 N 
ATOM      6  N   UNL     1      37.198 -23.883 -15.464  0.00  0.00    -0.171 NA
ATOM      7  C   UNL     1      35.331 -22.914 -16.630  0.00  0.00    +0.279 C 
ATOM      8  C   UNL     1      35.115 -24.196 -14.603  0.00  0.00    +0.206 C 
ATOM      9  C   UNL     1      33.271 -23.330 -15.609  0.00  0.00    +0.207 C 
ATOM     10  C   UNL     1      36.000 -24.836 -13.766  0.00  0.00    +0.127 C 
ATOM     11  C   UNL     1      37.265 -24.611 -14.345  0.00  0.00    +0.101 C 
ATOM     12  H   UNL     1      37.137 -22.593 -17.455  0.00  0.00    +0.156 HD
ATOM     13  H   UNL     1      31.604 -22.298 -16.093  0.00  0.00    +0.166 HD
ENDROOT
BRANCH   2  14
ATOM     14  C   UNL     1      35.830 -21.642 -18.692  0.00  0.00    +0.051 C 
ATOM     15  C   UNL     1      36.790 -20.852 -19.326  0.00  0.00    +0.015 C 
ATOM     16  C   UNL     1      34.522 -21.671 -19.175  0.00  0.00    +0.015 C 
ATOM     17  C   UNL     1      36.442 -20.091 -20.441  0.00  0.00    +0.001 C 
ATOM     18  C   UNL     1      34.173 -20.910 -20.290  0.00  0.00    +0.001 C 
ATOM     19  C   UNL     1      35.133 -20.120 -20.924  0.00  0.00    +0.000 C 
ENDBRANCH   2  14
BRANCH   5  20
ATOM     20  C   UNL     1      30.923 -23.992 -15.195  0.00  0.00    +0.058 C 
ATOM     21  C   UNL     1      31.200 -24.854 -14.134  0.00  0.00    +0.015 C 
ATOM     22  C   UNL     1      29.657 -23.990 -15.780  0.00  0.00    +0.015 C 
ATOM     23  C   UNL     1      30.210 -25.715 -13.658  0.00  0.00    +0.001 C 
ATOM     24  C   UNL     1      28.668 -24.851 -15.305  0.00  0.00    +0.001 C 
ATOM     25  C   UNL     1      28.945 -25.713 -14.244  0.00  0.00    +0.000 C 
ENDBRANCH   5  20
TORSDOF 2
ENDMDL
MODEL 7
REMARK VINA RESULT:      -9.1     11.191     14.631
REMARK  Name = 24779674
REMARK  2 active torsions:
REMARK  status: ('A' for Active; 'I' for Inactive)
REMARK    1  A    between atoms: N_2  and  C_14
REMARK    2  A    between atoms: N_5  and  C_20
REMARK                            x       y       z     vdW  Elec       q    Type
REMARK                         _______ _______ _______ _____ _____    ______ ____
ROOT
ATOM      1  N   UNL     1      32.097 -10.847 -21.127  0.00  0.00    -0.124 N 
ATOM      2  N   UNL     1      32.604 -12.939 -22.098  0.00  0.00    -0.274 N 
ATOM      3  N   UNL     1      33.405 -10.902 -23.005  0.00  0.00    -0.295 NA
ATOM      4  N   UNL     1      32.871  -8.802 -21.997  0.00  0.00    -0.315 NA
ATOM      5  N   UNL     1      34.196  -8.864 -23.902  0.00  0.00    -0.238 N 
ATOM      6  N   UNL     1      31.367 -11.406 -20.147  0.00  0.00    -0.171 NA
ATOM      7  C   UNL     1      32.731 -11.576 -22.120  0.00  0.00    +0.279 C 
ATOM      8  C   UNL     1      32.166  -9.485 -21.067  0.00  0.00    +0.206 C 
ATOM      9  C   UNL     1      33.467  -9.511 -22.931  0.00  0.00    +0.207 C 
ATOM     10  C   UNL     1      31.426  -9.128 -19.963  0.00  0.00    +0.127 C 
ATOM     11  C   UNL     1      30.960 -10.349 -19.437  0.00  0.00    +0.101 C 
ATOM     12  H   UNL     1      32.064 -13.318 -21.368  0.00  0.00    +0.156 HD
ATOM     13  H   UNL     1      34.960  -9.357 -24.281  0.00  0.00    +0.166 HD
ENDROOT
BRANCH   2  14
ATOM     14  C   UNL     1      33.161 -13.848 -22.998  0.00  0.00    +0.051 C 
ATOM     15  C   UNL     1      34.074 -14.803 -22.551  0.00  0.00    +0.015 C 
ATOM     16  C   UNL     1      32.804 -13.802 -24.346  0.00  0.00    +0.015 C 
ATOM     17  C   UNL     1      34.631 -15.712 -23.451  0.00  0.00    +0.001 C 
ATOM     18  C   UNL     1      33.360 -14.711 -25.246  0.00  0.00    +0.001 C 
ATOM     19  C   UNL     1      34.274 -15.666 -24.799  0.00  0.00    +0.000 C 
ENDBRANCH   2  14
BRANCH   5  20
ATOM     20  C   UNL     1      33.967  -7.586 -24.402  0.00  0.00    +0.058 C 
ATOM     21  C   UNL     1      35.030  -6.696 -24.554  0.00  0.00    +0.015 C 
ATOM     22  C   UNL     1      32.674  -7.195 -24.751  0.00  0.00    +0.015 C 
ATOM     23  C   UNL     1      34.800  -5.414 -25.055  0.00  0.00    +0.001 C 
ATOM     24  C   UNL     1      32.444  -5.914 -25.251  0.00  0.00    +0.001 C 
ATOM     25  C   UNL     1      33.507  -5.023 -25.403  0.00  0.00    +0.000 C 
ENDBRANCH   5  20
TORSDOF 2
ENDMDL
MODEL 8
REMARK VINA RESULT:      -8.9     11.298     14.767
REMARK  Name = 24779674
REMARK  2 active torsions:
REMARK  status: ('A' for Active; 'I' for Inactive)
REMARK    1  A    between atoms: N_2  and  C_14
REMARK    2  A    between atoms: N_5  and  C_20
REMARK                            x       y       z     vdW  Elec       q    Type
REMARK                         _______ _______ _______ _____ _____    ______ ____
ROOT
ATOM      1  N   UNL     1      32.190 -10.840 -20.984  0.00  0.00    -0.124 N 
ATOM      2  N   UNL     1      32.637 -12.885 -22.079  0.00  0.00    -0.274 N 
ATOM      3  N   UNL     1      33.234 -10.793 -23.020  0.00  0.00    -0.295 NA
ATOM      4  N   UNL     1      32.765  -8.744 -21.884  0.00  0.00    -0.315 NA
ATOM      5  N   UNL     1      33.824  -8.702 -23.950  0.00  0.00    -0.238 N 
ATOM      6  N   UNL     1      31.619 -11.455 -19.933  0.00  0.00    -0.171 NA
ATOM      7  C   UNL     1      32.711 -11.517 -22.075  0.00  0.00    +0.279 C 
ATOM      8  C   UNL     1      32.217  -9.479 -20.891  0.00  0.00    +0.206 C 
ATOM      9  C   UNL     1      33.255  -9.404 -22.911  0.00  0.00    +0.207 C 
ATOM     10  C   UNL     1      31.619  -9.181 -19.688  0.00  0.00    +0.127 C 
ATOM     11  C   UNL     1      31.272 -10.434 -19.143  0.00  0.00    +0.101 C 
ATOM     12  H   UNL     1      32.214 -13.304 -21.296  0.00  0.00    +0.156 HD
ATOM     13  H   UNL     1      34.547  -9.154 -24.443  0.00  0.00    +0.166 HD
ENDROOT
BRANCH   2  14
ATOM     14  C   UNL     1      33.100 -13.746 -23.074  0.00  0.00    +0.051 C 
ATOM     15  C   UNL     1      32.778 -13.506 -24.411  0.00  0.00    +0.015 C 
ATOM     16  C   UNL     1      33.886 -14.848 -22.734  0.00  0.00    +0.015 C 
ATOM     17  C   UNL     1      33.241 -14.367 -25.405  0.00  0.00    +0.001 C 
ATOM     18  C   UNL     1      34.348 -15.709 -23.729  0.00  0.00    +0.001 C 
ATOM     19  C   UNL     1      34.026 -15.468 -25.065  0.00  0.00    +0.000 C 
ENDBRANCH   2  14
BRANCH   5  20
ATOM     20  C   UNL     1      33.483  -7.422 -24.374  0.00  0.00    +0.058 C 
ATOM     21  C   UNL     1      32.147  -7.096 -24.604  0.00  0.00    +0.015 C 
ATOM     22  C   UNL     1      34.479  -6.464 -24.569  0.00  0.00    +0.015 C 
ATOM     23  C   UNL     1      31.805  -5.812 -25.031  0.00  0.00    +0.001 C 
ATOM     24  C   UNL     1      34.137  -5.181 -24.995  0.00  0.00    +0.001 C 
ATOM     25  C   UNL     1      32.800  -4.855 -25.226  0.00  0.00    +0.000 C 
ENDBRANCH   5  20
TORSDOF 2
ENDMDL
