MODEL 1
REMARK VINA RESULT:     -11.6      0.000      0.000
REMARK  Name = 456199
REMARK  5 active torsions:
REMARK  status: ('A' for Active; 'I' for Inactive)
REMARK    1  A    between atoms: O_1  and  C_5
REMARK    2  A    between atoms: O_1  and  C_14
REMARK    3  A    between atoms: C_14  and  C_15
REMARK    4  A    between atoms: C_20  and  O_21
REMARK    5  A    between atoms: O_21  and  C_25
REMARK                            x       y       z     vdW  Elec       q    Type
REMARK                         _______ _______ _______ _____ _____    ______ ____
ROOT
ATOM      1  O   UNL     1      33.102 -22.937 -17.175  0.00  0.00    -0.346 OA
ENDROOT
BRANCH   1   5
ATOM      2  O   UNL     1      32.424 -24.475 -13.894  0.00  0.00    -0.438 OA
ATOM      3  N   UNL     1      34.707 -23.802 -14.007  0.00  0.00    -0.242 N 
ATOM      4  N   UNL     1      33.978 -24.807 -12.169  0.00  0.00    -0.333 NA
ATOM      5  C   UNL     1      33.383 -23.750 -16.046  0.00  0.00    +0.179 C 
ATOM      6  C   UNL     1      34.645 -23.260 -15.344  0.00  0.00    +0.130 C 
ATOM      7  C   UNL     1      32.202 -23.696 -15.077  0.00  0.00    +0.241 C 
ATOM      8  C   UNL     1      33.639 -24.359 -13.358  0.00  0.00    +0.345 C 
ATOM      9  C   UNL     1      35.789 -23.876 -13.185  0.00  0.00    +0.181 C 
ATOM     10  C   UNL     1      35.315 -24.500 -12.052  0.00  0.00    +0.274 C 
ATOM     11  O   UNL     1      37.230 -24.533 -10.777  0.00  0.00    -0.124 OA
ATOM     12  O   UNL     1      35.395 -25.402  -9.936  0.00  0.00    -0.124 OA
ATOM     13  N   UNL     1      36.006 -24.824 -10.878  0.00  0.00    +0.085 N 
ENDBRANCH   1   5
BRANCH   1  14
ATOM     14  C   UNL     1      33.888 -23.319 -18.294  0.00  0.00    +0.169 C 
BRANCH  14  15
ATOM     15  C   UNL     1      34.159 -22.107 -19.137  0.00  0.00    +0.007 C 
ATOM     16  C   UNL     1      35.471 -21.709 -19.367  0.00  0.00    +0.001 C 
ATOM     17  C   UNL     1      33.096 -21.394 -19.679  0.00  0.00    +0.001 C 
ATOM     18  C   UNL     1      35.723 -20.582 -20.151  0.00  0.00    +0.037 C 
ATOM     19  C   UNL     1      33.348 -20.268 -20.463  0.00  0.00    +0.037 C 
ATOM     20  C   UNL     1      34.661 -19.862 -20.699  0.00  0.00    +0.147 C 
BRANCH  20  21
ATOM     21  O   UNL     1      34.908 -18.763 -21.463  0.00  0.00    -0.404 OA
BRANCH  21  25
ATOM     22  F   UNL     1      35.018 -20.128 -23.294  0.00  0.00    -0.133 F 
ATOM     23  F   UNL     1      36.785 -18.990 -22.697  0.00  0.00    -0.133 F 
ATOM     24  F   UNL     1      35.089 -17.940 -23.589  0.00  0.00    -0.133 F 
ATOM     25  C   UNL     1      35.435 -18.957 -22.770  0.00  0.00    +0.575 C 
ENDBRANCH  21  25
ENDBRANCH  20  21
ENDBRANCH  14  15
ENDBRANCH   1  14
TORSDOF 5
ENDMDL
MODEL 2
REMARK VINA RESULT:     -11.3      1.475      2.291
REMARK  Name = 456199
REMARK  5 active torsions:
REMARK  status: ('A' for Active; 'I' for Inactive)
REMARK    1  A    between atoms: O_1  and  C_5
REMARK    2  A    between atoms: O_1  and  C_14
REMARK    3  A    between atoms: C_14  and  C_15
REMARK    4  A    between atoms: C_20  and  O_21
REMARK    5  A    between atoms: O_21  and  C_25
REMARK                            x       y       z     vdW  Elec       q    Type
REMARK                         _______ _______ _______ _____ _____    ______ ____
ROOT
ATOM      1  O   UNL     1      34.589 -23.555 -17.289  0.00  0.00    -0.346 OA
ENDROOT
BRANCH   1   5
ATOM      2  O   UNL     1      36.741 -22.613 -14.448  0.00  0.00    -0.438 OA
ATOM      3  N   UNL     1      35.139 -24.229 -13.739  0.00  0.00    -0.242 N 
ATOM      4  N   UNL     1      36.569 -23.416 -12.251  0.00  0.00    -0.333 NA
ATOM      5  C   UNL     1      34.876 -23.225 -15.939  0.00  0.00    +0.179 C 
ATOM      6  C   UNL     1      34.493 -24.382 -15.021  0.00  0.00    +0.130 C 
ATOM      7  C   UNL     1      36.369 -22.928 -15.796  0.00  0.00    +0.241 C 
ATOM      8  C   UNL     1      36.198 -23.391 -13.512  0.00  0.00    +0.345 C 
ATOM      9  C   UNL     1      34.824 -24.842 -12.566  0.00  0.00    +0.181 C 
ATOM     10  C   UNL     1      35.723 -24.325 -11.659  0.00  0.00    +0.274 C 
ATOM     11  O   UNL     1      35.078 -25.458  -9.761  0.00  0.00    -0.124 OA
ATOM     12  O   UNL     1      36.748 -24.036  -9.618  0.00  0.00    -0.124 OA
ATOM     13  N   UNL     1      35.854 -24.617 -10.295  0.00  0.00    +0.085 N 
ENDBRANCH   1   5
BRANCH   1  14
ATOM     14  C   UNL     1      33.451 -22.849 -17.762  0.00  0.00    +0.169 C 
BRANCH  14  15
ATOM     15  C   UNL     1      33.870 -21.936 -18.876  0.00  0.00    +0.007 C 
ATOM     16  C   UNL     1      32.911 -21.199 -19.559  0.00  0.00    +0.001 C 
ATOM     17  C   UNL     1      35.215 -21.836 -19.215  0.00  0.00    +0.001 C 
ATOM     18  C   UNL     1      33.300 -20.349 -20.595  0.00  0.00    +0.037 C 
ATOM     19  C   UNL     1      35.606 -20.987 -20.251  0.00  0.00    +0.037 C 
ATOM     20  C   UNL     1      34.648 -20.243 -20.940  0.00  0.00    +0.147 C 
BRANCH  20  21
ATOM     21  O   UNL     1      35.028 -19.415 -21.951  0.00  0.00    -0.404 OA
BRANCH  21  25
ATOM     22  F   UNL     1      35.318 -17.664 -20.510  0.00  0.00    -0.133 F 
ATOM     23  F   UNL     1      35.700 -17.373 -22.642  0.00  0.00    -0.133 F 
ATOM     24  F   UNL     1      37.096 -18.570 -21.459  0.00  0.00    -0.133 F 
ATOM     25  C   UNL     1      35.791 -18.260 -21.624  0.00  0.00    +0.575 C 
ENDBRANCH  21  25
ENDBRANCH  20  21
ENDBRANCH  14  15
ENDBRANCH   1  14
TORSDOF 5
ENDMDL
MODEL 3
REMARK VINA RESULT:     -10.7      5.566      6.981
REMARK  Name = 456199
REMARK  5 active torsions:
REMARK  status: ('A' for Active; 'I' for Inactive)
REMARK    1  A    between atoms: O_1  and  C_5
REMARK    2  A    between atoms: O_1  and  C_14
REMARK    3  A    between atoms: C_14  and  C_15
REMARK    4  A    between atoms: C_20  and  O_21
REMARK    5  A    between atoms: O_21  and  C_25
REMARK                            x       y       z     vdW  Elec       q    Type
REMARK                         _______ _______ _______ _____ _____    ______ ____
ROOT
ATOM      1  O   UNL     1      33.611 -24.366 -12.818  0.00  0.00    -0.346 OA
ENDROOT
BRANCH   1   5
ATOM      2  O   UNL     1      36.718 -25.798 -11.445  0.00  0.00    -0.438 OA
ATOM      3  N   UNL     1      37.013 -25.318 -13.761  0.00  0.00    -0.242 N 
ATOM      4  N   UNL     1      38.690 -26.234 -12.638  0.00  0.00    -0.333 NA
ATOM      5  C   UNL     1      34.771 -25.184 -12.826  0.00  0.00    +0.179 C 
ATOM      6  C   UNL     1      35.686 -24.790 -13.981  0.00  0.00    +0.130 C 
ATOM      7  C   UNL     1      35.516 -25.020 -11.501  0.00  0.00    +0.241 C 
ATOM      8  C   UNL     1      37.462 -25.776 -12.552  0.00  0.00    +0.345 C 
ATOM      9  C   UNL     1      38.013 -25.469 -14.671  0.00  0.00    +0.181 C 
ATOM     10  C   UNL     1      39.043 -26.037 -13.953  0.00  0.00    +0.274 C 
ATOM     11  O   UNL     1      40.637 -26.210 -15.604  0.00  0.00    -0.124 OA
ATOM     12  O   UNL     1      41.138 -26.913 -13.584  0.00  0.00    -0.124 OA
ATOM     13  N   UNL     1      40.320 -26.400 -14.398  0.00  0.00    +0.085 N 
ENDBRANCH   1   5
BRANCH   1  14
ATOM     14  C   UNL     1      32.430 -25.143 -12.947  0.00  0.00    +0.169 C 
BRANCH  14  15
ATOM     15  C   UNL     1      31.525 -24.495 -13.953  0.00  0.00    +0.007 C 
ATOM     16  C   UNL     1      30.148 -24.636 -13.832  0.00  0.00    +0.001 C 
ATOM     17  C   UNL     1      32.074 -23.759 -14.997  0.00  0.00    +0.001 C 
ATOM     18  C   UNL     1      29.307 -24.033 -14.767  0.00  0.00    +0.037 C 
ATOM     19  C   UNL     1      31.233 -23.155 -15.933  0.00  0.00    +0.037 C 
ATOM     20  C   UNL     1      29.850 -23.292 -15.818  0.00  0.00    +0.147 C 
BRANCH  20  21
ATOM     21  O   UNL     1      29.029 -22.704 -16.730  0.00  0.00    -0.404 OA
BRANCH  21  25
ATOM     22  F   UNL     1      27.124 -22.731 -17.995  0.00  0.00    -0.133 F 
ATOM     23  F   UNL     1      26.969 -22.863 -15.819  0.00  0.00    -0.133 F 
ATOM     24  F   UNL     1      27.731 -24.576 -16.942  0.00  0.00    -0.133 F 
ATOM     25  C   UNL     1      27.715 -23.226 -16.888  0.00  0.00    +0.575 C 
ENDBRANCH  21  25
ENDBRANCH  20  21
ENDBRANCH  14  15
ENDBRANCH   1  14
TORSDOF 5
ENDMDL
MODEL 4
REMARK VINA RESULT:     -10.5      6.214     10.894
REMARK  Name = 456199
REMARK  5 active torsions:
REMARK  status: ('A' for Active; 'I' for Inactive)
REMARK    1  A    between atoms: O_1  and  C_5
REMARK    2  A    between atoms: O_1  and  C_14
REMARK    3  A    between atoms: C_14  and  C_15
REMARK    4  A    between atoms: C_20  and  O_21
REMARK    5  A    between atoms: O_21  and  C_25
REMARK                            x       y       z     vdW  Elec       q    Type
REMARK                         _______ _______ _______ _____ _____    ______ ____
ROOT
ATOM      1  O   UNL     1      35.137 -20.027 -22.186  0.00  0.00    -0.346 OA
ENDROOT
BRANCH   1   5
ATOM      2  O   UNL     1      33.620 -18.282 -25.057  0.00  0.00    -0.438 OA
ATOM      3  N   UNL     1      34.458 -16.684 -23.500  0.00  0.00    -0.242 N 
ATOM      4  N   UNL     1      33.440 -15.960 -25.332  0.00  0.00    -0.333 NA
ATOM      5  C   UNL     1      34.370 -19.020 -22.828  0.00  0.00    +0.179 C 
ATOM      6  C   UNL     1      34.966 -17.644 -22.549  0.00  0.00    +0.130 C 
ATOM      7  C   UNL     1      34.356 -19.278 -24.335  0.00  0.00    +0.241 C 
ATOM      8  C   UNL     1      33.836 -17.024 -24.671  0.00  0.00    +0.345 C 
ATOM      9  C   UNL     1      34.480 -15.327 -23.410  0.00  0.00    +0.181 C 
ATOM     10  C   UNL     1      33.846 -14.899 -24.556  0.00  0.00    +0.274 C 
ATOM     11  O   UNL     1      33.981 -12.619 -24.264  0.00  0.00    -0.124 OA
ATOM     12  O   UNL     1      32.996 -13.390 -26.071  0.00  0.00    -0.124 OA
ATOM     13  N   UNL     1      33.599 -13.587 -24.979  0.00  0.00    +0.085 N 
ENDBRANCH   1   5
BRANCH   1  14
ATOM     14  C   UNL     1      35.485 -19.646 -20.864  0.00  0.00    +0.169 C 
BRANCH  14  15
ATOM     15  C   UNL     1      35.101 -20.748 -19.920  0.00  0.00    +0.007 C 
ATOM     16  C   UNL     1      36.086 -21.402 -19.189  0.00  0.00    +0.001 C 
ATOM     17  C   UNL     1      33.764 -21.104 -19.786  0.00  0.00    +0.001 C 
ATOM     18  C   UNL     1      35.729 -22.427 -18.312  0.00  0.00    +0.037 C 
ATOM     19  C   UNL     1      33.406 -22.129 -18.909  0.00  0.00    +0.037 C 
ATOM     20  C   UNL     1      34.389 -22.790 -18.172  0.00  0.00    +0.147 C 
BRANCH  20  21
ATOM     21  O   UNL     1      34.041 -23.790 -17.317  0.00  0.00    -0.404 OA
BRANCH  21  25
ATOM     22  F   UNL     1      34.665 -22.541 -15.505  0.00  0.00    -0.133 F 
ATOM     23  F   UNL     1      33.904 -24.567 -15.202  0.00  0.00    -0.133 F 
ATOM     24  F   UNL     1      32.522 -22.986 -15.808  0.00  0.00    -0.133 F 
ATOM     25  C   UNL     1      33.780 -23.453 -15.959  0.00  0.00    +0.575 C 
ENDBRANCH  21  25
ENDBRANCH  20  21
ENDBRANCH  14  15
ENDBRANCH   1  14
TORSDOF 5
ENDMDL
MODEL 5
REMARK VINA RESULT:     -10.4      6.167     10.842
REMARK  Name = 456199
REMARK  5 active torsions:
REMARK  status: ('A' for Active; 'I' for Inactive)
REMARK    1  A    between atoms: O_1  and  C_5
REMARK    2  A    between atoms: O_1  and  C_14
REMARK    3  A    between atoms: C_14  and  C_15
REMARK    4  A    between atoms: C_20  and  O_21
REMARK    5  A    between atoms: O_21  and  C_25
REMARK                            x       y       z     vdW  Elec       q    Type
REMARK                         _______ _______ _______ _____ _____    ______ ____
ROOT
ATOM      1  O   UNL     1      35.769 -18.959 -20.792  0.00  0.00    -0.346 OA
ENDROOT
BRANCH   1   5
ATOM      2  O   UNL     1      34.768 -15.431 -21.168  0.00  0.00    -0.438 OA
ATOM      3  N   UNL     1      34.602 -16.540 -23.272  0.00  0.00    -0.242 N 
ATOM      4  N   UNL     1      34.108 -14.381 -23.159  0.00  0.00    -0.333 NA
ATOM      5  C   UNL     1      35.702 -17.696 -21.437  0.00  0.00    +0.179 C 
ATOM      6  C   UNL     1      35.033 -17.835 -22.801  0.00  0.00    +0.130 C 
ATOM      7  C   UNL     1      34.902 -16.725 -20.568  0.00  0.00    +0.241 C 
ATOM      8  C   UNL     1      34.484 -15.436 -22.471  0.00  0.00    +0.345 C 
ATOM      9  C   UNL     1      34.264 -16.182 -24.540  0.00  0.00    +0.181 C 
ATOM     10  C   UNL     1      33.961 -14.842 -24.448  0.00  0.00    +0.274 C 
ATOM     11  O   UNL     1      33.403 -14.402 -26.637  0.00  0.00    -0.124 OA
ATOM     12  O   UNL     1      33.309 -12.759 -25.179  0.00  0.00    -0.124 OA
ATOM     13  N   UNL     1      33.543 -13.969 -25.460  0.00  0.00    +0.085 N 
ENDBRANCH   1   5
BRANCH   1  14
ATOM     14  C   UNL     1      34.607 -19.733 -21.052  0.00  0.00    +0.169 C 
BRANCH  14  15
ATOM     15  C   UNL     1      34.500 -20.816 -20.019  0.00  0.00    +0.007 C 
ATOM     16  C   UNL     1      33.247 -21.254 -19.608  0.00  0.00    +0.001 C 
ATOM     17  C   UNL     1      35.656 -21.371 -19.482  0.00  0.00    +0.001 C 
ATOM     18  C   UNL     1      33.147 -22.262 -18.648  0.00  0.00    +0.037 C 
ATOM     19  C   UNL     1      35.558 -22.378 -18.522  0.00  0.00    +0.037 C 
ATOM     20  C   UNL     1      34.303 -22.823 -18.105  0.00  0.00    +0.147 C 
BRANCH  20  21
ATOM     21  O   UNL     1      34.206 -23.806 -17.168  0.00  0.00    -0.404 OA
BRANCH  21  25
ATOM     22  F   UNL     1      34.985 -22.475 -15.479  0.00  0.00    -0.133 F 
ATOM     23  F   UNL     1      34.316 -24.505 -15.024  0.00  0.00    -0.133 F 
ATOM     24  F   UNL     1      32.834 -22.980 -15.534  0.00  0.00    -0.133 F 
ATOM     25  C   UNL     1      34.082 -23.424 -15.803  0.00  0.00    +0.575 C 
ENDBRANCH  21  25
ENDBRANCH  20  21
ENDBRANCH  14  15
ENDBRANCH   1  14
TORSDOF 5
ENDMDL
MODEL 6
REMARK VINA RESULT:     -10.2      2.718      4.050
REMARK  Name = 456199
REMARK  5 active torsions:
REMARK  status: ('A' for Active; 'I' for Inactive)
REMARK    1  A    between atoms: O_1  and  C_5
REMARK    2  A    between atoms: O_1  and  C_14
REMARK    3  A    between atoms: C_14  and  C_15
REMARK    4  A    between atoms: C_20  and  O_21
REMARK    5  A    between atoms: O_21  and  C_25
REMARK                            x       y       z     vdW  Elec       q    Type
REMARK                         _______ _______ _______ _____ _____    ______ ____
ROOT
ATOM      1  O   UNL     1      35.934 -20.536 -19.873  0.00  0.00    -0.346 OA
ENDROOT
BRANCH   1   5
ATOM      2  O   UNL     1      34.527 -23.157 -17.697  0.00  0.00    -0.438 OA
ATOM      3  N   UNL     1      36.544 -22.320 -16.741  0.00  0.00    -0.242 N 
ATOM      4  N   UNL     1      35.460 -23.948 -15.696  0.00  0.00    -0.333 NA
ATOM      5  C   UNL     1      35.980 -21.666 -19.015  0.00  0.00    +0.179 C 
ATOM      6  C   UNL     1      36.820 -21.356 -17.780  0.00  0.00    +0.130 C 
ATOM      7  C   UNL     1      34.559 -22.037 -18.590  0.00  0.00    +0.241 C 
ATOM      8  C   UNL     1      35.451 -23.145 -16.736  0.00  0.00    +0.345 C 
ATOM      9  C   UNL     1      37.287 -22.594 -15.635  0.00  0.00    +0.181 C 
ATOM     10  C   UNL     1      36.597 -23.604 -15.002  0.00  0.00    +0.274 C 
ATOM     11  O   UNL     1      37.954 -23.933 -13.172  0.00  0.00    -0.124 OA
ATOM     12  O   UNL     1      36.151 -25.172 -13.377  0.00  0.00    -0.124 OA
ATOM     13  N   UNL     1      36.913 -24.261 -13.806  0.00  0.00    +0.085 N 
ENDBRANCH   1   5
BRANCH   1  14
ATOM     14  C   UNL     1      34.763 -20.544 -20.675  0.00  0.00    +0.169 C 
BRANCH  14  15
ATOM     15  C   UNL     1      34.833 -19.409 -21.655  0.00  0.00    +0.007 C 
ATOM     16  C   UNL     1      34.479 -19.623 -22.981  0.00  0.00    +0.001 C 
ATOM     17  C   UNL     1      35.253 -18.155 -21.226  0.00  0.00    +0.001 C 
ATOM     18  C   UNL     1      34.544 -18.568 -23.893  0.00  0.00    +0.037 C 
ATOM     19  C   UNL     1      35.319 -17.100 -22.136  0.00  0.00    +0.037 C 
ATOM     20  C   UNL     1      34.964 -17.307 -23.469  0.00  0.00    +0.147 C 
BRANCH  20  21
ATOM     21  O   UNL     1      35.028 -16.278 -24.358  0.00  0.00    -0.404 OA
BRANCH  21  25
ATOM     22  F   UNL     1      33.292 -14.976 -23.638  0.00  0.00    -0.133 F 
ATOM     23  F   UNL     1      32.921 -16.529 -25.129  0.00  0.00    -0.133 F 
ATOM     24  F   UNL     1      34.021 -14.732 -25.710  0.00  0.00    -0.133 F 
ATOM     25  C   UNL     1      33.820 -15.612 -24.704  0.00  0.00    +0.575 C 
ENDBRANCH  21  25
ENDBRANCH  20  21
ENDBRANCH  14  15
ENDBRANCH   1  14
TORSDOF 5
ENDMDL
MODEL 7
REMARK VINA RESULT:     -10.2      6.064     10.573
REMARK  Name = 456199
REMARK  5 active torsions:
REMARK  status: ('A' for Active; 'I' for Inactive)
REMARK    1  A    between atoms: O_1  and  C_5
REMARK    2  A    between atoms: O_1  and  C_14
REMARK    3  A    between atoms: C_14  and  C_15
REMARK    4  A    between atoms: C_20  and  O_21
REMARK    5  A    between atoms: O_21  and  C_25
REMARK                            x       y       z     vdW  Elec       q    Type
REMARK                         _______ _______ _______ _____ _____    ______ ____
ROOT
ATOM      1  O   UNL     1      35.764 -19.941 -20.235  0.00  0.00    -0.346 OA
ENDROOT
BRANCH   1   5
ATOM      2  O   UNL     1      34.578 -19.325 -23.670  0.00  0.00    -0.438 OA
ATOM      3  N   UNL     1      34.875 -17.247 -22.541  0.00  0.00    -0.242 N 
ATOM      4  N   UNL     1      34.124 -17.232 -24.627  0.00  0.00    -0.333 NA
ATOM      5  C   UNL     1      34.995 -19.300 -21.241  0.00  0.00    +0.179 C 
ATOM      6  C   UNL     1      35.329 -17.812 -21.291  0.00  0.00    +0.130 C 
ATOM      7  C   UNL     1      35.299 -19.940 -22.596  0.00  0.00    +0.241 C 
ATOM      8  C   UNL     1      34.537 -17.993 -23.638  0.00  0.00    +0.345 C 
ATOM      9  C   UNL     1      34.688 -15.935 -22.845  0.00  0.00    +0.181 C 
ATOM     10  C   UNL     1      34.224 -15.948 -24.142  0.00  0.00    +0.274 C 
ATOM     11  O   UNL     1      33.978 -13.688 -24.506  0.00  0.00    -0.124 OA
ATOM     12  O   UNL     1      33.467 -15.075 -26.132  0.00  0.00    -0.124 OA
ATOM     13  N   UNL     1      33.877 -14.863 -24.957  0.00  0.00    +0.085 N 
ENDBRANCH   1   5
BRANCH   1  14
ATOM     14  C   UNL     1      35.548 -21.344 -20.235  0.00  0.00    +0.169 C 
BRANCH  14  15
ATOM     15  C   UNL     1      35.591 -21.846 -18.822  0.00  0.00    +0.007 C 
ATOM     16  C   UNL     1      34.487 -22.502 -18.291  0.00  0.00    +0.001 C 
ATOM     17  C   UNL     1      36.736 -21.650 -18.057  0.00  0.00    +0.001 C 
ATOM     18  C   UNL     1      34.528 -22.969 -16.976  0.00  0.00    +0.037 C 
ATOM     19  C   UNL     1      36.777 -22.116 -16.743  0.00  0.00    +0.037 C 
ATOM     20  C   UNL     1      35.673 -22.776 -16.203  0.00  0.00    +0.147 C 
BRANCH  20  21
ATOM     21  O   UNL     1      35.712 -23.231 -14.921  0.00  0.00    -0.404 OA
BRANCH  21  25
ATOM     22  F   UNL     1      35.852 -25.477 -15.328  0.00  0.00    -0.133 F 
ATOM     23  F   UNL     1      36.326 -24.716 -13.335  0.00  0.00    -0.133 F 
ATOM     24  F   UNL     1      37.713 -24.337 -14.982  0.00  0.00    -0.133 F 
ATOM     25  C   UNL     1      36.406 -24.445 -14.658  0.00  0.00    +0.575 C 
ENDBRANCH  21  25
ENDBRANCH  20  21
ENDBRANCH  14  15
ENDBRANCH   1  14
TORSDOF 5
ENDMDL
MODEL 8
REMARK VINA RESULT:     -10.1      3.902      6.333
REMARK  Name = 456199
REMARK  5 active torsions:
REMARK  status: ('A' for Active; 'I' for Inactive)
REMARK    1  A    between atoms: O_1  and  C_5
REMARK    2  A    between atoms: O_1  and  C_14
REMARK    3  A    between atoms: C_14  and  C_15
REMARK    4  A    between atoms: C_20  and  O_21
REMARK    5  A    between atoms: O_21  and  C_25
REMARK                            x       y       z     vdW  Elec       q    Type
REMARK                         _______ _______ _______ _____ _____    ______ ____
ROOT
ATOM      1  O   UNL     1      35.583 -19.442 -21.881  0.00  0.00    -0.346 OA
ENDROOT
BRANCH   1   5
ATOM      2  O   UNL     1      32.677 -20.926 -20.166  0.00  0.00    -0.438 OA
ATOM      3  N   UNL     1      34.688 -21.659 -19.116  0.00  0.00    -0.242 N 
ATOM      4  N   UNL     1      32.747 -22.408 -18.349  0.00  0.00    -0.333 NA
ATOM      5  C   UNL     1      34.852 -20.471 -21.232  0.00  0.00    +0.179 C 
ATOM      6  C   UNL     1      35.589 -20.930 -19.978  0.00  0.00    +0.130 C 
ATOM      7  C   UNL     1      33.467 -19.948 -20.853  0.00  0.00    +0.241 C 
ATOM      8  C   UNL     1      33.324 -21.626 -19.234  0.00  0.00    +0.345 C 
ATOM      9  C   UNL     1      35.006 -22.491 -18.088  0.00  0.00    +0.181 C 
ATOM     10  C   UNL     1      33.789 -22.942 -17.626  0.00  0.00    +0.274 C 
ATOM     11  O   UNL     1      34.489 -24.301 -15.905  0.00  0.00    -0.124 OA
ATOM     12  O   UNL     1      32.333 -24.121 -16.289  0.00  0.00    -0.124 OA
ATOM     13  N   UNL     1      33.528 -23.821 -16.567  0.00  0.00    +0.085 N 
ENDBRANCH   1   5
BRANCH   1  14
ATOM     14  C   UNL     1      35.013 -19.119 -23.141  0.00  0.00    +0.169 C 
BRANCH  14  15
ATOM     15  C   UNL     1      34.807 -17.635 -23.219  0.00  0.00    +0.007 C 
ATOM     16  C   UNL     1      34.356 -17.064 -24.403  0.00  0.00    +0.001 C 
ATOM     17  C   UNL     1      35.068 -16.845 -22.105  0.00  0.00    +0.001 C 
ATOM     18  C   UNL     1      34.165 -15.684 -24.475  0.00  0.00    +0.037 C 
ATOM     19  C   UNL     1      34.877 -15.465 -22.176  0.00  0.00    +0.037 C 
ATOM     20  C   UNL     1      34.425 -14.885 -23.361  0.00  0.00    +0.147 C 
BRANCH  20  21
ATOM     21  O   UNL     1      34.238 -13.538 -23.432  0.00  0.00    -0.404 OA
BRANCH  21  25
ATOM     22  F   UNL     1      31.983 -13.764 -23.121  0.00  0.00    -0.133 F 
ATOM     23  F   UNL     1      32.835 -11.770 -23.392  0.00  0.00    -0.133 F 
ATOM     24  F   UNL     1      33.194 -12.839 -21.520  0.00  0.00    -0.133 F 
ATOM     25  C   UNL     1      33.057 -12.991 -22.856  0.00  0.00    +0.575 C 
ENDBRANCH  21  25
ENDBRANCH  20  21
ENDBRANCH  14  15
ENDBRANCH   1  14
TORSDOF 5
ENDMDL
MODEL 9
REMARK VINA RESULT:     -10.1      5.781      7.246
REMARK  Name = 456199
REMARK  5 active torsions:
REMARK  status: ('A' for Active; 'I' for Inactive)
REMARK    1  A    between atoms: O_1  and  C_5
REMARK    2  A    between atoms: O_1  and  C_14
REMARK    3  A    between atoms: C_14  and  C_15
REMARK    4  A    between atoms: C_20  and  O_21
REMARK    5  A    between atoms: O_21  and  C_25
REMARK                            x       y       z     vdW  Elec       q    Type
REMARK                         _______ _______ _______ _____ _____    ______ ____
ROOT
ATOM      1  O   UNL     1      33.449 -24.049 -12.754  0.00  0.00    -0.346 OA
ENDROOT
BRANCH   1   5
ATOM      2  O   UNL     1      36.490 -23.099 -14.608  0.00  0.00    -0.438 OA
ATOM      3  N   UNL     1      36.921 -25.050 -13.308  0.00  0.00    -0.242 N 
ATOM      4  N   UNL     1      38.566 -24.186 -14.517  0.00  0.00    -0.333 NA
ATOM      5  C   UNL     1      34.842 -23.844 -12.933  0.00  0.00    +0.179 C 
ATOM      6  C   UNL     1      35.597 -25.156 -12.741  0.00  0.00    +0.130 C 
ATOM      7  C   UNL     1      35.098 -23.306 -14.341  0.00  0.00    +0.241 C 
ATOM      8  C   UNL     1      37.300 -24.071 -14.187  0.00  0.00    +0.345 C 
ATOM      9  C   UNL     1      37.996 -25.851 -13.075  0.00  0.00    +0.181 C 
ATOM     10  C   UNL     1      39.003 -25.298 -13.835  0.00  0.00    +0.274 C 
ATOM     11  O   UNL     1      40.719 -26.755 -13.350  0.00  0.00    -0.124 OA
ATOM     12  O   UNL     1      41.115 -25.087 -14.726  0.00  0.00    -0.124 OA
ATOM     13  N   UNL     1      40.329 -25.730 -13.975  0.00  0.00    +0.085 N 
ENDBRANCH   1   5
BRANCH   1  14
ATOM     14  C   UNL     1      32.992 -25.170 -13.496  0.00  0.00    +0.169 C 
BRANCH  14  15
ATOM     15  C   UNL     1      31.648 -24.853 -14.082  0.00  0.00    +0.007 C 
ATOM     16  C   UNL     1      30.549 -25.636 -13.748  0.00  0.00    +0.001 C 
ATOM     17  C   UNL     1      31.514 -23.779 -14.955  0.00  0.00    +0.001 C 
ATOM     18  C   UNL     1      29.299 -25.341 -14.294  0.00  0.00    +0.037 C 
ATOM     19  C   UNL     1      30.265 -23.484 -15.502  0.00  0.00    +0.037 C 
ATOM     20  C   UNL     1      29.158 -24.265 -15.170  0.00  0.00    +0.147 C 
BRANCH  20  21
ATOM     21  O   UNL     1      27.938 -23.978 -15.702  0.00  0.00    -0.404 OA
BRANCH  21  25
ATOM     22  F   UNL     1      28.152 -21.949 -14.669  0.00  0.00    -0.133 F 
ATOM     23  F   UNL     1      26.160 -22.688 -15.182  0.00  0.00    -0.133 F 
ATOM     24  F   UNL     1      27.491 -22.009 -16.777  0.00  0.00    -0.133 F 
ATOM     25  C   UNL     1      27.450 -22.646 -15.587  0.00  0.00    +0.575 C 
ENDBRANCH  21  25
ENDBRANCH  20  21
ENDBRANCH  14  15
ENDBRANCH   1  14
TORSDOF 5
ENDMDL
