MODEL 1
REMARK VINA RESULT:     -12.0      0.000      0.000
REMARK  Name = 5496659
REMARK  9 active torsions:
REMARK  status: ('A' for Active; 'I' for Inactive)
REMARK    1  A    between atoms: C_1  and  N_4
REMARK    2  A    between atoms: C_1  and  C_20
REMARK    3  A    between atoms: C_5  and  C_7
REMARK    4  A    between atoms: C_10  and  C_15
REMARK    5  A    between atoms: C_20  and  C_22
REMARK    6  A    between atoms: C_20  and  C_25
REMARK    7  A    between atoms: C_22  and  O_23
REMARK    8  A    between atoms: C_25  and  C_26
REMARK    9  A    between atoms: C_29  and  C_34
REMARK                            x       y       z     vdW  Elec       q    Type
REMARK                         _______ _______ _______ _____ _____    ______ ____
ROOT
ATOM      1  C   UNL     1      33.224 -23.911 -15.672  0.00  0.00    +0.083 C 
ATOM      2  C   UNL     1      31.949 -23.567 -14.903  0.00  0.00    +0.022 C 
ENDROOT
BRANCH   1   4
ATOM      3  O   UNL     1      33.665 -24.489 -18.450  0.00  0.00    -0.270 OA
ATOM      4  N   UNL     1      33.442 -22.951 -16.729  0.00  0.00    -0.302 N 
ATOM      5  C   UNL     1      33.647 -23.329 -18.047  0.00  0.00    +0.246 C 
ATOM      6  H   UNL     1      33.446 -21.992 -16.505  0.00  0.00    +0.150 HD
BRANCH   5   7
ATOM      7  C   UNL     1      33.882 -22.223 -19.010  0.00  0.00    +0.053 C 
ATOM      8  C   UNL     1      32.809 -21.464 -19.476  0.00  0.00    +0.005 C 
ATOM      9  C   UNL     1      35.176 -21.944 -19.449  0.00  0.00    +0.005 C 
ATOM     10  C   UNL     1      34.324 -20.146 -20.820  0.00  0.00    +0.000 C 
ATOM     11  C   UNL     1      33.029 -20.425 -20.381  0.00  0.00    +0.000 C 
ATOM     12  C   UNL     1      35.397 -20.906 -20.354  0.00  0.00    +0.000 C 
BRANCH  10  15
ATOM     13  O   UNL     1      35.205 -16.052 -24.398  0.00  0.00    -0.163 OA
ATOM     14  N   UNL     1      35.000 -16.998 -23.571  0.00  0.00    -0.127 N 
ATOM     15  C   UNL     1      34.554 -19.070 -21.759  0.00  0.00    +0.003 C 
ATOM     16  C   UNL     1      35.068 -17.856 -21.316  0.00  0.00    +0.022 C 
ATOM     17  C   UNL     1      34.263 -19.249 -23.107  0.00  0.00    +0.022 C 
ATOM     18  C   UNL     1      35.286 -16.831 -22.229  0.00  0.00    +0.121 C 
ATOM     19  C   UNL     1      34.490 -18.207 -24.001  0.00  0.00    +0.121 C 
ENDBRANCH  10  15
ENDBRANCH   5   7
ENDBRANCH   1   4
BRANCH   1  20
ATOM     20  C   UNL     1      34.449 -24.057 -14.741  0.00  0.00    +0.121 C 
BRANCH  20  22
ATOM     21  O   UNL     1      35.672 -21.992 -14.316  0.00  0.00    -0.250 OA
ATOM     22  C   UNL     1      35.490 -22.977 -15.020  0.00  0.00    +0.319 C 
BRANCH  22  23
ATOM     23  O   UNL     1      36.173 -23.281 -16.162  0.00  0.00    -0.444 OA
ATOM     24  C   UNL     1      37.251 -22.397 -16.487  0.00  0.00    +0.256 C 
ENDBRANCH  22  23
ENDBRANCH  20  22
BRANCH  20  25
ATOM     25  C   UNL     1      35.098 -25.453 -14.854  0.00  0.00    +0.039 C 
BRANCH  25  26
ATOM     26  C   UNL     1      36.321 -25.602 -13.979  0.00  0.00    -0.021 C 
ATOM     27  C   UNL     1      37.559 -25.890 -14.553  0.00  0.00    -0.002 C 
ATOM     28  C   UNL     1      36.211 -25.456 -12.596  0.00  0.00    -0.004 C 
ATOM     29  C   UNL     1      38.687 -26.030 -13.745  0.00  0.00    +0.030 C 
ATOM     30  C   UNL     1      37.339 -25.596 -11.788  0.00  0.00    -0.000 C 
ATOM     31  C   UNL     1      38.577 -25.884 -12.362  0.00  0.00    +0.003 C 
BRANCH  29  34
ATOM     32  N   UNL     1      40.981 -26.975 -13.620  0.00  0.00    -0.343 N 
ATOM     33  N   UNL     1      40.217 -25.989 -15.597  0.00  0.00    -0.285 NA
ATOM     34  C   UNL     1      39.978 -26.331 -14.344  0.00  0.00    +0.117 C 
ATOM     35  H   UNL     1      41.847 -27.168 -14.045  0.00  0.00    +0.144 HD
ATOM     36  H   UNL     1      40.821 -27.235 -12.684  0.00  0.00    +0.144 HD
ATOM     37  H   UNL     1      41.092 -26.192 -16.004  0.00  0.00    +0.188 HD
ENDBRANCH  29  34
ENDBRANCH  25  26
ENDBRANCH  20  25
ENDBRANCH   1  20
TORSDOF 9
ENDMDL
MODEL 2
REMARK VINA RESULT:     -11.7      1.717      2.837
REMARK  Name = 5496659
REMARK  9 active torsions:
REMARK  status: ('A' for Active; 'I' for Inactive)
REMARK    1  A    between atoms: C_1  and  N_4
REMARK    2  A    between atoms: C_1  and  C_20
REMARK    3  A    between atoms: C_5  and  C_7
REMARK    4  A    between atoms: C_10  and  C_15
REMARK    5  A    between atoms: C_20  and  C_22
REMARK    6  A    between atoms: C_20  and  C_25
REMARK    7  A    between atoms: C_22  and  O_23
REMARK    8  A    between atoms: C_25  and  C_26
REMARK    9  A    between atoms: C_29  and  C_34
REMARK                            x       y       z     vdW  Elec       q    Type
REMARK                         _______ _______ _______ _____ _____    ______ ____
ROOT
ATOM      1  C   UNL     1      31.959 -23.912 -15.799  0.00  0.00    +0.083 C 
ATOM      2  C   UNL     1      30.564 -23.560 -15.285  0.00  0.00    +0.022 C 
ENDROOT
BRANCH   1   4
ATOM      3  O   UNL     1      33.846 -24.402 -17.906  0.00  0.00    -0.270 OA
ATOM      4  N   UNL     1      32.358 -22.985 -16.833  0.00  0.00    -0.302 N 
ATOM      5  C   UNL     1      33.281 -23.316 -17.812  0.00  0.00    +0.246 C 
ATOM      6  H   UNL     1      31.959 -22.085 -16.842  0.00  0.00    +0.150 HD
BRANCH   5   7
ATOM      7  C   UNL     1      33.603 -22.244 -18.788  0.00  0.00    +0.053 C 
ATOM      8  C   UNL     1      34.929 -22.009 -19.154  0.00  0.00    +0.005 C 
ATOM      9  C   UNL     1      32.581 -21.470 -19.338  0.00  0.00    +0.005 C 
ATOM     10  C   UNL     1      34.209 -20.228 -20.620  0.00  0.00    +0.000 C 
ATOM     11  C   UNL     1      35.232 -21.001 -20.070  0.00  0.00    +0.000 C 
ATOM     12  C   UNL     1      32.883 -20.463 -20.253  0.00  0.00    +0.000 C 
BRANCH  10  15
ATOM     13  O   UNL     1      35.402 -16.244 -24.232  0.00  0.00    -0.163 OA
ATOM     14  N   UNL     1      35.125 -17.165 -23.397  0.00  0.00    -0.127 N 
ATOM     15  C   UNL     1      34.521 -19.182 -21.569  0.00  0.00    +0.003 C 
ATOM     16  C   UNL     1      35.065 -17.981 -21.126  0.00  0.00    +0.022 C 
ATOM     17  C   UNL     1      34.279 -19.375 -22.924  0.00  0.00    +0.022 C 
ATOM     18  C   UNL     1      35.362 -16.983 -22.048  0.00  0.00    +0.121 C 
ATOM     19  C   UNL     1      34.584 -18.361 -23.826  0.00  0.00    +0.121 C 
ENDBRANCH  10  15
ENDBRANCH   5   7
ENDBRANCH   1   4
BRANCH   1  20
ATOM     20  C   UNL     1      32.997 -24.011 -14.658  0.00  0.00    +0.121 C 
BRANCH  20  22
ATOM     21  O   UNL     1      32.153 -23.081 -12.568  0.00  0.00    -0.250 OA
ATOM     22  C   UNL     1      32.317 -24.055 -13.292  0.00  0.00    +0.319 C 
BRANCH  22  23
ATOM     23  O   UNL     1      31.929 -25.334 -13.013  0.00  0.00    -0.444 OA
ATOM     24  C   UNL     1      30.540 -25.503 -12.713  0.00  0.00    +0.256 C 
ENDBRANCH  22  23
ENDBRANCH  20  22
BRANCH  20  25
ATOM     25  C   UNL     1      34.016 -22.853 -14.700  0.00  0.00    +0.039 C 
BRANCH  25  26
ATOM     26  C   UNL     1      35.441 -23.333 -14.847  0.00  0.00    -0.021 C 
ATOM     27  C   UNL     1      35.826 -24.556 -14.295  0.00  0.00    -0.002 C 
ATOM     28  C   UNL     1      36.373 -22.553 -15.531  0.00  0.00    -0.004 C 
ATOM     29  C   UNL     1      37.142 -24.997 -14.428  0.00  0.00    +0.030 C 
ATOM     30  C   UNL     1      37.689 -22.995 -15.665  0.00  0.00    -0.000 C 
ATOM     31  C   UNL     1      38.074 -24.217 -15.113  0.00  0.00    +0.003 C 
BRANCH  29  34
ATOM     32  N   UNL     1      36.884 -26.806 -12.746  0.00  0.00    -0.343 N 
ATOM     33  N   UNL     1      38.555 -26.940 -14.375  0.00  0.00    -0.285 NA
ATOM     34  C   UNL     1      37.544 -26.271 -13.851  0.00  0.00    +0.117 C 
ATOM     35  H   UNL     1      37.173 -27.669 -12.371  0.00  0.00    +0.144 HD
ATOM     36  H   UNL     1      36.131 -26.320 -12.340  0.00  0.00    +0.144 HD
ATOM     37  H   UNL     1      38.828 -27.803 -13.985  0.00  0.00    +0.188 HD
ENDBRANCH  29  34
ENDBRANCH  25  26
ENDBRANCH  20  25
ENDBRANCH   1  20
TORSDOF 9
ENDMDL
MODEL 3
REMARK VINA RESULT:     -11.0      1.455      2.005
REMARK  Name = 5496659
REMARK  9 active torsions:
REMARK  status: ('A' for Active; 'I' for Inactive)
REMARK    1  A    between atoms: C_1  and  N_4
REMARK    2  A    between atoms: C_1  and  C_20
REMARK    3  A    between atoms: C_5  and  C_7
REMARK    4  A    between atoms: C_10  and  C_15
REMARK    5  A    between atoms: C_20  and  C_22
REMARK    6  A    between atoms: C_20  and  C_25
REMARK    7  A    between atoms: C_22  and  O_23
REMARK    8  A    between atoms: C_25  and  C_26
REMARK    9  A    between atoms: C_29  and  C_34
REMARK                            x       y       z     vdW  Elec       q    Type
REMARK                         _______ _______ _______ _____ _____    ______ ____
ROOT
ATOM      1  C   UNL     1      33.008 -23.853 -15.936  0.00  0.00    +0.083 C 
ATOM      2  C   UNL     1      31.724 -23.508 -15.182  0.00  0.00    +0.022 C 
ENDROOT
BRANCH   1   4
ATOM      3  O   UNL     1      33.741 -24.392 -18.658  0.00  0.00    -0.270 OA
ATOM      4  N   UNL     1      33.254 -22.878 -16.972  0.00  0.00    -0.302 N 
ATOM      5  C   UNL     1      33.605 -23.237 -18.264  0.00  0.00    +0.246 C 
ATOM      6  H   UNL     1      33.170 -21.921 -16.753  0.00  0.00    +0.150 HD
BRANCH   5   7
ATOM      7  C   UNL     1      33.850 -22.116 -19.206  0.00  0.00    +0.053 C 
ATOM      8  C   UNL     1      32.781 -21.353 -19.675  0.00  0.00    +0.005 C 
ATOM      9  C   UNL     1      35.149 -21.825 -19.622  0.00  0.00    +0.005 C 
ATOM     10  C   UNL     1      34.310 -20.008 -20.976  0.00  0.00    +0.000 C 
ATOM     11  C   UNL     1      33.010 -20.299 -20.560  0.00  0.00    +0.000 C 
ATOM     12  C   UNL     1      35.379 -20.772 -20.507  0.00  0.00    +0.000 C 
BRANCH  10  15
ATOM     13  O   UNL     1      35.219 -15.854 -24.477  0.00  0.00    -0.163 OA
ATOM     14  N   UNL     1      35.010 -16.815 -23.668  0.00  0.00    -0.127 N 
ATOM     15  C   UNL     1      34.549 -18.918 -21.895  0.00  0.00    +0.003 C 
ATOM     16  C   UNL     1      34.261 -19.071 -23.247  0.00  0.00    +0.022 C 
ATOM     17  C   UNL     1      35.068 -17.715 -21.429  0.00  0.00    +0.022 C 
ATOM     18  C   UNL     1      34.495 -18.014 -24.121  0.00  0.00    +0.121 C 
ATOM     19  C   UNL     1      35.293 -16.673 -22.323  0.00  0.00    +0.121 C 
ENDBRANCH  10  15
ENDBRANCH   5   7
ENDBRANCH   1   4
BRANCH   1  20
ATOM     20  C   UNL     1      34.215 -24.030 -14.987  0.00  0.00    +0.121 C 
BRANCH  20  22
ATOM     21  O   UNL     1      35.420 -21.938 -14.646  0.00  0.00    -0.250 OA
ATOM     22  C   UNL     1      35.295 -22.988 -15.264  0.00  0.00    +0.319 C 
BRANCH  22  23
ATOM     23  O   UNL     1      36.086 -23.408 -16.294  0.00  0.00    -0.444 OA
ATOM     24  C   UNL     1      37.040 -22.451 -16.767  0.00  0.00    +0.256 C 
ENDBRANCH  22  23
ENDBRANCH  20  22
BRANCH  20  25
ATOM     25  C   UNL     1      34.819 -25.447 -15.076  0.00  0.00    +0.039 C 
BRANCH  25  26
ATOM     26  C   UNL     1      36.087 -25.596 -14.267  0.00  0.00    -0.021 C 
ATOM     27  C   UNL     1      36.308 -24.775 -13.161  0.00  0.00    -0.002 C 
ATOM     28  C   UNL     1      37.037 -26.551 -14.629  0.00  0.00    -0.004 C 
ATOM     29  C   UNL     1      37.479 -24.911 -12.416  0.00  0.00    +0.030 C 
ATOM     30  C   UNL     1      38.207 -26.687 -13.883  0.00  0.00    -0.000 C 
ATOM     31  C   UNL     1      38.429 -25.866 -12.777  0.00  0.00    +0.003 C 
BRANCH  29  34
ATOM     32  N   UNL     1      36.824 -24.031 -10.188  0.00  0.00    -0.343 N 
ATOM     33  N   UNL     1      38.777 -23.276 -11.227  0.00  0.00    -0.285 NA
ATOM     34  C   UNL     1      37.711 -24.054 -11.264  0.00  0.00    +0.117 C 
ATOM     35  H   UNL     1      37.001 -23.443  -9.418  0.00  0.00    +0.144 HD
ATOM     36  H   UNL     1      36.023 -24.602 -10.199  0.00  0.00    +0.144 HD
ATOM     37  H   UNL     1      38.936 -22.695 -10.447  0.00  0.00    +0.188 HD
ENDBRANCH  29  34
ENDBRANCH  25  26
ENDBRANCH  20  25
ENDBRANCH   1  20
TORSDOF 9
ENDMDL
MODEL 4
REMARK VINA RESULT:     -10.9      1.261      2.032
REMARK  Name = 5496659
REMARK  9 active torsions:
REMARK  status: ('A' for Active; 'I' for Inactive)
REMARK    1  A    between atoms: C_1  and  N_4
REMARK    2  A    between atoms: C_1  and  C_20
REMARK    3  A    between atoms: C_5  and  C_7
REMARK    4  A    between atoms: C_10  and  C_15
REMARK    5  A    between atoms: C_20  and  C_22
REMARK    6  A    between atoms: C_20  and  C_25
REMARK    7  A    between atoms: C_22  and  O_23
REMARK    8  A    between atoms: C_25  and  C_26
REMARK    9  A    between atoms: C_29  and  C_34
REMARK                            x       y       z     vdW  Elec       q    Type
REMARK                         _______ _______ _______ _____ _____    ______ ____
ROOT
ATOM      1  C   UNL     1      33.845 -23.679 -15.888  0.00  0.00    +0.083 C 
ATOM      2  C   UNL     1      33.042 -23.071 -14.740  0.00  0.00    +0.022 C 
ENDROOT
BRANCH   1   4
ATOM      3  O   UNL     1      33.811 -24.259 -18.700  0.00  0.00    -0.270 OA
ATOM      4  N   UNL     1      33.971 -22.727 -16.967  0.00  0.00    -0.302 N 
ATOM      5  C   UNL     1      33.943 -23.105 -18.301  0.00  0.00    +0.246 C 
ATOM      6  H   UNL     1      34.082 -21.773 -16.747  0.00  0.00    +0.150 HD
BRANCH   5   7
ATOM      7  C   UNL     1      34.110 -22.010 -19.289  0.00  0.00    +0.053 C 
ATOM      8  C   UNL     1      35.387 -21.641 -19.712  0.00  0.00    +0.005 C 
ATOM      9  C   UNL     1      32.991 -21.349 -19.795  0.00  0.00    +0.005 C 
ATOM     10  C   UNL     1      34.425 -19.952 -21.146  0.00  0.00    +0.000 C 
ATOM     11  C   UNL     1      35.545 -20.612 -20.640  0.00  0.00    +0.000 C 
ATOM     12  C   UNL     1      33.148 -20.320 -20.723  0.00  0.00    +0.000 C 
BRANCH  10  15
ATOM     13  O   UNL     1      35.037 -15.881 -24.807  0.00  0.00    -0.163 OA
ATOM     14  N   UNL     1      34.896 -16.822 -23.961  0.00  0.00    -0.127 N 
ATOM     15  C   UNL     1      34.587 -18.883 -22.108  0.00  0.00    +0.003 C 
ATOM     16  C   UNL     1      34.252 -19.090 -23.442  0.00  0.00    +0.022 C 
ATOM     17  C   UNL     1      35.075 -17.647 -21.699  0.00  0.00    +0.022 C 
ATOM     18  C   UNL     1      34.411 -18.054 -24.356  0.00  0.00    +0.121 C 
ATOM     19  C   UNL     1      35.225 -16.627 -22.633  0.00  0.00    +0.121 C 
ENDBRANCH  10  15
ENDBRANCH   5   7
ENDBRANCH   1   4
BRANCH   1  20
ATOM     20  C   UNL     1      35.212 -24.231 -15.421  0.00  0.00    +0.121 C 
BRANCH  20  22
ATOM     21  O   UNL     1      34.481 -25.603 -13.543  0.00  0.00    -0.250 OA
ATOM     22  C   UNL     1      35.046 -25.523 -14.627  0.00  0.00    +0.319 C 
BRANCH  22  23
ATOM     23  O   UNL     1      35.620 -26.558 -15.307  0.00  0.00    -0.444 OA
ATOM     24  C   UNL     1      36.482 -27.399 -14.534  0.00  0.00    +0.256 C 
ENDBRANCH  22  23
ENDBRANCH  20  22
BRANCH  20  25
ATOM     25  C   UNL     1      35.998 -23.198 -14.585  0.00  0.00    +0.039 C 
BRANCH  25  26
ATOM     26  C   UNL     1      37.110 -23.825 -13.777  0.00  0.00    -0.021 C 
ATOM     27  C   UNL     1      38.073 -24.613 -14.408  0.00  0.00    -0.002 C 
ATOM     28  C   UNL     1      37.173 -23.618 -12.399  0.00  0.00    -0.004 C 
ATOM     29  C   UNL     1      39.098 -25.193 -13.662  0.00  0.00    +0.030 C 
ATOM     30  C   UNL     1      38.199 -24.197 -11.653  0.00  0.00    -0.000 C 
ATOM     31  C   UNL     1      39.161 -24.986 -12.284  0.00  0.00    +0.003 C 
BRANCH  29  34
ATOM     32  N   UNL     1      40.888 -26.913 -13.600  0.00  0.00    -0.343 N 
ATOM     33  N   UNL     1      40.279 -25.917 -15.625  0.00  0.00    -0.285 NA
ATOM     34  C   UNL     1      40.100 -26.016 -14.320  0.00  0.00    +0.117 C 
ATOM     35  H   UNL     1      41.561 -27.460 -14.066  0.00  0.00    +0.144 HD
ATOM     36  H   UNL     1      40.771 -26.999 -12.626  0.00  0.00    +0.144 HD
ATOM     37  H   UNL     1      40.958 -26.474 -16.072  0.00  0.00    +0.188 HD
ENDBRANCH  29  34
ENDBRANCH  25  26
ENDBRANCH  20  25
ENDBRANCH   1  20
TORSDOF 9
ENDMDL
MODEL 5
REMARK VINA RESULT:     -10.8      3.011     11.006
REMARK  Name = 5496659
REMARK  9 active torsions:
REMARK  status: ('A' for Active; 'I' for Inactive)
REMARK    1  A    between atoms: C_1  and  N_4
REMARK    2  A    between atoms: C_1  and  C_20
REMARK    3  A    between atoms: C_5  and  C_7
REMARK    4  A    between atoms: C_10  and  C_15
REMARK    5  A    between atoms: C_20  and  C_22
REMARK    6  A    between atoms: C_20  and  C_25
REMARK    7  A    between atoms: C_22  and  O_23
REMARK    8  A    between atoms: C_25  and  C_26
REMARK    9  A    between atoms: C_29  and  C_34
REMARK                            x       y       z     vdW  Elec       q    Type
REMARK                         _______ _______ _______ _____ _____    ______ ____
ROOT
ATOM      1  C   UNL     1      36.548 -19.800 -20.716  0.00  0.00    +0.083 C 
ATOM      2  C   UNL     1      37.901 -19.110 -20.886  0.00  0.00    +0.022 C 
ENDROOT
BRANCH   1   4
ATOM      3  O   UNL     1      35.814 -22.512 -20.127  0.00  0.00    -0.270 OA
ATOM      4  N   UNL     1      36.457 -20.404 -19.408  0.00  0.00    -0.302 N 
ATOM      5  C   UNL     1      36.092 -21.729 -19.223  0.00  0.00    +0.246 C 
ATOM      6  H   UNL     1      36.661 -19.854 -18.616  0.00  0.00    +0.150 HD
BRANCH   5   7
ATOM      7  C   UNL     1      36.020 -22.191 -17.814  0.00  0.00    +0.053 C 
ATOM      8  C   UNL     1      37.120 -22.034 -16.971  0.00  0.00    +0.005 C 
ATOM      9  C   UNL     1      34.853 -22.784 -17.333  0.00  0.00    +0.005 C 
ATOM     10  C   UNL     1      35.885 -23.062 -15.167  0.00  0.00    +0.000 C 
ATOM     11  C   UNL     1      37.053 -22.469 -15.648  0.00  0.00    +0.000 C 
ATOM     12  C   UNL     1      34.785 -23.220 -16.011  0.00  0.00    +0.000 C 
BRANCH  10  15
ATOM     13  O   UNL     1      35.615 -24.786  -9.942  0.00  0.00    -0.163 OA
ATOM     14  N   UNL     1      35.678 -24.388 -11.150  0.00  0.00    -0.127 N 
ATOM     15  C   UNL     1      35.814 -23.515 -13.795  0.00  0.00    +0.003 C 
ATOM     16  C   UNL     1      36.861 -23.248 -12.918  0.00  0.00    +0.022 C 
ATOM     17  C   UNL     1      34.700 -24.219 -13.351  0.00  0.00    +0.022 C 
ATOM     18  C   UNL     1      36.780 -23.688 -11.602  0.00  0.00    +0.121 C 
ATOM     19  C   UNL     1      34.644 -24.648 -12.029  0.00  0.00    +0.121 C 
ENDBRANCH  10  15
ENDBRANCH   5   7
ENDBRANCH   1   4
BRANCH   1  20
ATOM     20  C   UNL     1      35.364 -18.851 -21.016  0.00  0.00    +0.121 C 
BRANCH  20  22
ATOM     21  O   UNL     1      33.710 -19.978 -22.408  0.00  0.00    -0.250 OA
ATOM     22  C   UNL     1      34.084 -19.632 -21.294  0.00  0.00    +0.319 C 
BRANCH  22  23
ATOM     23  O   UNL     1      33.431 -19.878 -20.120  0.00  0.00    -0.444 OA
ATOM     24  C   UNL     1      32.643 -21.072 -20.093  0.00  0.00    +0.256 C 
ENDBRANCH  22  23
ENDBRANCH  20  22
BRANCH  20  25
ATOM     25  C   UNL     1      35.667 -17.903 -22.196  0.00  0.00    +0.039 C 
BRANCH  25  26
ATOM     26  C   UNL     1      34.986 -16.561 -22.058  0.00  0.00    -0.021 C 
ATOM     27  C   UNL     1      34.517 -15.897 -23.192  0.00  0.00    -0.002 C 
ATOM     28  C   UNL     1      34.828 -15.985 -20.798  0.00  0.00    -0.004 C 
ATOM     29  C   UNL     1      33.890 -14.658 -23.064  0.00  0.00    +0.030 C 
ATOM     30  C   UNL     1      34.201 -14.746 -20.671  0.00  0.00    -0.000 C 
ATOM     31  C   UNL     1      33.733 -14.082 -21.804  0.00  0.00    +0.003 C 
BRANCH  29  34
ATOM     32  N   UNL     1      33.423 -12.573 -24.331  0.00  0.00    -0.343 N 
ATOM     33  N   UNL     1      32.926 -14.657 -25.265  0.00  0.00    -0.285 NA
ATOM     34  C   UNL     1      33.403 -13.965 -24.247  0.00  0.00    +0.117 C 
ATOM     35  H   UNL     1      33.087 -12.125 -25.141  0.00  0.00    +0.144 HD
ATOM     36  H   UNL     1      33.772 -12.040 -23.581  0.00  0.00    +0.144 HD
ATOM     37  H   UNL     1      32.595 -14.189 -26.067  0.00  0.00    +0.188 HD
ENDBRANCH  29  34
ENDBRANCH  25  26
ENDBRANCH  20  25
ENDBRANCH   1  20
TORSDOF 9
ENDMDL
MODEL 6
REMARK VINA RESULT:     -10.8      3.879     10.995
REMARK  Name = 5496659
REMARK  9 active torsions:
REMARK  status: ('A' for Active; 'I' for Inactive)
REMARK    1  A    between atoms: C_1  and  N_4
REMARK    2  A    between atoms: C_1  and  C_20
REMARK    3  A    between atoms: C_5  and  C_7
REMARK    4  A    between atoms: C_10  and  C_15
REMARK    5  A    between atoms: C_20  and  C_22
REMARK    6  A    between atoms: C_20  and  C_25
REMARK    7  A    between atoms: C_22  and  O_23
REMARK    8  A    between atoms: C_25  and  C_26
REMARK    9  A    between atoms: C_29  and  C_34
REMARK                            x       y       z     vdW  Elec       q    Type
REMARK                         _______ _______ _______ _____ _____    ______ ____
ROOT
ATOM      1  C   UNL     1      36.030 -19.768 -21.306  0.00  0.00    +0.083 C 
ATOM      2  C   UNL     1      37.286 -19.055 -20.807  0.00  0.00    +0.022 C 
ENDROOT
BRANCH   1   4
ATOM      3  O   UNL     1      36.910 -22.113 -19.902  0.00  0.00    -0.270 OA
ATOM      4  N   UNL     1      35.357 -20.419 -20.207  0.00  0.00    -0.302 N 
ATOM      5  C   UNL     1      35.863 -21.553 -19.590  0.00  0.00    +0.246 C 
ATOM      6  H   UNL     1      34.505 -20.044 -19.883  0.00  0.00    +0.150 HD
BRANCH   5   7
ATOM      7  C   UNL     1      35.038 -22.117 -18.491  0.00  0.00    +0.053 C 
ATOM      8  C   UNL     1      35.637 -22.482 -17.286  0.00  0.00    +0.005 C 
ATOM      9  C   UNL     1      33.664 -22.281 -18.665  0.00  0.00    +0.005 C 
ATOM     10  C   UNL     1      33.488 -23.176 -16.428  0.00  0.00    +0.000 C 
ATOM     11  C   UNL     1      34.863 -23.012 -16.254  0.00  0.00    +0.000 C 
ATOM     12  C   UNL     1      32.889 -22.811 -17.634  0.00  0.00    +0.000 C 
BRANCH  10  15
ATOM     13  O   UNL     1      30.424 -25.279 -12.362  0.00  0.00    -0.163 OA
ATOM     14  N   UNL     1      31.132 -24.792 -13.301  0.00  0.00    -0.127 N 
ATOM     15  C   UNL     1      32.684 -23.728 -15.359  0.00  0.00    +0.003 C 
ATOM     16  C   UNL     1      31.297 -23.636 -15.414  0.00  0.00    +0.022 C 
ATOM     17  C   UNL     1      33.295 -24.351 -14.277  0.00  0.00    +0.022 C 
ATOM     18  C   UNL     1      30.535 -24.170 -14.381  0.00  0.00    +0.121 C 
ATOM     19  C   UNL     1      32.510 -24.878 -13.257  0.00  0.00    +0.121 C 
ENDBRANCH  10  15
ENDBRANCH   5   7
ENDBRANCH   1   4
BRANCH   1  20
ATOM     20  C   UNL     1      35.097 -18.825 -22.100  0.00  0.00    +0.121 C 
BRANCH  20  22
ATOM     21  O   UNL     1      35.087 -20.438 -23.928  0.00  0.00    -0.250 OA
ATOM     22  C   UNL     1      34.538 -19.514 -23.341  0.00  0.00    +0.319 C 
BRANCH  22  23
ATOM     23  O   UNL     1      33.348 -18.942 -23.688  0.00  0.00    -0.444 OA
ATOM     24  C   UNL     1      33.361 -18.180 -24.899  0.00  0.00    +0.256 C 
ENDBRANCH  22  23
ENDBRANCH  20  22
BRANCH  20  25
ATOM     25  C   UNL     1      35.804 -17.514 -22.501  0.00  0.00    +0.039 C 
BRANCH  25  26
ATOM     26  C   UNL     1      35.045 -16.282 -22.064  0.00  0.00    -0.021 C 
ATOM     27  C   UNL     1      34.629 -15.346 -23.011  0.00  0.00    -0.002 C 
ATOM     28  C   UNL     1      34.763 -16.080 -20.712  0.00  0.00    -0.004 C 
ATOM     29  C   UNL     1      33.931 -14.209 -22.606  0.00  0.00    +0.030 C 
ATOM     30  C   UNL     1      34.065 -14.942 -20.309  0.00  0.00    -0.000 C 
ATOM     31  C   UNL     1      33.649 -14.006 -21.255  0.00  0.00    +0.003 C 
BRANCH  29  34
ATOM     32  N   UNL     1      33.130 -11.939 -23.222  0.00  0.00    -0.343 N 
ATOM     33  N   UNL     1      33.446 -13.566 -24.870  0.00  0.00    -0.285 NA
ATOM     34  C   UNL     1      33.498 -13.232 -23.594  0.00  0.00    +0.117 C 
ATOM     35  H   UNL     1      32.841 -11.295 -23.907  0.00  0.00    +0.144 HD
ATOM     36  H   UNL     1      33.161 -11.673 -22.275  0.00  0.00    +0.144 HD
ATOM     37  H   UNL     1      33.153 -12.905 -25.540  0.00  0.00    +0.188 HD
ENDBRANCH  29  34
ENDBRANCH  25  26
ENDBRANCH  20  25
ENDBRANCH   1  20
TORSDOF 9
ENDMDL
MODEL 7
REMARK VINA RESULT:     -10.5      6.031     10.755
REMARK  Name = 5496659
REMARK  9 active torsions:
REMARK  status: ('A' for Active; 'I' for Inactive)
REMARK    1  A    between atoms: C_1  and  N_4
REMARK    2  A    between atoms: C_1  and  C_20
REMARK    3  A    between atoms: C_5  and  C_7
REMARK    4  A    between atoms: C_10  and  C_15
REMARK    5  A    between atoms: C_20  and  C_22
REMARK    6  A    between atoms: C_20  and  C_25
REMARK    7  A    between atoms: C_22  and  O_23
REMARK    8  A    between atoms: C_25  and  C_26
REMARK    9  A    between atoms: C_29  and  C_34
REMARK                            x       y       z     vdW  Elec       q    Type
REMARK                         _______ _______ _______ _____ _____    ______ ____
ROOT
ATOM      1  C   UNL     1      34.120 -15.885 -21.715  0.00  0.00    +0.083 C 
ATOM      2  C   UNL     1      34.853 -15.988 -20.378  0.00  0.00    +0.022 C 
ENDROOT
BRANCH   1   4
ATOM      3  O   UNL     1      32.082 -14.375 -20.370  0.00  0.00    -0.270 OA
ATOM      4  N   UNL     1      33.749 -14.514 -21.975  0.00  0.00    -0.302 N 
ATOM      5  C   UNL     1      32.746 -13.867 -21.269  0.00  0.00    +0.246 C 
ATOM      6  H   UNL     1      34.226 -14.019 -22.681  0.00  0.00    +0.150 HD
BRANCH   5   7
ATOM      7  C   UNL     1      32.468 -12.466 -21.675  0.00  0.00    +0.053 C 
ATOM      8  C   UNL     1      31.636 -11.666 -20.892  0.00  0.00    +0.005 C 
ATOM      9  C   UNL     1      33.037 -11.950 -22.838  0.00  0.00    +0.005 C 
ATOM     10  C   UNL     1      31.944  -9.834 -22.437  0.00  0.00    +0.000 C 
ATOM     11  C   UNL     1      31.374 -10.349 -21.273  0.00  0.00    +0.000 C 
ATOM     12  C   UNL     1      32.775 -10.635 -23.220  0.00  0.00    +0.000 C 
BRANCH  10  15
ATOM     13  O   UNL     1      30.910  -4.639 -23.950  0.00  0.00    -0.163 OA
ATOM     14  N   UNL     1      31.148  -5.840 -23.600  0.00  0.00    -0.127 N 
ATOM     15  C   UNL     1      31.672  -8.470 -22.835  0.00  0.00    +0.003 C 
ATOM     16  C   UNL     1      31.357  -7.514 -21.874  0.00  0.00    +0.022 C 
ATOM     17  C   UNL     1      31.725  -8.112 -24.177  0.00  0.00    +0.022 C 
ATOM     18  C   UNL     1      31.099  -6.206 -22.269  0.00  0.00    +0.121 C 
ATOM     19  C   UNL     1      31.462  -6.797 -24.546  0.00  0.00    +0.121 C 
ENDBRANCH  10  15
ENDBRANCH   5   7
ENDBRANCH   1   4
BRANCH   1  20
ATOM     20  C   UNL     1      34.926 -16.513 -22.875  0.00  0.00    +0.121 C 
BRANCH  20  22
ATOM     21  O   UNL     1      35.487 -15.641 -25.082  0.00  0.00    -0.250 OA
ATOM     22  C   UNL     1      34.660 -15.788 -24.191  0.00  0.00    +0.319 C 
BRANCH  22  23
ATOM     23  O   UNL     1      33.372 -15.334 -24.214  0.00  0.00    -0.444 OA
ATOM     24  C   UNL     1      33.029 -14.513 -25.335  0.00  0.00    +0.256 C 
ENDBRANCH  22  23
ENDBRANCH  20  22
BRANCH  20  25
ATOM     25  C   UNL     1      34.630 -18.019 -23.037  0.00  0.00    +0.039 C 
BRANCH  25  26
ATOM     26  C   UNL     1      35.266 -18.859 -21.954  0.00  0.00    -0.021 C 
ATOM     27  C   UNL     1      34.501 -19.798 -21.260  0.00  0.00    -0.002 C 
ATOM     28  C   UNL     1      36.616 -18.695 -21.644  0.00  0.00    -0.004 C 
ATOM     29  C   UNL     1      35.086 -20.571 -20.259  0.00  0.00    +0.030 C 
ATOM     30  C   UNL     1      37.201 -19.469 -20.644  0.00  0.00    -0.000 C 
ATOM     31  C   UNL     1      36.437 -20.407 -19.950  0.00  0.00    +0.003 C 
BRANCH  29  34
ATOM     32  N   UNL     1      32.902 -21.432 -19.450  0.00  0.00    -0.343 N 
ATOM     33  N   UNL     1      34.879 -22.568 -18.938  0.00  0.00    -0.285 NA
ATOM     34  C   UNL     1      34.288 -21.549 -19.535  0.00  0.00    +0.117 C 
ATOM     35  H   UNL     1      32.381 -22.105 -18.954  0.00  0.00    +0.144 HD
ATOM     36  H   UNL     1      32.444 -20.678 -19.886  0.00  0.00    +0.144 HD
ATOM     37  H   UNL     1      34.340 -23.231 -18.447  0.00  0.00    +0.188 HD
ENDBRANCH  29  34
ENDBRANCH  25  26
ENDBRANCH  20  25
ENDBRANCH   1  20
TORSDOF 9
ENDMDL
MODEL 8
REMARK VINA RESULT:     -10.5      7.363     15.120
REMARK  Name = 5496659
REMARK  9 active torsions:
REMARK  status: ('A' for Active; 'I' for Inactive)
REMARK    1  A    between atoms: C_1  and  N_4
REMARK    2  A    between atoms: C_1  and  C_20
REMARK    3  A    between atoms: C_5  and  C_7
REMARK    4  A    between atoms: C_10  and  C_15
REMARK    5  A    between atoms: C_20  and  C_22
REMARK    6  A    between atoms: C_20  and  C_25
REMARK    7  A    between atoms: C_22  and  O_23
REMARK    8  A    between atoms: C_25  and  C_26
REMARK    9  A    between atoms: C_29  and  C_34
REMARK                            x       y       z     vdW  Elec       q    Type
REMARK                         _______ _______ _______ _____ _____    ______ ____
ROOT
ATOM      1  C   UNL     1      33.224 -11.001 -23.236  0.00  0.00    +0.083 C 
ATOM      2  C   UNL     1      34.440 -10.155 -23.610  0.00  0.00    +0.022 C 
ENDROOT
BRANCH   1   4
ATOM      3  O   UNL     1      33.564 -13.337 -24.871  0.00  0.00    -0.270 OA
ATOM      4  N   UNL     1      33.646 -12.310 -22.794  0.00  0.00    -0.302 N 
ATOM      5  C   UNL     1      33.781 -13.382 -23.663  0.00  0.00    +0.246 C 
ATOM      6  H   UNL     1      33.844 -12.447 -21.838  0.00  0.00    +0.150 HD
BRANCH   5   7
ATOM      7  C   UNL     1      34.199 -14.667 -23.048  0.00  0.00    +0.053 C 
ATOM      8  C   UNL     1      34.286 -14.780 -21.660  0.00  0.00    +0.005 C 
ATOM      9  C   UNL     1      34.504 -15.761 -23.857  0.00  0.00    +0.005 C 
ATOM     10  C   UNL     1      34.984 -17.082 -21.892  0.00  0.00    +0.000 C 
ATOM     11  C   UNL     1      34.679 -15.988 -21.082  0.00  0.00    +0.000 C 
ATOM     12  C   UNL     1      34.897 -16.968 -23.280  0.00  0.00    +0.000 C 
BRANCH  10  15
ATOM     13  O   UNL     1      36.543 -21.848 -19.613  0.00  0.00    -0.163 OA
ATOM     14  N   UNL     1      36.183 -20.747 -20.141  0.00  0.00    -0.127 N 
ATOM     15  C   UNL     1      35.393 -18.334 -21.294  0.00  0.00    +0.003 C 
ATOM     16  C   UNL     1      36.741 -18.586 -21.060  0.00  0.00    +0.022 C 
ATOM     17  C   UNL     1      34.440 -19.287 -20.953  0.00  0.00    +0.022 C 
ATOM     18  C   UNL     1      37.122 -19.793 -20.484  0.00  0.00    +0.121 C 
ATOM     19  C   UNL     1      34.847 -20.487 -20.378  0.00  0.00    +0.121 C 
ENDBRANCH  10  15
ENDBRANCH   5   7
ENDBRANCH   1   4
BRANCH   1  20
ATOM     20  C   UNL     1      32.309 -10.294 -22.210  0.00  0.00    +0.121 C 
BRANCH  20  22
ATOM     21  O   UNL     1      30.541 -11.928 -21.830  0.00  0.00    -0.250 OA
ATOM     22  C   UNL     1      31.501 -11.302 -21.399  0.00  0.00    +0.319 C 
BRANCH  22  23
ATOM     23  O   UNL     1      32.012 -11.392 -20.136  0.00  0.00    -0.444 OA
ATOM     24  C   UNL     1      31.403 -10.536 -19.164  0.00  0.00    +0.256 C 
ENDBRANCH  22  23
ENDBRANCH  20  22
BRANCH  20  25
ATOM     25  C   UNL     1      31.360  -9.281 -22.883  0.00  0.00    +0.039 C 
BRANCH  25  26
ATOM     26  C   UNL     1      31.664  -7.850 -22.501  0.00  0.00    -0.021 C 
ATOM     27  C   UNL     1      31.503  -6.829 -23.438  0.00  0.00    -0.002 C 
ATOM     28  C   UNL     1      32.109  -7.552 -21.213  0.00  0.00    -0.004 C 
ATOM     29  C   UNL     1      31.786  -5.510 -23.086  0.00  0.00    +0.030 C 
ATOM     30  C   UNL     1      32.392  -6.233 -20.862  0.00  0.00    -0.000 C 
ATOM     31  C   UNL     1      32.232  -5.211 -21.798  0.00  0.00    +0.003 C 
BRANCH  29  34
ATOM     32  N   UNL     1      32.587  -4.196 -25.036  0.00  0.00    -0.343 N 
ATOM     33  N   UNL     1      30.537  -3.689 -24.034  0.00  0.00    -0.285 NA
ATOM     34  C   UNL     1      31.620  -4.445 -24.063  0.00  0.00    +0.117 C 
ATOM     35  H   UNL     1      32.454  -3.470 -25.687  0.00  0.00    +0.144 HD
ATOM     36  H   UNL     1      33.402  -4.747 -25.071  0.00  0.00    +0.144 HD
ATOM     37  H   UNL     1      30.423  -2.967 -24.695  0.00  0.00    +0.188 HD
ENDBRANCH  29  34
ENDBRANCH  25  26
ENDBRANCH  20  25
ENDBRANCH   1  20
TORSDOF 9
ENDMDL
MODEL 9
REMARK VINA RESULT:     -10.1      9.593     17.364
REMARK  Name = 5496659
REMARK  9 active torsions:
REMARK  status: ('A' for Active; 'I' for Inactive)
REMARK    1  A    between atoms: C_1  and  N_4
REMARK    2  A    between atoms: C_1  and  C_20
REMARK    3  A    between atoms: C_5  and  C_7
REMARK    4  A    between atoms: C_10  and  C_15
REMARK    5  A    between atoms: C_20  and  C_22
REMARK    6  A    between atoms: C_20  and  C_25
REMARK    7  A    between atoms: C_22  and  O_23
REMARK    8  A    between atoms: C_25  and  C_26
REMARK    9  A    between atoms: C_29  and  C_34
REMARK                            x       y       z     vdW  Elec       q    Type
REMARK                         _______ _______ _______ _____ _____    ______ ____
ROOT
ATOM      1  C   UNL     1      31.568  -7.912 -23.279  0.00  0.00    +0.083 C 
ATOM      2  C   UNL     1      31.175  -7.598 -24.721  0.00  0.00    +0.022 C 
ENDROOT
BRANCH   1   4
ATOM      3  O   UNL     1      30.664 -10.027 -21.560  0.00  0.00    -0.270 OA
ATOM      4  N   UNL     1      32.115  -9.246 -23.191  0.00  0.00    -0.302 N 
ATOM      5  C   UNL     1      31.608 -10.203 -22.326  0.00  0.00    +0.246 C 
ATOM      6  H   UNL     1      32.878  -9.484 -23.767  0.00  0.00    +0.150 HD
BRANCH   5   7
ATOM      7  C   UNL     1      32.298 -11.518 -22.337  0.00  0.00    +0.053 C 
ATOM      8  C   UNL     1      33.202 -11.823 -23.354  0.00  0.00    +0.005 C 
ATOM      9  C   UNL     1      32.043 -12.448 -21.330  0.00  0.00    +0.005 C 
ATOM     10  C   UNL     1      33.594 -13.989 -22.358  0.00  0.00    +0.000 C 
ATOM     11  C   UNL     1      33.850 -13.058 -23.365  0.00  0.00    +0.000 C 
ATOM     12  C   UNL     1      32.690 -13.683 -21.340  0.00  0.00    +0.000 C 
BRANCH  10  15
ATOM     13  O   UNL     1      36.147 -18.870 -22.399  0.00  0.00    -0.163 OA
ATOM     14  N   UNL     1      35.556 -17.742 -22.389  0.00  0.00    -0.127 N 
ATOM     15  C   UNL     1      34.264 -15.271 -22.368  0.00  0.00    +0.003 C 
ATOM     16  C   UNL     1      34.487 -15.930 -23.573  0.00  0.00    +0.022 C 
ATOM     17  C   UNL     1      34.687 -15.846 -21.175  0.00  0.00    +0.022 C 
ATOM     18  C   UNL     1      35.132 -17.161 -23.570  0.00  0.00    +0.121 C 
ATOM     19  C   UNL     1      35.330 -17.079 -21.199  0.00  0.00    +0.121 C 
ENDBRANCH  10  15
ENDBRANCH   5   7
ENDBRANCH   1   4
BRANCH   1  20
ATOM     20  C   UNL     1      32.510  -6.843 -22.681  0.00  0.00    +0.121 C 
BRANCH  20  22
ATOM     21  O   UNL     1      33.557  -7.766 -20.682  0.00  0.00    -0.250 OA
ATOM     22  C   UNL     1      33.633  -7.483 -21.871  0.00  0.00    +0.319 C 
BRANCH  22  23
ATOM     23  O   UNL     1      34.720  -7.687 -22.673  0.00  0.00    -0.444 OA
ATOM     24  C   UNL     1      34.954  -6.677 -23.660  0.00  0.00    +0.256 C 
ENDBRANCH  22  23
ENDBRANCH  20  22
BRANCH  20  25
ATOM     25  C   UNL     1      31.749  -5.824 -21.807  0.00  0.00    +0.039 C 
BRANCH  25  26
ATOM     26  C   UNL     1      31.847  -4.411 -22.335  0.00  0.00    -0.021 C 
ATOM     27  C   UNL     1      32.116  -4.189 -23.686  0.00  0.00    -0.002 C 
ATOM     28  C   UNL     1      31.672  -3.330 -21.471  0.00  0.00    -0.004 C 
ATOM     29  C   UNL     1      32.209  -2.885 -24.172  0.00  0.00    +0.030 C 
ATOM     30  C   UNL     1      31.765  -2.027 -21.958  0.00  0.00    -0.000 C 
ATOM     31  C   UNL     1      32.034  -1.804 -23.308  0.00  0.00    +0.003 C 
BRANCH  29  34
ATOM     32  N   UNL     1      33.613  -3.206 -26.196  0.00  0.00    -0.343 N 
ATOM     33  N   UNL     1      31.677  -1.901 -26.299  0.00  0.00    -0.285 NA
ATOM     34  C   UNL     1      32.491  -2.653 -25.580  0.00  0.00    +0.117 C 
ATOM     35  H   UNL     1      33.785  -3.035 -27.150  0.00  0.00    +0.144 HD
ATOM     36  H   UNL     1      34.233  -3.767 -25.676  0.00  0.00    +0.144 HD
ATOM     37  H   UNL     1      31.867  -1.743 -27.253  0.00  0.00    +0.188 HD
ENDBRANCH  29  34
ENDBRANCH  25  26
ENDBRANCH  20  25
ENDBRANCH   1  20
TORSDOF 9
ENDMDL
