MODEL 1
REMARK VINA RESULT:     -11.3      0.000      0.000
REMARK  Name = 11442891
REMARK  5 active torsions:
REMARK  status: ('A' for Active; 'I' for Inactive)
REMARK    1  A    between atoms: C_12  and  C_30
REMARK    2  A    between atoms: C_13  and  C_19
REMARK    3  A    between atoms: C_16  and  N_22
REMARK    4  A    between atoms: C_30  and  C_31
REMARK    5  A    between atoms: C_30  and  O_37
REMARK                            x       y       z     vdW  Elec       q    Type
REMARK                         _______ _______ _______ _____ _____    ______ ____
ROOT
ATOM      1  O   UNL     1      32.395 -11.916 -20.930  0.00  0.00    -0.271 OA
ATOM      2  O   UNL     1      35.432 -19.330 -23.535  0.00  0.00    -0.270 OA
ATOM      3  N   UNL     1      33.277 -13.092 -22.716  0.00  0.00    -0.231 N 
ATOM      4  N   UNL     1      34.674 -15.437 -25.055  0.00  0.00    -0.273 N 
ATOM      5  N   UNL     1      34.872 -16.665 -24.512  0.00  0.00    -0.157 NA
ATOM      6  N   UNL     1      34.476 -17.557 -22.320  0.00  0.00    -0.264 N 
ATOM      7  C   UNL     1      33.425 -14.375 -21.952  0.00  0.00    +0.077 C 
ATOM      8  C   UNL     1      33.991 -15.241 -22.986  0.00  0.00    +0.067 A 
ATOM      9  C   UNL     1      33.732 -13.177 -24.144  0.00  0.00    +0.091 C 
ATOM     10  C   UNL     1      34.150 -14.576 -24.162  0.00  0.00    +0.093 A 
ATOM     11  C   UNL     1      34.449 -16.530 -23.241  0.00  0.00    +0.157 A 
ATOM     12  C   UNL     1      32.761 -11.959 -22.105  0.00  0.00    +0.265 C 
ATOM     13  C   UNL     1      34.950 -18.861 -22.509  0.00  0.00    +0.251 C 
ATOM     14  H   UNL     1      34.886 -15.205 -25.988  0.00  0.00    +0.189 HD
ATOM     15  H   UNL     1      34.118 -17.350 -21.426  0.00  0.00    +0.157 HD
ENDROOT
BRANCH  13  19
ATOM     16  C   UNL     1      34.733 -21.401 -19.075  0.00  0.00    +0.048 C 
ATOM     17  C   UNL     1      33.563 -20.996 -19.718  0.00  0.00    +0.015 C 
ATOM     18  C   UNL     1      35.974 -20.978 -19.552  0.00  0.00    +0.015 C 
ATOM     19  C   UNL     1      34.875 -19.744 -21.315  0.00  0.00    +0.054 C 
ATOM     20  C   UNL     1      33.634 -20.168 -20.839  0.00  0.00    +0.006 C 
ATOM     21  C   UNL     1      36.045 -20.150 -20.672  0.00  0.00    +0.006 C 
BRANCH  16  22
ATOM     22  N   UNL     1      34.662 -22.231 -17.951  0.00  0.00    -0.312 N 
ATOM     23  N   UNL     1      34.588 -24.121 -15.811  0.00  0.00    +0.388 N 
ATOM     24  C   UNL     1      35.878 -22.519 -17.183  0.00  0.00    +0.068 C 
ATOM     25  C   UNL     1      33.634 -23.279 -17.929  0.00  0.00    +0.068 C 
ATOM     26  C   UNL     1      35.523 -22.989 -15.770  0.00  0.00    -0.056 C 
ATOM     27  C   UNL     1      33.351 -23.722 -16.492  0.00  0.00    -0.056 C 
ATOM     28  C   UNL     1      34.299 -24.595 -14.458  0.00  0.00    -0.101 C 
ATOM     29  H   UNL     1      35.019 -24.886 -16.329  0.00  0.00    -0.080 HD
ENDBRANCH  16  22
ENDBRANCH  13  19
BRANCH  12  30
ATOM     30  C   UNL     1      32.665 -10.736 -22.983  0.00  0.00    +0.214 C 
BRANCH  30  31
ATOM     31  C   UNL     1      32.219  -9.540 -22.191  0.00  0.00    +0.013 C 
ATOM     32  C   UNL     1      31.465  -8.539 -22.805  0.00  0.00    -0.001 C 
ATOM     33  C   UNL     1      32.558  -9.429 -20.843  0.00  0.00    -0.001 C 
ATOM     34  C   UNL     1      31.051  -7.428 -22.071  0.00  0.00    -0.000 C 
ATOM     35  C   UNL     1      32.145  -8.318 -20.108  0.00  0.00    -0.000 C 
ATOM     36  C   UNL     1      31.392  -7.317 -20.722  0.00  0.00    -0.000 C 
ENDBRANCH  30  31
BRANCH  30  37
ATOM     37  O   UNL     1      33.946 -10.521 -23.543  0.00  0.00    -0.340 OA
ATOM     38  C   UNL     1      34.316  -9.146 -23.503  0.00  0.00    +0.175 C 
ENDBRANCH  30  37
ENDBRANCH  12  30
TORSDOF 5
ENDMDL
MODEL 2
REMARK VINA RESULT:     -10.9      5.219      9.128
REMARK  Name = 11442891
REMARK  5 active torsions:
REMARK  status: ('A' for Active; 'I' for Inactive)
REMARK    1  A    between atoms: C_12  and  C_30
REMARK    2  A    between atoms: C_13  and  C_19
REMARK    3  A    between atoms: C_16  and  N_22
REMARK    4  A    between atoms: C_30  and  C_31
REMARK    5  A    between atoms: C_30  and  O_37
REMARK                            x       y       z     vdW  Elec       q    Type
REMARK                         _______ _______ _______ _____ _____    ______ ____
ROOT
ATOM      1  O   UNL     1      34.977  -5.996 -28.098  0.00  0.00    -0.271 OA
ATOM      2  O   UNL     1      31.202  -9.934 -21.678  0.00  0.00    -0.270 OA
ATOM      3  N   UNL     1      33.457  -5.792 -26.367  0.00  0.00    -0.231 N 
ATOM      4  N   UNL     1      31.250  -6.121 -23.548  0.00  0.00    -0.273 N 
ATOM      5  N   UNL     1      31.298  -7.355 -22.985  0.00  0.00    -0.157 NA
ATOM      6  N   UNL     1      32.555  -9.332 -23.505  0.00  0.00    -0.264 N 
ATOM      7  C   UNL     1      33.640  -7.199 -25.880  0.00  0.00    +0.077 C 
ATOM      8  C   UNL     1      32.710  -7.218 -24.751  0.00  0.00    +0.067 A 
ATOM      9  C   UNL     1      32.463  -4.997 -25.570  0.00  0.00    +0.091 C 
ATOM     10  C   UNL     1      32.084  -6.020 -24.600  0.00  0.00    +0.093 A 
ATOM     11  C   UNL     1      32.198  -8.019 -23.735  0.00  0.00    +0.157 A 
ATOM     12  C   UNL     1      34.167  -5.322 -27.461  0.00  0.00    +0.265 C 
ATOM     13  C   UNL     1      32.054 -10.193 -22.520  0.00  0.00    +0.251 C 
ATOM     14  H   UNL     1      30.676  -5.389 -23.226  0.00  0.00    +0.189 HD
ATOM     15  H   UNL     1      33.242  -9.707 -24.102  0.00  0.00    +0.157 HD
ENDROOT
BRANCH  13  19
ATOM     16  C   UNL     1      33.663 -14.155 -22.567  0.00  0.00    +0.048 C 
ATOM     17  C   UNL     1      32.855 -13.743 -21.507  0.00  0.00    +0.015 C 
ATOM     18  C   UNL     1      33.947 -13.275 -23.611  0.00  0.00    +0.015 C 
ATOM     19  C   UNL     1      32.614 -11.570 -22.537  0.00  0.00    +0.054 C 
ATOM     20  C   UNL     1      32.330 -12.451 -21.492  0.00  0.00    +0.006 C 
ATOM     21  C   UNL     1      33.422 -11.983 -23.596  0.00  0.00    +0.006 C 
BRANCH  16  22
ATOM     22  N   UNL     1      34.191 -15.451 -22.582  0.00  0.00    -0.312 N 
ATOM     23  N   UNL     1      35.493 -17.991 -22.693  0.00  0.00    +0.388 N 
ATOM     24  C   UNL     1      34.943 -15.942 -21.422  0.00  0.00    +0.068 C 
ATOM     25  C   UNL     1      34.574 -16.026 -23.877  0.00  0.00    +0.068 C 
ATOM     26  C   UNL     1      34.983 -17.472 -21.417  0.00  0.00    -0.056 C 
ATOM     27  C   UNL     1      34.623 -17.553 -23.792  0.00  0.00    -0.056 C 
ATOM     28  C   UNL     1      35.577 -19.450 -22.656  0.00  0.00    -0.101 C 
ATOM     29  H   UNL     1      36.431 -17.623 -22.847  0.00  0.00    -0.080 HD
ENDBRANCH  16  22
ENDBRANCH  13  19
BRANCH  12  30
ATOM     30  C   UNL     1      33.890  -3.890 -27.847  0.00  0.00    +0.214 C 
BRANCH  30  31
ATOM     31  C   UNL     1      35.167  -3.156 -28.140  0.00  0.00    +0.013 C 
ATOM     32  C   UNL     1      36.037  -2.826 -27.101  0.00  0.00    -0.001 C 
ATOM     33  C   UNL     1      35.484  -2.802 -29.452  0.00  0.00    -0.001 C 
ATOM     34  C   UNL     1      37.223  -2.144 -27.372  0.00  0.00    -0.000 C 
ATOM     35  C   UNL     1      36.669  -2.120 -29.724  0.00  0.00    -0.000 C 
ATOM     36  C   UNL     1      37.539  -1.790 -28.684  0.00  0.00    -0.000 C 
ENDBRANCH  30  31
BRANCH  30  37
ATOM     37  O   UNL     1      33.053  -3.919 -28.987  0.00  0.00    -0.340 OA
ATOM     38  C   UNL     1      31.867  -3.156 -28.790  0.00  0.00    +0.175 C 
ENDBRANCH  30  37
ENDBRANCH  12  30
TORSDOF 5
ENDMDL
MODEL 3
REMARK VINA RESULT:      -9.8      1.940      3.199
REMARK  Name = 11442891
REMARK  5 active torsions:
REMARK  status: ('A' for Active; 'I' for Inactive)
REMARK    1  A    between atoms: C_12  and  C_30
REMARK    2  A    between atoms: C_13  and  C_19
REMARK    3  A    between atoms: C_16  and  N_22
REMARK    4  A    between atoms: C_30  and  C_31
REMARK    5  A    between atoms: C_30  and  O_37
REMARK                            x       y       z     vdW  Elec       q    Type
REMARK                         _______ _______ _______ _____ _____    ______ ____
ROOT
ATOM      1  O   UNL     1      33.038 -13.977 -20.146  0.00  0.00    -0.271 OA
ATOM      2  O   UNL     1      36.467 -21.623 -21.016  0.00  0.00    -0.270 OA
ATOM      3  N   UNL     1      33.974 -15.488 -21.626  0.00  0.00    -0.231 N 
ATOM      4  N   UNL     1      35.486 -18.236 -23.383  0.00  0.00    -0.273 N 
ATOM      5  N   UNL     1      35.755 -19.291 -22.574  0.00  0.00    -0.157 NA
ATOM      6  N   UNL     1      35.420 -19.669 -20.228  0.00  0.00    -0.264 N 
ATOM      7  C   UNL     1      34.197 -16.548 -20.589  0.00  0.00    +0.077 C 
ATOM      8  C   UNL     1      34.805 -17.600 -21.404  0.00  0.00    +0.067 A 
ATOM      9  C   UNL     1      34.425 -15.879 -23.004  0.00  0.00    +0.091 C 
ATOM     10  C   UNL     1      34.920 -17.219 -22.705  0.00  0.00    +0.093 A 
ATOM     11  C   UNL     1      35.332 -18.887 -21.361  0.00  0.00    +0.157 A 
ATOM     12  C   UNL     1      33.399 -14.273 -21.286  0.00  0.00    +0.265 C 
ATOM     13  C   UNL     1      35.965 -20.955 -20.118  0.00  0.00    +0.251 C 
ATOM     14  H   UNL     1      35.680 -18.215 -24.347  0.00  0.00    +0.189 HD
ATOM     15  H   UNL     1      35.057 -19.279 -19.400  0.00  0.00    +0.157 HD
ENDROOT
BRANCH  13  19
ATOM     16  C   UNL     1      35.907 -22.635 -16.186  0.00  0.00    +0.048 C 
ATOM     17  C   UNL     1      34.847 -22.872 -17.061  0.00  0.00    +0.015 C 
ATOM     18  C   UNL     1      36.986 -21.851 -16.593  0.00  0.00    +0.015 C 
ATOM     19  C   UNL     1      35.945 -21.539 -18.751  0.00  0.00    +0.054 C 
ATOM     20  C   UNL     1      34.866 -22.323 -18.344  0.00  0.00    +0.006 C 
ATOM     21  C   UNL     1      37.005 -21.303 -17.876  0.00  0.00    +0.006 C 
BRANCH  16  22
ATOM     22  N   UNL     1      35.888 -23.183 -14.899  0.00  0.00    -0.312 N 
ATOM     23  N   UNL     1      35.889 -24.534 -12.382  0.00  0.00    +0.388 N 
ATOM     24  C   UNL     1      37.149 -23.404 -14.184  0.00  0.00    +0.068 C 
ATOM     25  C   UNL     1      34.794 -24.101 -14.555  0.00  0.00    +0.068 C 
ATOM     26  C   UNL     1      36.901 -23.513 -12.678  0.00  0.00    -0.056 C 
ATOM     27  C   UNL     1      34.622 -24.185 -13.037  0.00  0.00    -0.056 C 
ATOM     28  C   UNL     1      35.700 -24.666 -10.938  0.00  0.00    -0.101 C 
ATOM     29  H   UNL     1      36.210 -25.431 -12.743  0.00  0.00    -0.080 HD
ENDBRANCH  16  22
ENDBRANCH  13  19
BRANCH  12  30
ATOM     30  C   UNL     1      33.231 -13.294 -22.421  0.00  0.00    +0.214 C 
BRANCH  30  31
ATOM     31  C   UNL     1      32.561 -12.034 -21.950  0.00  0.00    +0.013 C 
ATOM     32  C   UNL     1      31.615 -12.088 -20.927  0.00  0.00    -0.001 C 
ATOM     33  C   UNL     1      32.885 -10.811 -22.536  0.00  0.00    -0.001 C 
ATOM     34  C   UNL     1      30.993 -10.919 -20.489  0.00  0.00    -0.000 C 
ATOM     35  C   UNL     1      32.263  -9.641 -22.100  0.00  0.00    -0.000 C 
ATOM     36  C   UNL     1      31.316  -9.695 -21.076  0.00  0.00    -0.000 C 
ENDBRANCH  30  31
BRANCH  30  37
ATOM     37  O   UNL     1      34.521 -13.018 -22.930  0.00  0.00    -0.340 OA
ATOM     38  C   UNL     1      34.480 -12.669 -24.310  0.00  0.00    +0.175 C 
ENDBRANCH  30  37
ENDBRANCH  12  30
TORSDOF 5
ENDMDL
MODEL 4
REMARK VINA RESULT:      -9.3      4.730     13.887
REMARK  Name = 11442891
REMARK  5 active torsions:
REMARK  status: ('A' for Active; 'I' for Inactive)
REMARK    1  A    between atoms: C_12  and  C_30
REMARK    2  A    between atoms: C_13  and  C_19
REMARK    3  A    between atoms: C_16  and  N_22
REMARK    4  A    between atoms: C_30  and  C_31
REMARK    5  A    between atoms: C_30  and  O_37
REMARK                            x       y       z     vdW  Elec       q    Type
REMARK                         _______ _______ _______ _____ _____    ______ ____
ROOT
ATOM      1  O   UNL     1      35.347 -14.686 -23.541  0.00  0.00    -0.271 OA
ATOM      2  O   UNL     1      30.770  -7.639 -22.939  0.00  0.00    -0.270 OA
ATOM      3  N   UNL     1      33.555 -13.662 -22.497  0.00  0.00    -0.231 N 
ATOM      4  N   UNL     1      30.930 -11.538 -21.263  0.00  0.00    -0.273 N 
ATOM      5  N   UNL     1      30.922 -10.316 -21.853  0.00  0.00    -0.157 NA
ATOM      6  N   UNL     1      32.307  -9.315 -23.538  0.00  0.00    -0.264 N 
ATOM      7  C   UNL     1      33.699 -12.373 -23.251  0.00  0.00    +0.077 C 
ATOM      8  C   UNL     1      32.598 -11.600 -22.676  0.00  0.00    +0.067 A 
ATOM      9  C   UNL     1      32.421 -13.668 -21.513  0.00  0.00    +0.091 C 
ATOM     10  C   UNL     1      31.920 -12.316 -21.740  0.00  0.00    +0.093 A 
ATOM     11  C   UNL     1      31.952 -10.367 -22.718  0.00  0.00    +0.157 A 
ATOM     12  C   UNL     1      34.422 -14.719 -22.728  0.00  0.00    +0.265 C 
ATOM     13  C   UNL     1      31.716  -8.047 -23.603  0.00  0.00    +0.251 C 
ATOM     14  H   UNL     1      30.289 -11.821 -20.571  0.00  0.00    +0.189 HD
ATOM     15  H   UNL     1      33.063  -9.475 -24.148  0.00  0.00    +0.157 HD
ENDROOT
BRANCH  13  19
ATOM     16  C   UNL     1      33.507  -5.337 -26.385  0.00  0.00    +0.048 C 
ATOM     17  C   UNL     1      33.898  -6.676 -26.365  0.00  0.00    +0.015 C 
ATOM     18  C   UNL     1      32.531  -4.882 -25.498  0.00  0.00    +0.015 C 
ATOM     19  C   UNL     1      32.338  -7.105 -24.570  0.00  0.00    +0.054 C 
ATOM     20  C   UNL     1      33.314  -7.560 -25.457  0.00  0.00    +0.006 C 
ATOM     21  C   UNL     1      31.947  -5.766 -24.590  0.00  0.00    +0.006 C 
BRANCH  16  22
ATOM     22  N   UNL     1      34.093  -4.450 -27.294  0.00  0.00    -0.312 N 
ATOM     23  N   UNL     1      35.059  -2.624 -29.266  0.00  0.00    +0.388 N 
ATOM     24  C   UNL     1      33.975  -3.004 -27.077  0.00  0.00    +0.068 C 
ATOM     25  C   UNL     1      34.213  -4.874 -28.694  0.00  0.00    +0.068 C 
ATOM     26  C   UNL     1      35.067  -2.255 -27.845  0.00  0.00    -0.056 C 
ATOM     27  C   UNL     1      35.298  -4.065 -29.409  0.00  0.00    -0.056 C 
ATOM     28  C   UNL     1      36.070  -1.862 -29.999  0.00  0.00    -0.101 C 
ATOM     29  H   UNL     1      34.146  -2.400 -29.660  0.00  0.00    -0.080 HD
ENDBRANCH  16  22
ENDBRANCH  13  19
BRANCH  12  30
ATOM     30  C   UNL     1      34.169 -15.957 -21.905  0.00  0.00    +0.214 C 
BRANCH  30  31
ATOM     31  C   UNL     1      34.435 -17.199 -22.706  0.00  0.00    +0.013 C 
ATOM     32  C   UNL     1      33.933 -17.314 -24.002  0.00  0.00    -0.001 C 
ATOM     33  C   UNL     1      35.185 -18.238 -22.155  0.00  0.00    -0.001 C 
ATOM     34  C   UNL     1      34.179 -18.467 -24.747  0.00  0.00    -0.000 C 
ATOM     35  C   UNL     1      35.431 -19.392 -22.898  0.00  0.00    -0.000 C 
ATOM     36  C   UNL     1      34.929 -19.507 -24.195  0.00  0.00    -0.000 C 
ENDBRANCH  30  31
BRANCH  30  37
ATOM     37  O   UNL     1      35.022 -15.892 -20.778  0.00  0.00    -0.340 OA
ATOM     38  C   UNL     1      34.297 -15.630 -19.581  0.00  0.00    +0.175 C 
ENDBRANCH  30  37
ENDBRANCH  12  30
TORSDOF 5
ENDMDL
MODEL 5
REMARK VINA RESULT:      -9.3      1.360      2.026
REMARK  Name = 11442891
REMARK  5 active torsions:
REMARK  status: ('A' for Active; 'I' for Inactive)
REMARK    1  A    between atoms: C_12  and  C_30
REMARK    2  A    between atoms: C_13  and  C_19
REMARK    3  A    between atoms: C_16  and  N_22
REMARK    4  A    between atoms: C_30  and  C_31
REMARK    5  A    between atoms: C_30  and  O_37
REMARK                            x       y       z     vdW  Elec       q    Type
REMARK                         _______ _______ _______ _____ _____    ______ ____
ROOT
ATOM      1  O   UNL     1      32.225 -11.073 -20.743  0.00  0.00    -0.271 OA
ATOM      2  O   UNL     1      35.050 -18.190 -24.258  0.00  0.00    -0.270 OA
ATOM      3  N   UNL     1      32.823 -12.115 -22.720  0.00  0.00    -0.231 N 
ATOM      4  N   UNL     1      33.878 -14.270 -25.397  0.00  0.00    -0.273 N 
ATOM      5  N   UNL     1      34.218 -15.511 -24.968  0.00  0.00    -0.157 NA
ATOM      6  N   UNL     1      34.253 -16.528 -22.796  0.00  0.00    -0.264 N 
ATOM      7  C   UNL     1      33.156 -13.424 -22.068  0.00  0.00    +0.077 C 
ATOM      8  C   UNL     1      33.565 -14.209 -23.233  0.00  0.00    +0.067 A 
ATOM      9  C   UNL     1      33.022 -12.107 -24.208  0.00  0.00    +0.091 C 
ATOM     10  C   UNL     1      33.485 -13.480 -24.379  0.00  0.00    +0.093 A 
ATOM     11  C   UNL     1      34.022 -15.460 -23.637  0.00  0.00    +0.157 A 
ATOM     12  C   UNL     1      32.378 -11.040 -21.965  0.00  0.00    +0.265 C 
ATOM     13  C   UNL     1      34.739 -17.797 -23.138  0.00  0.00    +0.251 C 
ATOM     14  H   UNL     1      33.912 -13.981 -26.338  0.00  0.00    +0.189 HD
ATOM     15  H   UNL     1      34.051 -16.383 -21.843  0.00  0.00    +0.157 HD
ENDROOT
BRANCH  13  19
ATOM     16  C   UNL     1      35.235 -20.510 -19.870  0.00  0.00    +0.048 C 
ATOM     17  C   UNL     1      34.000 -20.408 -20.511  0.00  0.00    +0.015 C 
ATOM     18  C   UNL     1      36.308 -19.727 -20.296  0.00  0.00    +0.015 C 
ATOM     19  C   UNL     1      34.911 -18.740 -22.003  0.00  0.00    +0.054 C 
ATOM     20  C   UNL     1      33.838 -19.523 -21.577  0.00  0.00    +0.006 C 
ATOM     21  C   UNL     1      36.146 -18.842 -21.362  0.00  0.00    +0.006 C 
BRANCH  16  22
ATOM     22  N   UNL     1      35.398 -21.396 -18.800  0.00  0.00    -0.312 N 
ATOM     23  N   UNL     1      35.773 -23.392 -16.791  0.00  0.00    +0.388 N 
ATOM     24  C   UNL     1      36.743 -21.684 -18.294  0.00  0.00    +0.068 C 
ATOM     25  C   UNL     1      34.415 -22.475 -18.642  0.00  0.00    +0.068 C 
ATOM     26  C   UNL     1      36.674 -22.235 -16.867  0.00  0.00    -0.056 C 
ATOM     27  C   UNL     1      34.420 -22.998 -17.203  0.00  0.00    -0.056 C 
ATOM     28  C   UNL     1      35.757 -23.942 -15.436  0.00  0.00    -0.101 C 
ATOM     29  H   UNL     1      36.112 -24.116 -17.423  0.00  0.00    -0.080 HD
ENDBRANCH  16  22
ENDBRANCH  13  19
BRANCH  12  30
ATOM     30  C   UNL     1      32.079  -9.782 -22.741  0.00  0.00    +0.214 C 
BRANCH  30  31
ATOM     31  C   UNL     1      33.314  -8.943 -22.903  0.00  0.00    +0.013 C 
ATOM     32  C   UNL     1      33.348  -7.645 -22.395  0.00  0.00    -0.001 C 
ATOM     33  C   UNL     1      34.429  -9.463 -23.562  0.00  0.00    -0.001 C 
ATOM     34  C   UNL     1      34.495  -6.866 -22.545  0.00  0.00    -0.000 C 
ATOM     35  C   UNL     1      35.576  -8.684 -23.714  0.00  0.00    -0.000 C 
ATOM     36  C   UNL     1      35.609  -7.385 -23.206  0.00  0.00    -0.000 C 
ENDBRANCH  30  31
BRANCH  30  37
ATOM     37  O   UNL     1      31.570 -10.178 -24.000  0.00  0.00    -0.340 OA
ATOM     38  C   UNL     1      31.322  -9.059 -24.845  0.00  0.00    +0.175 C 
ENDBRANCH  30  37
ENDBRANCH  12  30
TORSDOF 5
ENDMDL
MODEL 6
REMARK VINA RESULT:      -9.2      1.450      2.140
REMARK  Name = 11442891
REMARK  5 active torsions:
REMARK  status: ('A' for Active; 'I' for Inactive)
REMARK    1  A    between atoms: C_12  and  C_30
REMARK    2  A    between atoms: C_13  and  C_19
REMARK    3  A    between atoms: C_16  and  N_22
REMARK    4  A    between atoms: C_30  and  C_31
REMARK    5  A    between atoms: C_30  and  O_37
REMARK                            x       y       z     vdW  Elec       q    Type
REMARK                         _______ _______ _______ _____ _____    ______ ____
ROOT
ATOM      1  O   UNL     1      32.208 -13.022 -19.732  0.00  0.00    -0.271 OA
ATOM      2  O   UNL     1      36.510 -19.867 -22.100  0.00  0.00    -0.270 OA
ATOM      3  N   UNL     1      33.329 -14.061 -21.467  0.00  0.00    -0.231 N 
ATOM      4  N   UNL     1      35.171 -16.176 -23.718  0.00  0.00    -0.273 N 
ATOM      5  N   UNL     1      35.551 -17.346 -23.145  0.00  0.00    -0.157 NA
ATOM      6  N   UNL     1      35.235 -18.260 -20.949  0.00  0.00    -0.264 N 
ATOM      7  C   UNL     1      33.662 -15.290 -20.675  0.00  0.00    +0.077 C 
ATOM      8  C   UNL     1      34.397 -16.065 -21.675  0.00  0.00    +0.067 A 
ATOM      9  C   UNL     1      33.840 -14.090 -22.880  0.00  0.00    +0.091 C 
ATOM     10  C   UNL     1      34.482 -15.400 -22.858  0.00  0.00    +0.093 A 
ATOM     11  C   UNL     1      35.070 -17.264 -21.890  0.00  0.00    +0.157 A 
ATOM     12  C   UNL     1      32.614 -13.020 -20.895  0.00  0.00    +0.265 C 
ATOM     13  C   UNL     1      35.924 -19.470 -21.098  0.00  0.00    +0.251 C 
ATOM     14  H   UNL     1      35.373 -15.925 -24.648  0.00  0.00    +0.189 HD
ATOM     15  H   UNL     1      34.819 -18.102 -20.071  0.00  0.00    +0.157 HD
ENDROOT
BRANCH  13  19
ATOM     16  C   UNL     1      36.016 -21.962 -17.624  0.00  0.00    +0.048 C 
ATOM     17  C   UNL     1      37.068 -21.082 -17.879  0.00  0.00    +0.015 C 
ATOM     18  C   UNL     1      34.935 -22.030 -18.503  0.00  0.00    +0.015 C 
ATOM     19  C   UNL     1      35.956 -20.337 -19.891  0.00  0.00    +0.054 C 
ATOM     20  C   UNL     1      37.038 -20.269 -19.012  0.00  0.00    +0.006 C 
ATOM     21  C   UNL     1      34.905 -21.217 -19.636  0.00  0.00    +0.006 C 
BRANCH  16  22
ATOM     22  N   UNL     1      36.047 -22.779 -16.489  0.00  0.00    -0.312 N 
ATOM     23  N   UNL     1      36.154 -24.647 -14.330  0.00  0.00    +0.388 N 
ATOM     24  C   UNL     1      37.332 -23.104 -15.862  0.00  0.00    +0.068 C 
ATOM     25  C   UNL     1      34.993 -23.789 -16.336  0.00  0.00    +0.068 C 
ATOM     26  C   UNL     1      37.126 -23.548 -14.412  0.00  0.00    -0.056 C 
ATOM     27  C   UNL     1      34.861 -24.210 -14.870  0.00  0.00    -0.056 C 
ATOM     28  C   UNL     1      36.006 -25.098 -12.947  0.00  0.00    -0.101 C 
ATOM     29  H   UNL     1      36.495 -25.431 -14.885  0.00  0.00    -0.080 HD
ENDBRANCH  16  22
ENDBRANCH  13  19
BRANCH  12  30
ATOM     30  C   UNL     1      32.346 -11.843 -21.799  0.00  0.00    +0.214 C 
BRANCH  30  31
ATOM     31  C   UNL     1      32.130 -10.589 -20.999  0.00  0.00    +0.013 C 
ATOM     32  C   UNL     1      31.719 -10.673 -19.669  0.00  0.00    -0.001 C 
ATOM     33  C   UNL     1      32.341  -9.342 -21.587  0.00  0.00    -0.001 C 
ATOM     34  C   UNL     1      31.518  -9.510 -18.926  0.00  0.00    -0.000 C 
ATOM     35  C   UNL     1      32.139  -8.178 -20.845  0.00  0.00    -0.000 C 
ATOM     36  C   UNL     1      31.728  -8.262 -19.514  0.00  0.00    -0.000 C 
ENDBRANCH  30  31
BRANCH  30  37
ATOM     37  O   UNL     1      33.466 -11.708 -22.653  0.00  0.00    -0.340 OA
ATOM     38  C   UNL     1      33.097 -11.192 -23.928  0.00  0.00    +0.175 C 
ENDBRANCH  30  37
ENDBRANCH  12  30
TORSDOF 5
ENDMDL
