MODEL 1
REMARK VINA RESULT:     -11.1      0.000      0.000
REMARK  Name = 24180719
REMARK  6 active torsions:
REMARK  status: ('A' for Active; 'I' for Inactive)
REMARK    1  A    between atoms: C_3  and  N_22
REMARK    2  A    between atoms: C_4  and  C_10
REMARK    3  A    between atoms: C_10  and  C_14
REMARK    4  A    between atoms: N_22  and  S_24
REMARK    5  A    between atoms: S_24  and  C_27
REMARK    6  A    between atoms: C_27  and  C_28
REMARK                            x       y       z     vdW  Elec       q    Type
REMARK                         _______ _______ _______ _____ _____    ______ ____
ROOT
ATOM      1  F   UNL     1      35.287 -16.580 -20.557  0.00  0.00    -0.203 F 
ATOM      2  F   UNL     1      34.962 -20.177 -23.638  0.00  0.00    -0.204 F 
ATOM      3  C   UNL     1      34.767 -16.132 -22.825  0.00  0.00    +0.092 C 
ATOM      4  C   UNL     1      35.133 -18.398 -22.071  0.00  0.00    +0.095 C 
ATOM      5  C   UNL     1      35.066 -17.031 -21.802  0.00  0.00    +0.160 C 
ATOM      6  C   UNL     1      34.536 -16.599 -24.119  0.00  0.00    +0.020 C 
ATOM      7  C   UNL     1      34.901 -18.865 -23.364  0.00  0.00    +0.145 C 
ATOM      8  C   UNL     1      34.603 -17.966 -24.389  0.00  0.00    +0.031 C 
ENDROOT
BRANCH   4  10
ATOM      9  O   UNL     1      36.637 -19.369 -20.596  0.00  0.00    -0.286 OA
ATOM     10  C   UNL     1      35.452 -19.361 -20.975  0.00  0.00    +0.201 C 
BRANCH  10  14
ATOM     11 CL   UNL     1      36.500 -23.090 -16.456  0.00  0.00    -0.081 Cl
ATOM     12  N   UNL     1      32.465 -21.195 -20.119  0.00  0.00    -0.297 N 
ATOM     13  N   UNL     1      32.972 -22.677 -18.289  0.00  0.00    -0.228 NA
ATOM     14  C   UNL     1      34.441 -20.219 -20.424  0.00  0.00    +0.056 C 
ATOM     15  C   UNL     1      34.563 -21.146 -19.355  0.00  0.00    +0.037 C 
ATOM     16  C   UNL     1      33.313 -21.737 -19.190  0.00  0.00    +0.132 C 
ATOM     17  C   UNL     1      33.140 -20.271 -20.874  0.00  0.00    +0.066 C 
ATOM     18  C   UNL     1      35.593 -21.560 -18.496  0.00  0.00    +0.016 C 
ATOM     19  C   UNL     1      35.293 -22.532 -17.543  0.00  0.00    +0.077 C 
ATOM     20  C   UNL     1      34.001 -23.039 -17.489  0.00  0.00    +0.112 C 
ATOM     21  H   UNL     1      31.516 -21.432 -20.228  0.00  0.00    +0.154 HD
ENDBRANCH  10  14
ENDBRANCH   4  10
BRANCH   3  22
ATOM     22  N   UNL     1      34.697 -14.731 -22.552  0.00  0.00    -0.217 N 
ATOM     23  H   UNL     1      35.279 -14.318 -21.874  0.00  0.00    +0.173 HD
BRANCH  22  24
ATOM     24  S   UNL     1      33.566 -13.785 -23.442  0.00  0.00    +0.054 S 
ATOM     25  O   UNL     1      34.191 -12.520 -23.778  0.00  0.00    -0.154 OA
ATOM     26  O   UNL     1      32.916 -14.580 -24.464  0.00  0.00    -0.154 OA
BRANCH  24  27
ATOM     27  C   UNL     1      32.370 -13.447 -22.170  0.00  0.00    +0.172 C 
BRANCH  27  28
ATOM     28  C   UNL     1      33.005 -13.481 -20.790  0.00  0.00    +0.027 C 
ATOM     29  C   UNL     1      32.300 -14.472 -19.877  0.00  0.00    +0.002 C 
ENDBRANCH  27  28
ENDBRANCH  24  27
ENDBRANCH  22  24
ENDBRANCH   3  22
TORSDOF 6
ENDMDL
MODEL 2
REMARK VINA RESULT:     -11.0      4.043      8.074
REMARK  Name = 24180719
REMARK  6 active torsions:
REMARK  status: ('A' for Active; 'I' for Inactive)
REMARK    1  A    between atoms: C_3  and  N_22
REMARK    2  A    between atoms: C_4  and  C_10
REMARK    3  A    between atoms: C_10  and  C_14
REMARK    4  A    between atoms: N_22  and  S_24
REMARK    5  A    between atoms: S_24  and  C_27
REMARK    6  A    between atoms: C_27  and  C_28
REMARK                            x       y       z     vdW  Elec       q    Type
REMARK                         _______ _______ _______ _____ _____    ______ ____
ROOT
ATOM      1  F   UNL     1      33.151 -19.783 -21.255  0.00  0.00    -0.203 F 
ATOM      2  F   UNL     1      37.784 -18.754 -21.332  0.00  0.00    -0.204 F 
ATOM      3  C   UNL     1      34.642 -21.002 -19.873  0.00  0.00    +0.092 C 
ATOM      4  C   UNL     1      35.460 -19.246 -21.317  0.00  0.00    +0.095 C 
ATOM      5  C   UNL     1      34.401 -20.008 -20.821  0.00  0.00    +0.160 C 
ATOM      6  C   UNL     1      35.940 -21.236 -19.422  0.00  0.00    +0.020 C 
ATOM      7  C   UNL     1      36.758 -19.479 -20.865  0.00  0.00    +0.145 C 
ATOM      8  C   UNL     1      36.999 -20.475 -19.917  0.00  0.00    +0.031 C 
ENDROOT
BRANCH   4  10
ATOM      9  O   UNL     1      35.291 -18.538 -23.520  0.00  0.00    -0.286 OA
ATOM     10  C   UNL     1      35.202 -18.180 -22.332  0.00  0.00    +0.201 C 
BRANCH  10  14
ATOM     11 CL   UNL     1      33.375 -14.018 -26.174  0.00  0.00    -0.081 Cl
ATOM     12  N   UNL     1      34.603 -15.054 -20.632  0.00  0.00    -0.297 N 
ATOM     13  N   UNL     1      33.870 -13.428 -22.251  0.00  0.00    -0.228 NA
ATOM     14  C   UNL     1      34.889 -16.837 -21.932  0.00  0.00    +0.056 C 
ATOM     15  C   UNL     1      34.447 -15.760 -22.745  0.00  0.00    +0.037 C 
ATOM     16  C   UNL     1      34.277 -14.663 -21.904  0.00  0.00    +0.132 C 
ATOM     17  C   UNL     1      34.976 -16.374 -20.638  0.00  0.00    +0.066 C 
ATOM     18  C   UNL     1      34.165 -15.578 -24.109  0.00  0.00    +0.016 C 
ATOM     19  C   UNL     1      33.739 -14.317 -24.522  0.00  0.00    +0.077 C 
ATOM     20  C   UNL     1      33.614 -13.310 -23.575  0.00  0.00    +0.112 C 
ATOM     21  H   UNL     1      34.573 -14.476 -19.836  0.00  0.00    +0.154 HD
ENDBRANCH  10  14
ENDBRANCH   4  10
BRANCH   3  22
ATOM     22  N   UNL     1      33.560 -21.784 -19.364  0.00  0.00    -0.217 N 
ATOM     23  H   UNL     1      32.630 -21.585 -19.616  0.00  0.00    +0.173 HD
BRANCH  22  24
ATOM     24  S   UNL     1      33.929 -23.084 -18.295  0.00  0.00    +0.054 S 
ATOM     25  O   UNL     1      33.852 -24.326 -19.041  0.00  0.00    -0.154 OA
ATOM     26  O   UNL     1      35.095 -22.778 -17.491  0.00  0.00    -0.154 OA
BRANCH  24  27
ATOM     27  C   UNL     1      32.504 -23.031 -17.233  0.00  0.00    +0.172 C 
BRANCH  27  28
ATOM     28  C   UNL     1      32.833 -23.543 -15.840  0.00  0.00    +0.027 C 
ATOM     29  C   UNL     1      31.718 -23.232 -14.855  0.00  0.00    +0.002 C 
ENDBRANCH  27  28
ENDBRANCH  24  27
ENDBRANCH  22  24
ENDBRANCH   3  22
TORSDOF 6
ENDMDL
MODEL 3
REMARK VINA RESULT:     -10.6      3.613      5.745
REMARK  Name = 24180719
REMARK  6 active torsions:
REMARK  status: ('A' for Active; 'I' for Inactive)
REMARK    1  A    between atoms: C_3  and  N_22
REMARK    2  A    between atoms: C_4  and  C_10
REMARK    3  A    between atoms: C_10  and  C_14
REMARK    4  A    between atoms: N_22  and  S_24
REMARK    5  A    between atoms: S_24  and  C_27
REMARK    6  A    between atoms: C_27  and  C_28
REMARK                            x       y       z     vdW  Elec       q    Type
REMARK                         _______ _______ _______ _____ _____    ______ ____
ROOT
ATOM      1  F   UNL     1      33.027 -21.755 -19.984  0.00  0.00    -0.203 F 
ATOM      2  F   UNL     1      36.609 -22.903 -17.088  0.00  0.00    -0.204 F 
ATOM      3  C   UNL     1      35.078 -20.578 -20.139  0.00  0.00    +0.092 C 
ATOM      4  C   UNL     1      34.797 -22.351 -18.523  0.00  0.00    +0.095 C 
ATOM      5  C   UNL     1      34.284 -21.564 -19.554  0.00  0.00    +0.160 C 
ATOM      6  C   UNL     1      36.384 -20.378 -19.693  0.00  0.00    +0.020 C 
ATOM      7  C   UNL     1      36.103 -22.152 -18.077  0.00  0.00    +0.145 C 
ATOM      8  C   UNL     1      36.897 -21.165 -18.662  0.00  0.00    +0.031 C 
ENDROOT
BRANCH   4  10
ATOM      9  O   UNL     1      33.634 -24.355 -18.640  0.00  0.00    -0.286 OA
ATOM     10  C   UNL     1      33.947 -23.408 -17.896  0.00  0.00    +0.201 C 
BRANCH  10  14
ATOM     11 CL   UNL     1      28.217 -23.123 -16.311  0.00  0.00    -0.081 Cl
ATOM     12  N   UNL     1      33.629 -23.159 -14.311  0.00  0.00    -0.297 N 
ATOM     13  N   UNL     1      31.288 -23.048 -13.754  0.00  0.00    -0.228 NA
ATOM     14  C   UNL     1      33.523 -23.304 -16.529  0.00  0.00    +0.056 C 
ATOM     15  C   UNL     1      32.198 -23.228 -16.023  0.00  0.00    +0.037 C 
ATOM     16  C   UNL     1      32.299 -23.139 -14.638  0.00  0.00    +0.132 C 
ATOM     17  C   UNL     1      34.382 -23.259 -15.453  0.00  0.00    +0.066 C 
ATOM     18  C   UNL     1      30.908 -23.225 -16.579  0.00  0.00    +0.016 C 
ATOM     19  C   UNL     1      29.825 -23.132 -15.707  0.00  0.00    +0.077 C 
ATOM     20  C   UNL     1      30.070 -23.048 -14.343  0.00  0.00    +0.112 C 
ATOM     21  H   UNL     1      33.990 -23.109 -13.396  0.00  0.00    +0.154 HD
ENDBRANCH  10  14
ENDBRANCH   4  10
BRANCH   3  22
ATOM     22  N   UNL     1      34.555 -19.769 -21.195  0.00  0.00    -0.217 N 
ATOM     23  H   UNL     1      33.708 -20.002 -21.639  0.00  0.00    +0.173 HD
BRANCH  22  24
ATOM     24  S   UNL     1      35.450 -18.377 -21.671  0.00  0.00    +0.054 S 
ATOM     25  O   UNL     1      35.121 -17.290 -20.767  0.00  0.00    -0.154 OA
ATOM     26  O   UNL     1      36.832 -18.716 -21.943  0.00  0.00    -0.154 OA
BRANCH  24  27
ATOM     27  C   UNL     1      34.662 -18.013 -23.223  0.00  0.00    +0.172 C 
BRANCH  27  28
ATOM     28  C   UNL     1      34.952 -16.590 -23.671  0.00  0.00    +0.027 C 
ATOM     29  C   UNL     1      33.929 -16.106 -24.685  0.00  0.00    +0.002 C 
ENDBRANCH  27  28
ENDBRANCH  24  27
ENDBRANCH  22  24
ENDBRANCH   3  22
TORSDOF 6
ENDMDL
MODEL 4
REMARK VINA RESULT:     -10.5      4.361      6.819
REMARK  Name = 24180719
REMARK  6 active torsions:
REMARK  status: ('A' for Active; 'I' for Inactive)
REMARK    1  A    between atoms: C_3  and  N_22
REMARK    2  A    between atoms: C_4  and  C_10
REMARK    3  A    between atoms: C_10  and  C_14
REMARK    4  A    between atoms: N_22  and  S_24
REMARK    5  A    between atoms: S_24  and  C_27
REMARK    6  A    between atoms: C_27  and  C_28
REMARK                            x       y       z     vdW  Elec       q    Type
REMARK                         _______ _______ _______ _____ _____    ______ ____
ROOT
ATOM      1  F   UNL     1      34.081 -11.433 -23.775  0.00  0.00    -0.203 F 
ATOM      2  F   UNL     1      31.865 -13.982 -20.440  0.00  0.00    -0.204 F 
ATOM      3  C   UNL     1      32.092 -10.596 -22.795  0.00  0.00    +0.092 C 
ATOM      4  C   UNL     1      32.997 -12.730 -22.113  0.00  0.00    +0.095 C 
ATOM      5  C   UNL     1      33.069 -11.585 -22.906  0.00  0.00    +0.160 C 
ATOM      6  C   UNL     1      31.040 -10.753 -21.893  0.00  0.00    +0.020 C 
ATOM      7  C   UNL     1      31.946 -12.886 -21.209  0.00  0.00    +0.145 C 
ATOM      8  C   UNL     1      30.967 -11.898 -21.099  0.00  0.00    +0.031 C 
ENDROOT
BRANCH   4  10
ATOM      9  O   UNL     1      35.003 -13.685 -21.443  0.00  0.00    -0.286 OA
ATOM     10  C   UNL     1      34.045 -13.789 -22.231  0.00  0.00    +0.201 C 
BRANCH  10  14
ATOM     11 CL   UNL     1      36.267 -19.243 -21.374  0.00  0.00    -0.081 Cl
ATOM     12  N   UNL     1      33.397 -15.891 -25.091  0.00  0.00    -0.297 N 
ATOM     13  N   UNL     1      34.325 -18.073 -24.665  0.00  0.00    -0.228 NA
ATOM     14  C   UNL     1      33.933 -14.835 -23.207  0.00  0.00    +0.056 C 
ATOM     15  C   UNL     1      34.417 -16.168 -23.124  0.00  0.00    +0.037 C 
ATOM     16  C   UNL     1      34.066 -16.800 -24.314  0.00  0.00    +0.132 C 
ATOM     17  C   UNL     1      33.311 -14.694 -24.427  0.00  0.00    +0.066 C 
ATOM     18  C   UNL     1      35.118 -16.926 -22.172  0.00  0.00    +0.016 C 
ATOM     19  C   UNL     1      35.413 -18.252 -22.486  0.00  0.00    +0.077 C 
ATOM     20  C   UNL     1      35.002 -18.755 -23.713  0.00  0.00    +0.112 C 
ATOM     21  H   UNL     1      33.033 -16.070 -25.988  0.00  0.00    +0.154 HD
ENDBRANCH  10  14
ENDBRANCH   4  10
BRANCH   3  22
ATOM     22  N   UNL     1      32.163  -9.423 -23.607  0.00  0.00    -0.217 N 
ATOM     23  H   UNL     1      31.775  -9.408 -24.511  0.00  0.00    +0.173 HD
BRANCH  22  24
ATOM     24  S   UNL     1      32.949  -8.034 -22.958  0.00  0.00    +0.054 S 
ATOM     25  O   UNL     1      32.267  -6.851 -23.449  0.00  0.00    -0.154 OA
ATOM     26  O   UNL     1      33.210  -8.200 -21.542  0.00  0.00    -0.154 OA
BRANCH  24  27
ATOM     27  C   UNL     1      34.505  -8.125 -23.814  0.00  0.00    +0.172 C 
BRANCH  27  28
ATOM     28  C   UNL     1      35.275  -6.819 -23.703  0.00  0.00    +0.027 C 
ATOM     29  C   UNL     1      35.280  -6.062 -25.021  0.00  0.00    +0.002 C 
ENDBRANCH  27  28
ENDBRANCH  24  27
ENDBRANCH  22  24
ENDBRANCH   3  22
TORSDOF 6
ENDMDL
MODEL 5
REMARK VINA RESULT:     -10.4      6.027      9.865
REMARK  Name = 24180719
REMARK  6 active torsions:
REMARK  status: ('A' for Active; 'I' for Inactive)
REMARK    1  A    between atoms: C_3  and  N_22
REMARK    2  A    between atoms: C_4  and  C_10
REMARK    3  A    between atoms: C_10  and  C_14
REMARK    4  A    between atoms: N_22  and  S_24
REMARK    5  A    between atoms: S_24  and  C_27
REMARK    6  A    between atoms: C_27  and  C_28
REMARK                            x       y       z     vdW  Elec       q    Type
REMARK                         _______ _______ _______ _____ _____    ______ ____
ROOT
ATOM      1  F   UNL     1      35.359 -24.710 -16.104  0.00  0.00    -0.203 F 
ATOM      2  F   UNL     1      31.619 -22.184 -17.576  0.00  0.00    -0.204 F 
ATOM      3  C   UNL     1      33.534 -24.360 -14.633  0.00  0.00    +0.092 C 
ATOM      4  C   UNL     1      33.506 -23.443 -16.869  0.00  0.00    +0.095 C 
ATOM      5  C   UNL     1      34.149 -24.178 -15.871  0.00  0.00    +0.160 C 
ATOM      6  C   UNL     1      32.277 -23.807 -14.391  0.00  0.00    +0.020 C 
ATOM      7  C   UNL     1      32.248 -22.892 -16.626  0.00  0.00    +0.145 C 
ATOM      8  C   UNL     1      31.633 -23.073 -15.387  0.00  0.00    +0.031 C 
ENDROOT
BRANCH   4  10
ATOM      9  O   UNL     1      33.771 -24.002 -19.105  0.00  0.00    -0.286 OA
ATOM     10  C   UNL     1      34.164 -23.249 -18.196  0.00  0.00    +0.201 C 
BRANCH  10  14
ATOM     11 CL   UNL     1      34.170 -19.407 -22.741  0.00  0.00    -0.081 Cl
ATOM     12  N   UNL     1      37.031 -21.066 -18.013  0.00  0.00    -0.297 N 
ATOM     13  N   UNL     1      36.959 -19.547 -19.881  0.00  0.00    -0.228 NA
ATOM     14  C   UNL     1      35.189 -22.261 -18.376  0.00  0.00    +0.056 C 
ATOM     15  C   UNL     1      35.304 -21.294 -19.411  0.00  0.00    +0.037 C 
ATOM     16  C   UNL     1      36.462 -20.565 -19.154  0.00  0.00    +0.132 C 
ATOM     17  C   UNL     1      36.265 -22.097 -17.531  0.00  0.00    +0.066 C 
ATOM     18  C   UNL     1      34.558 -20.943 -20.547  0.00  0.00    +0.016 C 
ATOM     19  C   UNL     1      35.028 -19.894 -21.335  0.00  0.00    +0.077 C 
ATOM     20  C   UNL     1      36.202 -19.253 -20.963  0.00  0.00    +0.112 C 
ATOM     21  H   UNL     1      37.861 -20.736 -17.600  0.00  0.00    +0.154 HD
ENDBRANCH  10  14
ENDBRANCH   4  10
BRANCH   3  22
ATOM     22  N   UNL     1      34.190 -25.111 -13.610  0.00  0.00    -0.217 N 
ATOM     23  H   UNL     1      33.984 -26.063 -13.471  0.00  0.00    +0.173 HD
BRANCH  22  24
ATOM     24  S   UNL     1      35.350 -24.304 -12.626  0.00  0.00    +0.054 S 
ATOM     25  O   UNL     1      36.015 -23.297 -13.433  0.00  0.00    -0.154 OA
ATOM     26  O   UNL     1      34.786 -23.960 -11.336  0.00  0.00    -0.154 OA
BRANCH  24  27
ATOM     27  C   UNL     1      36.520 -25.619 -12.377  0.00  0.00    +0.172 C 
BRANCH  27  28
ATOM     28  C   UNL     1      37.472 -25.745 -13.555  0.00  0.00    +0.027 C 
ATOM     29  C   UNL     1      37.165 -26.978 -14.389  0.00  0.00    +0.002 C 
ENDBRANCH  27  28
ENDBRANCH  24  27
ENDBRANCH  22  24
ENDBRANCH   3  22
TORSDOF 6
ENDMDL
MODEL 6
REMARK VINA RESULT:     -10.4      3.231      5.363
REMARK  Name = 24180719
REMARK  6 active torsions:
REMARK  status: ('A' for Active; 'I' for Inactive)
REMARK    1  A    between atoms: C_3  and  N_22
REMARK    2  A    between atoms: C_4  and  C_10
REMARK    3  A    between atoms: C_10  and  C_14
REMARK    4  A    between atoms: N_22  and  S_24
REMARK    5  A    between atoms: S_24  and  C_27
REMARK    6  A    between atoms: C_27  and  C_28
REMARK                            x       y       z     vdW  Elec       q    Type
REMARK                         _______ _______ _______ _____ _____    ______ ____
ROOT
ATOM      1  F   UNL     1      33.043 -21.763 -20.265  0.00  0.00    -0.203 F 
ATOM      2  F   UNL     1      36.395 -22.982 -17.132  0.00  0.00    -0.204 F 
ATOM      3  C   UNL     1      35.069 -20.536 -20.185  0.00  0.00    +0.092 C 
ATOM      4  C   UNL     1      34.698 -22.396 -18.689  0.00  0.00    +0.095 C 
ATOM      5  C   UNL     1      34.254 -21.567 -19.720  0.00  0.00    +0.160 C 
ATOM      6  C   UNL     1      36.327 -20.332 -19.619  0.00  0.00    +0.020 C 
ATOM      7  C   UNL     1      35.956 -22.192 -18.123  0.00  0.00    +0.145 C 
ATOM      8  C   UNL     1      36.771 -21.160 -18.588  0.00  0.00    +0.031 C 
ENDROOT
BRANCH   4  10
ATOM      9  O   UNL     1      33.718 -24.483 -18.947  0.00  0.00    -0.286 OA
ATOM     10  C   UNL     1      33.825 -23.502 -18.191  0.00  0.00    +0.201 C 
BRANCH  10  14
ATOM     11 CL   UNL     1      36.256 -25.403 -13.102  0.00  0.00    -0.081 Cl
ATOM     12  N   UNL     1      31.582 -22.939 -15.420  0.00  0.00    -0.297 N 
ATOM     13  N   UNL     1      32.637 -23.733 -13.406  0.00  0.00    -0.228 NA
ATOM     14  C   UNL     1      33.155 -23.403 -16.925  0.00  0.00    +0.056 C 
ATOM     15  C   UNL     1      33.623 -23.817 -15.649  0.00  0.00    +0.037 C 
ATOM     16  C   UNL     1      32.619 -23.513 -14.733  0.00  0.00    +0.132 C 
ATOM     17  C   UNL     1      31.897 -22.867 -16.753  0.00  0.00    +0.066 C 
ATOM     18  C   UNL     1      34.790 -24.419 -15.153  0.00  0.00    +0.016 C 
ATOM     19  C   UNL     1      34.861 -24.670 -13.783  0.00  0.00    +0.077 C 
ATOM     20  C   UNL     1      33.783 -24.315 -12.983  0.00  0.00    +0.112 C 
ATOM     21  H   UNL     1      30.740 -22.625 -15.019  0.00  0.00    +0.154 HD
ENDBRANCH  10  14
ENDBRANCH   4  10
BRANCH   3  22
ATOM     22  N   UNL     1      34.618 -19.686 -21.241  0.00  0.00    -0.217 N 
ATOM     23  H   UNL     1      33.793 -19.890 -21.738  0.00  0.00    +0.173 HD
BRANCH  22  24
ATOM     24  S   UNL     1      35.557 -18.293 -21.620  0.00  0.00    +0.054 S 
ATOM     25  O   UNL     1      35.208 -17.237 -20.688  0.00  0.00    -0.154 OA
ATOM     26  O   UNL     1      36.944 -18.648 -21.846  0.00  0.00    -0.154 OA
BRANCH  24  27
ATOM     27  C   UNL     1      34.845 -17.852 -23.189  0.00  0.00    +0.172 C 
BRANCH  27  28
ATOM     28  C   UNL     1      34.763 -16.343 -23.356  0.00  0.00    +0.027 C 
ATOM     29  C   UNL     1      34.080 -15.963 -24.659  0.00  0.00    +0.002 C 
ENDBRANCH  27  28
ENDBRANCH  24  27
ENDBRANCH  22  24
ENDBRANCH   3  22
TORSDOF 6
ENDMDL
MODEL 7
REMARK VINA RESULT:     -10.3      4.265      8.212
REMARK  Name = 24180719
REMARK  6 active torsions:
REMARK  status: ('A' for Active; 'I' for Inactive)
REMARK    1  A    between atoms: C_3  and  N_22
REMARK    2  A    between atoms: C_4  and  C_10
REMARK    3  A    between atoms: C_10  and  C_14
REMARK    4  A    between atoms: N_22  and  S_24
REMARK    5  A    between atoms: S_24  and  C_27
REMARK    6  A    between atoms: C_27  and  C_28
REMARK                            x       y       z     vdW  Elec       q    Type
REMARK                         _______ _______ _______ _____ _____    ______ ____
ROOT
ATOM      1  F   UNL     1      37.390 -20.712 -19.488  0.00  0.00    -0.203 F 
ATOM      2  F   UNL     1      32.999 -19.894 -21.094  0.00  0.00    -0.204 F 
ATOM      3  C   UNL     1      35.587 -22.018 -18.676  0.00  0.00    +0.092 C 
ATOM      4  C   UNL     1      35.208 -20.279 -20.309  0.00  0.00    +0.095 C 
ATOM      5  C   UNL     1      36.079 -20.999 -19.491  0.00  0.00    +0.160 C 
ATOM      6  C   UNL     1      34.225 -22.318 -18.678  0.00  0.00    +0.020 C 
ATOM      7  C   UNL     1      33.847 -20.578 -20.312  0.00  0.00    +0.145 C 
ATOM      8  C   UNL     1      33.355 -21.598 -19.496  0.00  0.00    +0.031 C 
ENDROOT
BRANCH   4  10
ATOM      9  O   UNL     1      36.696 -18.546 -20.720  0.00  0.00    -0.286 OA
ATOM     10  C   UNL     1      35.735 -19.187 -21.183  0.00  0.00    +0.201 C 
BRANCH  10  14
ATOM     11 CL   UNL     1      34.423 -13.673 -22.997  0.00  0.00    -0.081 Cl
ATOM     12  N   UNL     1      34.276 -19.246 -24.482  0.00  0.00    -0.297 N 
ATOM     13  N   UNL     1      33.775 -16.984 -25.141  0.00  0.00    -0.228 NA
ATOM     14  C   UNL     1      35.143 -18.910 -22.460  0.00  0.00    +0.056 C 
ATOM     15  C   UNL     1      34.784 -17.649 -23.007  0.00  0.00    +0.037 C 
ATOM     16  C   UNL     1      34.247 -17.893 -24.268  0.00  0.00    +0.132 C 
ATOM     17  C   UNL     1      34.819 -19.873 -23.390  0.00  0.00    +0.066 C 
ATOM     18  C   UNL     1      34.851 -16.312 -22.581  0.00  0.00    +0.016 C 
ATOM     19  C   UNL     1      34.375 -15.329 -23.447  0.00  0.00    +0.077 C 
ATOM     20  C   UNL     1      33.863 -15.715 -24.679  0.00  0.00    +0.112 C 
ATOM     21  H   UNL     1      33.957 -19.699 -25.295  0.00  0.00    +0.154 HD
ENDBRANCH  10  14
ENDBRANCH   4  10
BRANCH   3  22
ATOM     22  N   UNL     1      36.477 -22.758 -17.837  0.00  0.00    -0.217 N 
ATOM     23  H   UNL     1      36.925 -23.570 -18.166  0.00  0.00    +0.173 HD
BRANCH  22  24
ATOM     24  S   UNL     1      36.742 -22.189 -16.233  0.00  0.00    +0.054 S 
ATOM     25  O   UNL     1      37.479 -20.940 -16.306  0.00  0.00    -0.154 OA
ATOM     26  O   UNL     1      35.532 -22.285 -15.442  0.00  0.00    -0.154 OA
BRANCH  24  27
ATOM     27  C   UNL     1      37.878 -23.424 -15.646  0.00  0.00    +0.172 C 
BRANCH  27  28
ATOM     28  C   UNL     1      37.365 -24.092 -14.381  0.00  0.00    +0.027 C 
ATOM     29  C   UNL     1      37.209 -25.592 -14.567  0.00  0.00    +0.002 C 
ENDBRANCH  27  28
ENDBRANCH  24  27
ENDBRANCH  22  24
ENDBRANCH   3  22
TORSDOF 6
ENDMDL
MODEL 8
REMARK VINA RESULT:     -10.2      4.462      8.625
REMARK  Name = 24180719
REMARK  6 active torsions:
REMARK  status: ('A' for Active; 'I' for Inactive)
REMARK    1  A    between atoms: C_3  and  N_22
REMARK    2  A    between atoms: C_4  and  C_10
REMARK    3  A    between atoms: C_10  and  C_14
REMARK    4  A    between atoms: N_22  and  S_24
REMARK    5  A    between atoms: S_24  and  C_27
REMARK    6  A    between atoms: C_27  and  C_28
REMARK                            x       y       z     vdW  Elec       q    Type
REMARK                         _______ _______ _______ _____ _____    ______ ____
ROOT
ATOM      1  F   UNL     1      34.857 -14.442 -21.372  0.00  0.00    -0.203 F 
ATOM      2  F   UNL     1      33.398 -14.892 -25.866  0.00  0.00    -0.204 F 
ATOM      3  C   UNL     1      34.860 -16.581 -22.393  0.00  0.00    +0.092 C 
ATOM      4  C   UNL     1      34.122 -14.634 -23.618  0.00  0.00    +0.095 C 
ATOM      5  C   UNL     1      34.616 -15.209 -22.446  0.00  0.00    +0.160 C 
ATOM      6  C   UNL     1      34.610 -17.379 -23.509  0.00  0.00    +0.020 C 
ATOM      7  C   UNL     1      33.872 -15.431 -24.734  0.00  0.00    +0.145 C 
ATOM      8  C   UNL     1      34.116 -16.804 -24.680  0.00  0.00    +0.031 C 
ENDROOT
BRANCH   4  10
ATOM      9  O   UNL     1      34.548 -12.529 -24.496  0.00  0.00    -0.286 OA
ATOM     10  C   UNL     1      33.860 -13.164 -23.676  0.00  0.00    +0.201 C 
BRANCH  10  14
ATOM     11 CL   UNL     1      33.332  -7.264 -23.101  0.00  0.00    -0.081 Cl
ATOM     12  N   UNL     1      31.212 -12.342 -21.368  0.00  0.00    -0.297 N 
ATOM     13  N   UNL     1      31.063  -9.945 -21.192  0.00  0.00    -0.228 NA
ATOM     14  C   UNL     1      32.885 -12.551 -22.820  0.00  0.00    +0.056 C 
ATOM     15  C   UNL     1      32.659 -11.167 -22.596  0.00  0.00    +0.037 C 
ATOM     16  C   UNL     1      31.609 -11.071 -21.687  0.00  0.00    +0.132 C 
ATOM     17  C   UNL     1      31.980 -13.250 -22.051  0.00  0.00    +0.066 C 
ATOM     18  C   UNL     1      33.223  -9.968 -23.061  0.00  0.00    +0.016 C 
ATOM     19  C   UNL     1      32.695  -8.771 -22.580  0.00  0.00    +0.077 C 
ATOM     20  C   UNL     1      31.645  -8.821 -21.672  0.00  0.00    +0.112 C 
ATOM     21  H   UNL     1      30.485 -12.570 -20.744  0.00  0.00    +0.154 HD
ENDBRANCH  10  14
ENDBRANCH   4  10
BRANCH   3  22
ATOM     22  N   UNL     1      35.366 -17.173 -21.195  0.00  0.00    -0.217 N 
ATOM     23  H   UNL     1      35.293 -16.708 -20.330  0.00  0.00    +0.173 HD
BRANCH  22  24
ATOM     24  S   UNL     1      36.109 -18.723 -21.305  0.00  0.00    +0.054 S 
ATOM     25  O   UNL     1      36.746 -18.835 -22.604  0.00  0.00    -0.154 OA
ATOM     26  O   UNL     1      36.844 -19.032 -20.095  0.00  0.00    -0.154 OA
BRANCH  24  27
ATOM     27  C   UNL     1      34.665 -19.761 -21.347  0.00  0.00    +0.172 C 
BRANCH  27  28
ATOM     28  C   UNL     1      34.614 -20.686 -20.142  0.00  0.00    +0.027 C 
ATOM     29  C   UNL     1      33.182 -21.030 -19.766  0.00  0.00    +0.002 C 
ENDBRANCH  27  28
ENDBRANCH  24  27
ENDBRANCH  22  24
ENDBRANCH   3  22
TORSDOF 6
ENDMDL
MODEL 9
REMARK VINA RESULT:     -10.0      5.860      8.867
REMARK  Name = 24180719
REMARK  6 active torsions:
REMARK  status: ('A' for Active; 'I' for Inactive)
REMARK    1  A    between atoms: C_3  and  N_22
REMARK    2  A    between atoms: C_4  and  C_10
REMARK    3  A    between atoms: C_10  and  C_14
REMARK    4  A    between atoms: N_22  and  S_24
REMARK    5  A    between atoms: S_24  and  C_27
REMARK    6  A    between atoms: C_27  and  C_28
REMARK                            x       y       z     vdW  Elec       q    Type
REMARK                         _______ _______ _______ _____ _____    ______ ____
ROOT
ATOM      1  F   UNL     1      31.522 -22.417 -17.895  0.00  0.00    -0.203 F 
ATOM      2  F   UNL     1      35.387 -24.324 -15.905  0.00  0.00    -0.204 F 
ATOM      3  C   UNL     1      31.462 -23.070 -15.617  0.00  0.00    +0.092 C 
ATOM      4  C   UNL     1      33.469 -23.367 -16.930  0.00  0.00    +0.095 C 
ATOM      5  C   UNL     1      32.143 -22.945 -16.828  0.00  0.00    +0.160 C 
ATOM      6  C   UNL     1      32.106 -23.618 -14.508  0.00  0.00    +0.020 C 
ATOM      7  C   UNL     1      34.113 -23.915 -15.821  0.00  0.00    +0.145 C 
ATOM      8  C   UNL     1      33.431 -24.041 -14.609  0.00  0.00    +0.031 C 
ENDROOT
BRANCH   4  10
ATOM      9  O   UNL     1      33.873 -24.044 -19.112  0.00  0.00    -0.286 OA
ATOM     10  C   UNL     1      34.198 -23.233 -18.227  0.00  0.00    +0.201 C 
BRANCH  10  14
ATOM     11 CL   UNL     1      34.186 -19.411 -22.788  0.00  0.00    -0.081 Cl
ATOM     12  N   UNL     1      37.038 -21.015 -18.036  0.00  0.00    -0.297 N 
ATOM     13  N   UNL     1      36.960 -19.505 -19.912  0.00  0.00    -0.228 NA
ATOM     14  C   UNL     1      35.213 -22.233 -18.405  0.00  0.00    +0.056 C 
ATOM     15  C   UNL     1      35.323 -21.270 -19.443  0.00  0.00    +0.037 C 
ATOM     16  C   UNL     1      36.470 -20.526 -19.183  0.00  0.00    +0.132 C 
ATOM     17  C   UNL     1      36.281 -22.053 -17.555  0.00  0.00    +0.066 C 
ATOM     18  C   UNL     1      34.578 -20.932 -20.585  0.00  0.00    +0.016 C 
ATOM     19  C   UNL     1      35.042 -19.882 -21.376  0.00  0.00    +0.077 C 
ATOM     20  C   UNL     1      36.205 -19.225 -20.999  0.00  0.00    +0.112 C 
ATOM     21  H   UNL     1      37.862 -20.674 -17.621  0.00  0.00    +0.154 HD
ENDBRANCH  10  14
ENDBRANCH   4  10
BRANCH   3  22
ATOM     22  N   UNL     1      30.105 -22.638 -15.510  0.00  0.00    -0.217 N 
ATOM     23  H   UNL     1      29.886 -21.706 -15.280  0.00  0.00    +0.173 HD
BRANCH  22  24
ATOM     24  S   UNL     1      28.859 -23.794 -15.792  0.00  0.00    +0.054 S 
ATOM     25  O   UNL     1      28.964 -24.255 -17.164  0.00  0.00    -0.154 OA
ATOM     26  O   UNL     1      28.776 -24.743 -14.700  0.00  0.00    -0.154 OA
BRANCH  24  27
ATOM     27  C   UNL     1      27.429 -22.741 -15.710  0.00  0.00    +0.172 C 
BRANCH  27  28
ATOM     28  C   UNL     1      26.871 -22.456 -17.095  0.00  0.00    +0.027 C 
ATOM     29  C   UNL     1      25.838 -21.342 -17.060  0.00  0.00    +0.002 C 
ENDBRANCH  27  28
ENDBRANCH  24  27
ENDBRANCH  22  24
ENDBRANCH   3  22
TORSDOF 6
ENDMDL
