MODEL 1
REMARK VINA RESULT:     -12.8      0.000      0.000
REMARK  Name = 21081761
REMARK  5 active torsions:
REMARK  status: ('A' for Active; 'I' for Inactive)
REMARK    1  A    between atoms: N_2  and  C_6
REMARK    2  A    between atoms: C_3  and  C_25
REMARK    3  A    between atoms: C_7  and  O_12
REMARK    4  A    between atoms: O_12  and  C_16
REMARK    5  A    between atoms: N_24  and  C_31
REMARK                            x       y       z     vdW  Elec       q    Type
REMARK                         _______ _______ _______ _____ _____    ______ ____
ROOT
ATOM      1  O   UNL     1      35.093 -14.030 -21.390  0.00  0.00    -0.270 OA
ATOM      2  N   UNL     1      33.186 -14.163 -22.773  0.00  0.00    -0.280 N 
ATOM      3  C   UNL     1      34.342 -14.634 -22.146  0.00  0.00    +0.254 C 
ATOM      4  H   UNL     1      32.714 -14.806 -23.350  0.00  0.00    +0.155 HD
ENDROOT
BRANCH   2   6
ATOM      5  F   UNL     1      30.059 -11.145 -20.778  0.00  0.00    -0.201 F 
ATOM      6  C   UNL     1      32.619 -12.892 -22.682  0.00  0.00    +0.053 C 
ATOM      7  C   UNL     1      31.484 -10.350 -22.500  0.00  0.00    +0.173 C 
ATOM      8  C   UNL     1      31.602 -12.645 -21.759  0.00  0.00    +0.047 C 
ATOM      9  C   UNL     1      33.069 -11.866 -23.513  0.00  0.00    +0.018 C 
ATOM     10  C   UNL     1      31.034 -11.375 -21.668  0.00  0.00    +0.176 C 
ATOM     11  C   UNL     1      32.500 -10.595 -23.423  0.00  0.00    +0.041 C 
BRANCH   7  12
ATOM     12  O   UNL     1      30.921  -9.091 -22.412  0.00  0.00    -0.451 OA
BRANCH  12  16
ATOM     13  N   UNL     1      32.376  -4.687 -22.007  0.00  0.00    -0.297 N 
ATOM     14  N   UNL     1      33.081  -6.176 -20.250  0.00  0.00    -0.229 NA
ATOM     15  C   UNL     1      31.694  -6.807 -22.172  0.00  0.00    +0.067 C 
ATOM     16  C   UNL     1      31.615  -8.136 -21.724  0.00  0.00    +0.150 C 
ATOM     17  C   UNL     1      32.427  -5.913 -21.397  0.00  0.00    +0.135 C 
ATOM     18  C   UNL     1      31.193  -6.075 -23.282  0.00  0.00    +0.022 C 
ATOM     19  C   UNL     1      31.629  -4.774 -23.154  0.00  0.00    +0.063 C 
ATOM     20  C   UNL     1      32.274  -8.464 -20.540  0.00  0.00    +0.058 C 
ATOM     21  C   UNL     1      32.971  -7.470 -19.867  0.00  0.00    +0.103 C 
ATOM     22  H   UNL     1      32.809  -3.868 -21.674  0.00  0.00    +0.154 HD
ENDBRANCH  12  16
ENDBRANCH   7  12
ENDBRANCH   2   6
BRANCH   3  25
ATOM     23  O   UNL     1      34.944 -16.714 -20.261  0.00  0.00    -0.269 OA
ATOM     24  N   UNL     1      35.108 -18.402 -21.910  0.00  0.00    -0.233 N 
ATOM     25  C   UNL     1      34.631 -16.033 -22.480  0.00  0.00    +0.108 C 
ATOM     26  C   UNL     1      34.893 -17.081 -21.436  0.00  0.00    +0.261 C 
ATOM     27  C   UNL     1      35.142 -18.649 -23.282  0.00  0.00    +0.072 C 
ATOM     28  C   UNL     1      34.671 -16.349 -23.780  0.00  0.00    +0.010 C 
ATOM     29  C   UNL     1      34.944 -17.693 -24.195  0.00  0.00    +0.017 C 
BRANCH  24  31
ATOM     30  F   UNL     1      35.907 -22.558 -18.274  0.00  0.00    -0.204 F 
ATOM     31  C   UNL     1      35.316 -19.482 -20.964  0.00  0.00    +0.059 C 
ATOM     32  C   UNL     1      34.234 -20.250 -20.534  0.00  0.00    +0.018 C 
ATOM     33  C   UNL     1      36.599 -19.754 -20.486  0.00  0.00    +0.018 C 
ATOM     34  C   UNL     1      34.433 -21.289 -19.626  0.00  0.00    +0.031 C 
ATOM     35  C   UNL     1      36.798 -20.793 -19.578  0.00  0.00    +0.031 C 
ATOM     36  C   UNL     1      35.716 -21.561 -19.148  0.00  0.00    +0.140 C 
ENDBRANCH  24  31
ENDBRANCH   3  25
TORSDOF 5
ENDMDL
MODEL 2
REMARK VINA RESULT:     -12.7      3.680     12.184
REMARK  Name = 21081761
REMARK  5 active torsions:
REMARK  status: ('A' for Active; 'I' for Inactive)
REMARK    1  A    between atoms: N_2  and  C_6
REMARK    2  A    between atoms: C_3  and  C_25
REMARK    3  A    between atoms: C_7  and  O_12
REMARK    4  A    between atoms: O_12  and  C_16
REMARK    5  A    between atoms: N_24  and  C_31
REMARK                            x       y       z     vdW  Elec       q    Type
REMARK                         _______ _______ _______ _____ _____    ______ ____
ROOT
ATOM      1  O   UNL     1      36.336 -17.975 -20.773  0.00  0.00    -0.270 OA
ATOM      2  N   UNL     1      34.369 -19.187 -21.252  0.00  0.00    -0.280 N 
ATOM      3  C   UNL     1      35.292 -18.148 -21.390  0.00  0.00    +0.254 C 
ATOM      4  H   UNL     1      33.583 -19.150 -21.843  0.00  0.00    +0.155 HD
ENDROOT
BRANCH   2   6
ATOM      5  F   UNL     1      36.905 -22.263 -18.609  0.00  0.00    -0.201 F 
ATOM      6  C   UNL     1      34.426 -20.272 -20.377  0.00  0.00    +0.053 C 
ATOM      7  C   UNL     1      34.539 -22.443 -18.628  0.00  0.00    +0.173 C 
ATOM      8  C   UNL     1      35.660 -20.737 -19.919  0.00  0.00    +0.047 C 
ATOM      9  C   UNL     1      33.249 -20.893 -19.958  0.00  0.00    +0.018 C 
ATOM     10  C   UNL     1      35.716 -21.823 -19.046  0.00  0.00    +0.176 C 
ATOM     11  C   UNL     1      33.305 -21.979 -19.085  0.00  0.00    +0.041 C 
BRANCH   7  12
ATOM     12  O   UNL     1      34.594 -23.520 -17.763  0.00  0.00    -0.451 OA
BRANCH  12  16
ATOM     13  N   UNL     1      34.146 -23.682 -13.132  0.00  0.00    -0.297 N 
ATOM     14  N   UNL     1      32.096 -23.386 -14.362  0.00  0.00    -0.229 NA
ATOM     15  C   UNL     1      34.327 -23.600 -15.356  0.00  0.00    +0.067 C 
ATOM     16  C   UNL     1      33.800 -23.478 -16.652  0.00  0.00    +0.150 C 
ATOM     17  C   UNL     1      33.431 -23.545 -14.293  0.00  0.00    +0.135 C 
ATOM     18  C   UNL     1      35.620 -23.778 -14.796  0.00  0.00    +0.022 C 
ATOM     19  C   UNL     1      35.478 -23.825 -13.426  0.00  0.00    +0.063 C 
ATOM     20  C   UNL     1      32.422 -23.311 -16.781  0.00  0.00    +0.058 C 
ATOM     21  C   UNL     1      31.643 -23.274 -15.632  0.00  0.00    +0.103 C 
ATOM     22  H   UNL     1      33.763 -23.679 -12.225  0.00  0.00    +0.154 HD
ENDBRANCH  12  16
ENDBRANCH   7  12
ENDBRANCH   2   6
BRANCH   3  25
ATOM     23  O   UNL     1      34.164 -15.553 -20.904  0.00  0.00    -0.269 OA
ATOM     24  N   UNL     1      34.060 -14.974 -23.194  0.00  0.00    -0.233 N 
ATOM     25  C   UNL     1      34.896 -17.180 -22.420  0.00  0.00    +0.108 C 
ATOM     26  C   UNL     1      34.354 -15.819 -22.091  0.00  0.00    +0.261 C 
ATOM     27  C   UNL     1      34.211 -15.456 -24.495  0.00  0.00    +0.072 C 
ATOM     28  C   UNL     1      35.021 -17.568 -23.694  0.00  0.00    +0.010 C 
ATOM     29  C   UNL     1      34.660 -16.686 -24.764  0.00  0.00    +0.017 C 
BRANCH  24  31
ATOM     30  F   UNL     1      32.222  -9.782 -22.304  0.00  0.00    -0.204 F 
ATOM     31  C   UNL     1      33.582 -13.625 -22.963  0.00  0.00    +0.059 C 
ATOM     32  C   UNL     1      34.182 -12.550 -23.620  0.00  0.00    +0.018 C 
ATOM     33  C   UNL     1      32.522 -13.401 -22.083  0.00  0.00    +0.018 C 
ATOM     34  C   UNL     1      33.722 -11.252 -23.397  0.00  0.00    +0.031 C 
ATOM     35  C   UNL     1      32.062 -12.103 -21.861  0.00  0.00    +0.031 C 
ATOM     36  C   UNL     1      32.662 -11.029 -22.518  0.00  0.00    +0.140 C 
ENDBRANCH  24  31
ENDBRANCH   3  25
TORSDOF 5
ENDMDL
MODEL 3
REMARK VINA RESULT:     -12.6      2.790     11.310
REMARK  Name = 21081761
REMARK  5 active torsions:
REMARK  status: ('A' for Active; 'I' for Inactive)
REMARK    1  A    between atoms: N_2  and  C_6
REMARK    2  A    between atoms: C_3  and  C_25
REMARK    3  A    between atoms: C_7  and  O_12
REMARK    4  A    between atoms: O_12  and  C_16
REMARK    5  A    between atoms: N_24  and  C_31
REMARK                            x       y       z     vdW  Elec       q    Type
REMARK                         _______ _______ _______ _____ _____    ______ ____
ROOT
ATOM      1  O   UNL     1      31.431 -13.630 -20.618  0.00  0.00    -0.270 OA
ATOM      2  N   UNL     1      33.641 -13.200 -21.323  0.00  0.00    -0.280 N 
ATOM      3  C   UNL     1      32.363 -12.874 -20.862  0.00  0.00    +0.254 C 
ATOM      4  H   UNL     1      34.257 -12.444 -21.461  0.00  0.00    +0.155 HD
ENDROOT
BRANCH   2   6
ATOM      5  F   UNL     1      35.027 -16.490 -24.505  0.00  0.00    -0.201 F 
ATOM      6  C   UNL     1      34.150 -14.466 -21.613  0.00  0.00    +0.053 C 
ATOM      7  C   UNL     1      35.167 -16.998 -22.192  0.00  0.00    +0.173 C 
ATOM      8  C   UNL     1      34.339 -14.856 -22.939  0.00  0.00    +0.047 C 
ATOM      9  C   UNL     1      34.472 -15.342 -20.576  0.00  0.00    +0.018 C 
ATOM     10  C   UNL     1      34.847 -16.122 -23.229  0.00  0.00    +0.176 C 
ATOM     11  C   UNL     1      34.979 -16.609 -20.866  0.00  0.00    +0.041 C 
BRANCH   7  12
ATOM     12  O   UNL     1      35.670 -18.254 -22.478  0.00  0.00    -0.451 OA
BRANCH  12  16
ATOM     13  N   UNL     1      34.005 -21.348 -19.424  0.00  0.00    -0.297 N 
ATOM     14  N   UNL     1      36.358 -20.871 -19.236  0.00  0.00    -0.229 NA
ATOM     15  C   UNL     1      34.834 -19.867 -20.875  0.00  0.00    +0.067 C 
ATOM     16  C   UNL     1      35.876 -19.105 -21.429  0.00  0.00    +0.150 C 
ATOM     17  C   UNL     1      35.151 -20.704 -19.809  0.00  0.00    +0.135 C 
ATOM     18  C   UNL     1      33.445 -20.027 -21.125  0.00  0.00    +0.022 C 
ATOM     19  C   UNL     1      32.962 -20.944 -20.217  0.00  0.00    +0.063 C 
ATOM     20  C   UNL     1      37.148 -19.240 -20.875  0.00  0.00    +0.058 C 
ATOM     21  C   UNL     1      37.322 -20.113 -19.809  0.00  0.00    +0.103 C 
ATOM     22  H   UNL     1      33.939 -22.002 -18.690  0.00  0.00    +0.154 HD
ENDBRANCH  12  16
ENDBRANCH   7  12
ENDBRANCH   2   6
BRANCH   3  25
ATOM     23  O   UNL     1      32.804 -10.851 -22.852  0.00  0.00    -0.269 OA
ATOM     24  N   UNL     1      32.140  -9.072 -21.443  0.00  0.00    -0.233 N 
ATOM     25  C   UNL     1      32.189 -11.430 -20.667  0.00  0.00    +0.108 C 
ATOM     26  C   UNL     1      32.394 -10.431 -21.770  0.00  0.00    +0.261 C 
ATOM     27  C   UNL     1      31.796  -8.726 -20.136  0.00  0.00    +0.072 C 
ATOM     28  C   UNL     1      31.849 -11.022 -19.439  0.00  0.00    +0.010 C 
ATOM     29  C   UNL     1      31.656  -9.630 -19.161  0.00  0.00    +0.017 C 
BRANCH  24  31
ATOM     30  F   UNL     1      32.612  -5.138 -25.371  0.00  0.00    -0.204 F 
ATOM     31  C   UNL     1      32.263  -8.049 -22.464  0.00  0.00    +0.059 C 
ATOM     32  C   UNL     1      31.250  -7.883 -23.409  0.00  0.00    +0.018 C 
ATOM     33  C   UNL     1      33.393  -7.232 -22.501  0.00  0.00    +0.018 C 
ATOM     34  C   UNL     1      31.368  -6.899 -24.391  0.00  0.00    +0.031 C 
ATOM     35  C   UNL     1      33.511  -6.248 -23.482  0.00  0.00    +0.031 C 
ATOM     36  C   UNL     1      32.499  -6.082 -24.427  0.00  0.00    +0.140 C 
ENDBRANCH  24  31
ENDBRANCH   3  25
TORSDOF 5
ENDMDL
MODEL 4
REMARK VINA RESULT:     -12.4      5.689      9.104
REMARK  Name = 21081761
REMARK  5 active torsions:
REMARK  status: ('A' for Active; 'I' for Inactive)
REMARK    1  A    between atoms: N_2  and  C_6
REMARK    2  A    between atoms: C_3  and  C_25
REMARK    3  A    between atoms: C_7  and  O_12
REMARK    4  A    between atoms: O_12  and  C_16
REMARK    5  A    between atoms: N_24  and  C_31
REMARK                            x       y       z     vdW  Elec       q    Type
REMARK                         _______ _______ _______ _____ _____    ______ ____
ROOT
ATOM      1  O   UNL     1      32.696 -22.673 -19.599  0.00  0.00    -0.270 OA
ATOM      2  N   UNL     1      34.460 -21.315 -18.819  0.00  0.00    -0.280 N 
ATOM      3  C   UNL     1      33.472 -22.298 -18.729  0.00  0.00    +0.254 C 
ATOM      4  H   UNL     1      34.987 -21.154 -18.003  0.00  0.00    +0.155 HD
ENDROOT
BRANCH   2   6
ATOM      5  F   UNL     1      37.695 -18.884 -21.367  0.00  0.00    -0.201 F 
ATOM      6  C   UNL     1      34.791 -20.531 -19.925  0.00  0.00    +0.053 C 
ATOM      7  C   UNL     1      35.452 -18.964 -22.136  0.00  0.00    +0.173 C 
ATOM      8  C   UNL     1      36.102 -20.089 -20.100  0.00  0.00    +0.047 C 
ATOM      9  C   UNL     1      33.810 -20.191 -20.857  0.00  0.00    +0.018 C 
ATOM     10  C   UNL     1      36.433 -19.304 -21.205  0.00  0.00    +0.176 C 
ATOM     11  C   UNL     1      34.140 -19.406 -21.962  0.00  0.00    +0.041 C 
BRANCH   7  12
ATOM     12  O   UNL     1      35.779 -18.186 -23.231  0.00  0.00    -0.451 OA
BRANCH  12  16
ATOM     13  N   UNL     1      33.781 -14.300 -21.623  0.00  0.00    -0.297 N 
ATOM     14  N   UNL     1      33.464 -14.732 -23.971  0.00  0.00    -0.229 NA
ATOM     15  C   UNL     1      34.727 -16.157 -22.425  0.00  0.00    +0.067 C 
ATOM     16  C   UNL     1      35.031 -17.064 -23.453  0.00  0.00    +0.150 C 
ATOM     17  C   UNL     1      33.959 -15.046 -22.758  0.00  0.00    +0.135 C 
ATOM     18  C   UNL     1      35.011 -16.059 -21.037  0.00  0.00    +0.022 C 
ATOM     19  C   UNL     1      34.416 -14.907 -20.570  0.00  0.00    +0.063 C 
ATOM     20  C   UNL     1      34.544 -16.787 -24.730  0.00  0.00    +0.058 C 
ATOM     21  C   UNL     1      33.787 -15.640 -24.922  0.00  0.00    +0.103 C 
ATOM     22  H   UNL     1      33.274 -13.457 -21.569  0.00  0.00    +0.154 HD
ENDBRANCH  12  16
ENDBRANCH   7  12
ENDBRANCH   2   6
BRANCH   3  25
ATOM     23  O   UNL     1      35.735 -23.139 -17.176  0.00  0.00    -0.269 OA
ATOM     24  N   UNL     1      34.432 -23.833 -15.328  0.00  0.00    -0.233 N 
ATOM     25  C   UNL     1      33.415 -22.915 -17.399  0.00  0.00    +0.108 C 
ATOM     26  C   UNL     1      34.646 -23.289 -16.623  0.00  0.00    +0.261 C 
ATOM     27  C   UNL     1      33.132 -24.061 -14.878  0.00  0.00    +0.072 C 
ATOM     28  C   UNL     1      32.199 -23.156 -16.896  0.00  0.00    +0.010 C 
ATOM     29  C   UNL     1      32.051 -23.755 -15.602  0.00  0.00    +0.017 C 
BRANCH  24  31
ATOM     30  F   UNL     1      38.802 -25.135 -12.113  0.00  0.00    -0.204 F 
ATOM     31  C   UNL     1      35.568 -24.171 -14.492  0.00  0.00    +0.059 C 
ATOM     32  C   UNL     1      36.158 -25.432 -14.594  0.00  0.00    +0.018 C 
ATOM     33  C   UNL     1      36.071 -23.236 -13.587  0.00  0.00    +0.018 C 
ATOM     34  C   UNL     1      37.250 -25.757 -13.790  0.00  0.00    +0.031 C 
ATOM     35  C   UNL     1      37.164 -23.561 -12.784  0.00  0.00    +0.031 C 
ATOM     36  C   UNL     1      37.754 -24.822 -12.885  0.00  0.00    +0.140 C 
ENDBRANCH  24  31
ENDBRANCH   3  25
TORSDOF 5
ENDMDL
MODEL 5
REMARK VINA RESULT:     -12.2      1.690      2.103
REMARK  Name = 21081761
REMARK  5 active torsions:
REMARK  status: ('A' for Active; 'I' for Inactive)
REMARK    1  A    between atoms: N_2  and  C_6
REMARK    2  A    between atoms: C_3  and  C_25
REMARK    3  A    between atoms: C_7  and  O_12
REMARK    4  A    between atoms: O_12  and  C_16
REMARK    5  A    between atoms: N_24  and  C_31
REMARK                            x       y       z     vdW  Elec       q    Type
REMARK                         _______ _______ _______ _____ _____    ______ ____
ROOT
ATOM      1  O   UNL     1      35.551 -14.724 -23.267  0.00  0.00    -0.270 OA
ATOM      2  N   UNL     1      33.329 -14.841 -22.482  0.00  0.00    -0.280 N 
ATOM      3  C   UNL     1      34.545 -15.346 -22.947  0.00  0.00    +0.254 C 
ATOM      4  H   UNL     1      32.633 -15.507 -22.276  0.00  0.00    +0.155 HD
ENDROOT
BRANCH   2   6
ATOM      5  F   UNL     1      31.426 -11.432 -19.720  0.00  0.00    -0.201 F 
ATOM      6  C   UNL     1      32.979 -13.507 -22.272  0.00  0.00    +0.053 C 
ATOM      7  C   UNL     1      32.278 -10.839 -21.854  0.00  0.00    +0.173 C 
ATOM      8  C   UNL     1      32.365 -13.125 -21.078  0.00  0.00    +0.047 C 
ATOM      9  C   UNL     1      33.243 -12.554 -23.256  0.00  0.00    +0.018 C 
ATOM     10  C   UNL     1      32.014 -11.791 -20.869  0.00  0.00    +0.176 C 
ATOM     11  C   UNL     1      32.891 -11.220 -23.047  0.00  0.00    +0.041 C 
BRANCH   7  12
ATOM     12  O   UNL     1      31.929  -9.518 -21.647  0.00  0.00    -0.451 OA
BRANCH  12  16
ATOM     13  N   UNL     1      34.483  -6.623 -24.250  0.00  0.00    -0.297 N 
ATOM     14  N   UNL     1      32.192  -6.891 -24.944  0.00  0.00    -0.229 NA
ATOM     15  C   UNL     1      33.231  -8.005 -23.022  0.00  0.00    +0.067 C 
ATOM     16  C   UNL     1      32.031  -8.665 -22.710  0.00  0.00    +0.150 C 
ATOM     17  C   UNL     1      33.228  -7.158 -24.126  0.00  0.00    +0.135 C 
ATOM     18  C   UNL     1      34.542  -7.965 -22.477  0.00  0.00    +0.022 C 
ATOM     19  C   UNL     1      35.290  -7.107 -23.253  0.00  0.00    +0.063 C 
ATOM     20  C   UNL     1      30.926  -8.425 -23.526  0.00  0.00    +0.058 C 
ATOM     21  C   UNL     1      31.063  -7.552 -24.597  0.00  0.00    +0.103 C 
ATOM     22  H   UNL     1      34.764  -5.988 -24.949  0.00  0.00    +0.154 HD
ENDBRANCH  12  16
ENDBRANCH   7  12
ENDBRANCH   2   6
BRANCH   3  25
ATOM     23  O   UNL     1      35.065 -17.159 -20.783  0.00  0.00    -0.269 OA
ATOM     24  N   UNL     1      34.703 -19.098 -22.087  0.00  0.00    -0.233 N 
ATOM     25  C   UNL     1      34.545 -16.810 -23.039  0.00  0.00    +0.108 C 
ATOM     26  C   UNL     1      34.781 -17.700 -21.852  0.00  0.00    +0.261 C 
ATOM     27  C   UNL     1      34.493 -19.573 -23.382  0.00  0.00    +0.072 C 
ATOM     28  C   UNL     1      34.341 -17.340 -24.251  0.00  0.00    +0.010 C 
ATOM     29  C   UNL     1      34.324 -18.762 -24.431  0.00  0.00    +0.017 C 
BRANCH  24  31
ATOM     30  F   UNL     1      35.329 -22.665 -17.843  0.00  0.00    -0.204 F 
ATOM     31  C   UNL     1      34.866 -20.025 -20.984  0.00  0.00    +0.059 C 
ATOM     32  C   UNL     1      33.745 -20.604 -20.388  0.00  0.00    +0.018 C 
ATOM     33  C   UNL     1      36.144 -20.339 -20.519  0.00  0.00    +0.018 C 
ATOM     34  C   UNL     1      33.901 -21.496 -19.327  0.00  0.00    +0.031 C 
ATOM     35  C   UNL     1      36.300 -21.232 -19.458  0.00  0.00    +0.031 C 
ATOM     36  C   UNL     1      35.179 -21.810 -18.862  0.00  0.00    +0.140 C 
ENDBRANCH  24  31
ENDBRANCH   3  25
TORSDOF 5
ENDMDL
MODEL 6
REMARK VINA RESULT:     -12.2      3.141     11.558
REMARK  Name = 21081761
REMARK  5 active torsions:
REMARK  status: ('A' for Active; 'I' for Inactive)
REMARK    1  A    between atoms: N_2  and  C_6
REMARK    2  A    between atoms: C_3  and  C_25
REMARK    3  A    between atoms: C_7  and  O_12
REMARK    4  A    between atoms: O_12  and  C_16
REMARK    5  A    between atoms: N_24  and  C_31
REMARK                            x       y       z     vdW  Elec       q    Type
REMARK                         _______ _______ _______ _____ _____    ______ ____
ROOT
ATOM      1  O   UNL     1      31.881 -13.626 -23.114  0.00  0.00    -0.270 OA
ATOM      2  N   UNL     1      33.813 -13.529 -21.764  0.00  0.00    -0.280 N 
ATOM      3  C   UNL     1      32.692 -13.021 -22.424  0.00  0.00    +0.254 C 
ATOM      4  H   UNL     1      34.348 -12.878 -21.255  0.00  0.00    +0.155 HD
ENDROOT
BRANCH   2   6
ATOM      5  F   UNL     1      35.153 -17.507 -24.056  0.00  0.00    -0.201 F 
ATOM      6  C   UNL     1      34.267 -14.848 -21.737  0.00  0.00    +0.053 C 
ATOM      7  C   UNL     1      35.174 -17.486 -21.684  0.00  0.00    +0.173 C 
ATOM      8  C   UNL     1      34.489 -15.535 -22.931  0.00  0.00    +0.047 C 
ATOM      9  C   UNL     1      34.501 -15.481 -20.516  0.00  0.00    +0.018 C 
ATOM     10  C   UNL     1      34.942 -16.854 -22.905  0.00  0.00    +0.176 C 
ATOM     11  C   UNL     1      34.953 -16.800 -20.489  0.00  0.00    +0.041 C 
BRANCH   7  12
ATOM     12  O   UNL     1      35.622 -18.793 -21.657  0.00  0.00    -0.451 OA
BRANCH  12  16
ATOM     13  N   UNL     1      35.330 -22.243 -18.544  0.00  0.00    -0.297 N 
ATOM     14  N   UNL     1      33.249 -21.591 -19.565  0.00  0.00    -0.229 NA
ATOM     15  C   UNL     1      35.436 -20.590 -20.042  0.00  0.00    +0.067 C 
ATOM     16  C   UNL     1      34.868 -19.704 -20.971  0.00  0.00    +0.150 C 
ATOM     17  C   UNL     1      34.580 -21.479 -19.398  0.00  0.00    +0.135 C 
ATOM     18  C   UNL     1      36.742 -20.844 -19.544  0.00  0.00    +0.022 C 
ATOM     19  C   UNL     1      36.646 -21.866 -18.625  0.00  0.00    +0.063 C 
ATOM     20  C   UNL     1      33.492 -19.777 -21.183  0.00  0.00    +0.058 C 
ATOM     21  C   UNL     1      32.756 -20.715 -20.471  0.00  0.00    +0.103 C 
ATOM     22  H   UNL     1      34.979 -22.954 -17.960  0.00  0.00    +0.154 HD
ENDBRANCH  12  16
ENDBRANCH   7  12
ENDBRANCH   2   6
BRANCH   3  25
ATOM     23  O   UNL     1      34.117 -10.963 -23.829  0.00  0.00    -0.269 OA
ATOM     24  N   UNL     1      32.978  -9.193 -22.751  0.00  0.00    -0.233 N 
ATOM     25  C   UNL     1      32.529 -11.577 -22.222  0.00  0.00    +0.108 C 
ATOM     26  C   UNL     1      33.277 -10.554 -23.028  0.00  0.00    +0.261 C 
ATOM     27  C   UNL     1      32.088  -8.874 -21.725  0.00  0.00    +0.072 C 
ATOM     28  C   UNL     1      31.683 -11.193 -21.259  0.00  0.00    +0.010 C 
ATOM     29  C   UNL     1      31.462  -9.802 -20.995  0.00  0.00    +0.017 C 
BRANCH  24  31
ATOM     30  F   UNL     1      35.438  -5.155 -25.712  0.00  0.00    -0.204 F 
ATOM     31  C   UNL     1      33.617  -8.143 -23.521  0.00  0.00    +0.059 C 
ATOM     32  C   UNL     1      34.882  -7.682 -23.155  0.00  0.00    +0.018 C 
ATOM     33  C   UNL     1      32.967  -7.595 -24.627  0.00  0.00    +0.018 C 
ATOM     34  C   UNL     1      35.497  -6.673 -23.896  0.00  0.00    +0.031 C 
ATOM     35  C   UNL     1      33.582  -6.585 -25.368  0.00  0.00    +0.031 C 
ATOM     36  C   UNL     1      34.847  -6.125 -25.002  0.00  0.00    +0.140 C 
ENDBRANCH  24  31
ENDBRANCH   3  25
TORSDOF 5
ENDMDL
MODEL 7
REMARK VINA RESULT:     -11.9      3.767     12.170
REMARK  Name = 21081761
REMARK  5 active torsions:
REMARK  status: ('A' for Active; 'I' for Inactive)
REMARK    1  A    between atoms: N_2  and  C_6
REMARK    2  A    between atoms: C_3  and  C_25
REMARK    3  A    between atoms: C_7  and  O_12
REMARK    4  A    between atoms: O_12  and  C_16
REMARK    5  A    between atoms: N_24  and  C_31
REMARK                            x       y       z     vdW  Elec       q    Type
REMARK                         _______ _______ _______ _____ _____    ______ ____
ROOT
ATOM      1  O   UNL     1      36.373 -18.174 -20.774  0.00  0.00    -0.270 OA
ATOM      2  N   UNL     1      34.350 -19.332 -21.138  0.00  0.00    -0.280 N 
ATOM      3  C   UNL     1      35.300 -18.329 -21.344  0.00  0.00    +0.254 C 
ATOM      4  H   UNL     1      33.542 -19.286 -21.700  0.00  0.00    +0.155 HD
ENDROOT
BRANCH   2   6
ATOM      5  F   UNL     1      32.166 -22.336 -18.125  0.00  0.00    -0.201 F 
ATOM      6  C   UNL     1      34.404 -20.391 -20.231  0.00  0.00    +0.053 C 
ATOM      7  C   UNL     1      34.515 -22.507 -18.417  0.00  0.00    +0.173 C 
ATOM      8  C   UNL     1      33.237 -20.845 -19.617  0.00  0.00    +0.047 C 
ATOM      9  C   UNL     1      35.627 -20.996 -19.939  0.00  0.00    +0.018 C 
ATOM     10  C   UNL     1      33.292 -21.903 -18.710  0.00  0.00    +0.176 C 
ATOM     11  C   UNL     1      35.682 -22.053 -19.031  0.00  0.00    +0.041 C 
BRANCH   7  12
ATOM     12  O   UNL     1      34.570 -23.555 -17.518  0.00  0.00    -0.451 OA
BRANCH  12  16
ATOM     13  N   UNL     1      34.804 -23.795 -12.874  0.00  0.00    -0.297 N 
ATOM     14  N   UNL     1      36.764 -22.919 -13.966  0.00  0.00    -0.229 NA
ATOM     15  C   UNL     1      34.723 -23.667 -15.102  0.00  0.00    +0.067 C 
ATOM     16  C   UNL     1      35.267 -23.356 -16.359  0.00  0.00    +0.150 C 
ATOM     17  C   UNL     1      35.516 -23.425 -13.984  0.00  0.00    +0.135 C 
ATOM     18  C   UNL     1      33.495 -24.200 -14.627  0.00  0.00    +0.022 C 
ATOM     19  C   UNL     1      33.573 -24.267 -13.254  0.00  0.00    +0.063 C 
ATOM     20  C   UNL     1      36.557 -22.828 -16.398  0.00  0.00    +0.058 C 
ATOM     21  C   UNL     1      37.236 -22.638 -15.202  0.00  0.00    +0.103 C 
ATOM     22  H   UNL     1      35.125 -23.732 -11.945  0.00  0.00    +0.154 HD
ENDBRANCH  12  16
ENDBRANCH   7  12
ENDBRANCH   2   6
BRANCH   3  25
ATOM     23  O   UNL     1      34.226 -15.704 -20.897  0.00  0.00    -0.269 OA
ATOM     24  N   UNL     1      34.079 -15.180 -23.198  0.00  0.00    -0.233 N 
ATOM     25  C   UNL     1      34.896 -17.381 -22.388  0.00  0.00    +0.108 C 
ATOM     26  C   UNL     1      34.384 -16.002 -22.081  0.00  0.00    +0.261 C 
ATOM     27  C   UNL     1      34.192 -15.696 -24.489  0.00  0.00    +0.072 C 
ATOM     28  C   UNL     1      34.986 -17.801 -23.655  0.00  0.00    +0.010 C 
ATOM     29  C   UNL     1      34.614 -16.939 -24.738  0.00  0.00    +0.017 C 
BRANCH  24  31
ATOM     30  F   UNL     1      32.348  -9.938 -22.392  0.00  0.00    -0.204 F 
ATOM     31  C   UNL     1      33.629 -13.817 -22.989  0.00  0.00    +0.059 C 
ATOM     32  C   UNL     1      32.648 -13.546 -22.035  0.00  0.00    +0.018 C 
ATOM     33  C   UNL     1      34.178 -12.778 -23.741  0.00  0.00    +0.018 C 
ATOM     34  C   UNL     1      32.215 -12.235 -21.833  0.00  0.00    +0.031 C 
ATOM     35  C   UNL     1      33.745 -11.467 -23.539  0.00  0.00    +0.031 C 
ATOM     36  C   UNL     1      32.764 -11.196 -22.585  0.00  0.00    +0.140 C 
ENDBRANCH  24  31
ENDBRANCH   3  25
TORSDOF 5
ENDMDL
MODEL 8
REMARK VINA RESULT:     -11.9      5.051     13.173
REMARK  Name = 21081761
REMARK  5 active torsions:
REMARK  status: ('A' for Active; 'I' for Inactive)
REMARK    1  A    between atoms: N_2  and  C_6
REMARK    2  A    between atoms: C_3  and  C_25
REMARK    3  A    between atoms: C_7  and  O_12
REMARK    4  A    between atoms: O_12  and  C_16
REMARK    5  A    between atoms: N_24  and  C_31
REMARK                            x       y       z     vdW  Elec       q    Type
REMARK                         _______ _______ _______ _____ _____    ______ ____
ROOT
ATOM      1  O   UNL     1      36.638 -19.864 -20.022  0.00  0.00    -0.270 OA
ATOM      2  N   UNL     1      34.531 -20.923 -20.085  0.00  0.00    -0.280 N 
ATOM      3  C   UNL     1      35.541 -20.068 -20.529  0.00  0.00    +0.254 C 
ATOM      4  H   UNL     1      33.713 -20.949 -20.633  0.00  0.00    +0.155 HD
ENDROOT
BRANCH   2   6
ATOM      5  F   UNL     1      32.210 -23.681 -16.942  0.00  0.00    -0.201 F 
ATOM      6  C   UNL     1      34.538 -21.747 -18.959  0.00  0.00    +0.053 C 
ATOM      7  C   UNL     1      34.553 -23.391 -16.705  0.00  0.00    +0.173 C 
ATOM      8  C   UNL     1      33.349 -22.315 -18.502  0.00  0.00    +0.047 C 
ATOM      9  C   UNL     1      35.735 -22.002 -18.289  0.00  0.00    +0.018 C 
ATOM     10  C   UNL     1      33.356 -23.137 -17.375  0.00  0.00    +0.176 C 
ATOM     11  C   UNL     1      35.742 -22.823 -17.162  0.00  0.00    +0.041 C 
BRANCH   7  12
ATOM     12  O   UNL     1      34.561 -24.204 -15.588  0.00  0.00    -0.451 OA
BRANCH  12  16
ATOM     13  N   UNL     1      38.190 -26.491 -13.779  0.00  0.00    -0.297 N 
ATOM     14  N   UNL     1      38.039 -24.160 -13.194  0.00  0.00    -0.229 NA
ATOM     15  C   UNL     1      36.460 -25.366 -14.631  0.00  0.00    +0.067 C 
ATOM     16  C   UNL     1      35.689 -24.207 -14.817  0.00  0.00    +0.150 C 
ATOM     17  C   UNL     1      37.590 -25.260 -13.827  0.00  0.00    +0.135 C 
ATOM     18  C   UNL     1      36.394 -26.714 -15.073  0.00  0.00    +0.022 C 
ATOM     19  C   UNL     1      37.471 -27.383 -14.534  0.00  0.00    +0.063 C 
ATOM     20  C   UNL     1      36.109 -23.037 -14.184  0.00  0.00    +0.058 C 
ATOM     21  C   UNL     1      37.259 -23.075 -13.407  0.00  0.00    +0.103 C 
ATOM     22  H   UNL     1      39.012 -26.705 -13.281  0.00  0.00    +0.154 HD
ENDBRANCH  12  16
ENDBRANCH   7  12
ENDBRANCH   2   6
BRANCH   3  25
ATOM     23  O   UNL     1      34.905 -17.275 -20.724  0.00  0.00    -0.269 OA
ATOM     24  N   UNL     1      34.604 -17.327 -23.069  0.00  0.00    -0.233 N 
ATOM     25  C   UNL     1      35.175 -19.358 -21.760  0.00  0.00    +0.108 C 
ATOM     26  C   UNL     1      34.899 -17.882 -21.796  0.00  0.00    +0.261 C 
ATOM     27  C   UNL     1      34.511 -18.161 -24.184  0.00  0.00    +0.072 C 
ATOM     28  C   UNL     1      35.075 -20.092 -22.874  0.00  0.00    +0.010 C 
ATOM     29  C   UNL     1      34.724 -19.479 -24.121  0.00  0.00    +0.017 C 
BRANCH  24  31
ATOM     30  F   UNL     1      33.729 -11.840 -23.571  0.00  0.00    -0.204 F 
ATOM     31  C   UNL     1      34.377 -15.901 -23.200  0.00  0.00    +0.059 C 
ATOM     32  C   UNL     1      33.896 -15.378 -24.401  0.00  0.00    +0.018 C 
ATOM     33  C   UNL     1      34.638 -15.051 -22.124  0.00  0.00    +0.018 C 
ATOM     34  C   UNL     1      33.677 -14.006 -24.526  0.00  0.00    +0.031 C 
ATOM     35  C   UNL     1      34.419 -13.680 -22.249  0.00  0.00    +0.031 C 
ATOM     36  C   UNL     1      33.939 -13.157 -23.450  0.00  0.00    +0.140 C 
ENDBRANCH  24  31
ENDBRANCH   3  25
TORSDOF 5
ENDMDL
MODEL 9
REMARK VINA RESULT:     -11.9      5.152      8.372
REMARK  Name = 21081761
REMARK  5 active torsions:
REMARK  status: ('A' for Active; 'I' for Inactive)
REMARK    1  A    between atoms: N_2  and  C_6
REMARK    2  A    between atoms: C_3  and  C_25
REMARK    3  A    between atoms: C_7  and  O_12
REMARK    4  A    between atoms: O_12  and  C_16
REMARK    5  A    between atoms: N_24  and  C_31
REMARK                            x       y       z     vdW  Elec       q    Type
REMARK                         _______ _______ _______ _____ _____    ______ ____
ROOT
ATOM      1  O   UNL     1      36.761 -21.754 -19.464  0.00  0.00    -0.270 OA
ATOM      2  N   UNL     1      34.641 -20.753 -19.733  0.00  0.00    -0.280 N 
ATOM      3  C   UNL     1      35.583 -21.612 -19.161  0.00  0.00    +0.254 C 
ATOM      4  H   UNL     1      33.736 -20.785 -19.348  0.00  0.00    +0.155 HD
ENDROOT
BRANCH   2   6
ATOM      5  F   UNL     1      33.422 -19.107 -24.054  0.00  0.00    -0.201 F 
ATOM      6  C   UNL     1      34.828 -19.855 -20.784  0.00  0.00    +0.053 C 
ATOM      7  C   UNL     1      35.203 -18.060 -22.886  0.00  0.00    +0.173 C 
ATOM      8  C   UNL     1      34.018 -19.928 -21.917  0.00  0.00    +0.047 C 
ATOM      9  C   UNL     1      35.825 -18.882 -20.702  0.00  0.00    +0.018 C 
ATOM     10  C   UNL     1      34.205 -19.031 -22.969  0.00  0.00    +0.176 C 
ATOM     11  C   UNL     1      36.013 -17.986 -21.753  0.00  0.00    +0.041 C 
BRANCH   7  12
ATOM     12  O   UNL     1      35.390 -17.171 -23.929  0.00  0.00    -0.451 OA
BRANCH  12  16
ATOM     13  N   UNL     1      33.342 -13.578 -21.791  0.00  0.00    -0.297 N 
ATOM     14  N   UNL     1      32.855 -13.800 -24.139  0.00  0.00    -0.229 NA
ATOM     15  C   UNL     1      34.309 -15.292 -22.845  0.00  0.00    +0.067 C 
ATOM     16  C   UNL     1      34.572 -16.078 -23.980  0.00  0.00    +0.150 C 
ATOM     17  C   UNL     1      33.462 -14.200 -23.006  0.00  0.00    +0.135 C 
ATOM     18  C   UNL     1      34.700 -15.313 -21.480  0.00  0.00    +0.022 C 
ATOM     19  C   UNL     1      34.090 -14.247 -20.856  0.00  0.00    +0.063 C 
ATOM     20  C   UNL     1      33.969 -15.708 -25.181  0.00  0.00    +0.058 C 
ATOM     21  C   UNL     1      33.143 -14.592 -25.198  0.00  0.00    +0.103 C 
ATOM     22  H   UNL     1      32.801 -12.774 -21.614  0.00  0.00    +0.154 HD
ENDBRANCH  12  16
ENDBRANCH   7  12
ENDBRANCH   2   6
BRANCH   3  25
ATOM     23  O   UNL     1      37.041 -22.621 -16.903  0.00  0.00    -0.269 OA
ATOM     24  N   UNL     1      35.140 -23.596 -15.888  0.00  0.00    -0.233 N 
ATOM     25  C   UNL     1      35.020 -22.413 -18.068  0.00  0.00    +0.108 C 
ATOM     26  C   UNL     1      35.835 -22.869 -16.892  0.00  0.00    +0.261 C 
ATOM     27  C   UNL     1      33.792 -23.910 -16.068  0.00  0.00    +0.072 C 
ATOM     28  C   UNL     1      33.728 -22.746 -18.166  0.00  0.00    +0.010 C 
ATOM     29  C   UNL     1      33.096 -23.525 -17.142  0.00  0.00    +0.017 C 
BRANCH  24  31
ATOM     30  F   UNL     1      37.837 -25.257 -11.295  0.00  0.00    -0.204 F 
ATOM     31  C   UNL     1      35.841 -24.028 -14.695  0.00  0.00    +0.059 C 
ATOM     32  C   UNL     1      35.844 -23.220 -13.557  0.00  0.00    +0.018 C 
ATOM     33  C   UNL     1      36.512 -25.251 -14.684  0.00  0.00    +0.018 C 
ATOM     34  C   UNL     1      36.517 -23.636 -12.409  0.00  0.00    +0.031 C 
ATOM     35  C   UNL     1      37.186 -25.667 -13.535  0.00  0.00    +0.031 C 
ATOM     36  C   UNL     1      37.189 -24.859 -12.398  0.00  0.00    +0.140 C 
ENDBRANCH  24  31
ENDBRANCH   3  25
TORSDOF 5
ENDMDL
