MODEL 1
REMARK VINA RESULT:     -12.7      0.000      0.000
REMARK  Name = 10157080
REMARK  5 active torsions:
REMARK  status: ('A' for Active; 'I' for Inactive)
REMARK    1  A    between atoms: C_3  and  O_8
REMARK    2  A    between atoms: C_6  and  O_18
REMARK    3  A    between atoms: O_8  and  C_13
REMARK    4  A    between atoms: O_18  and  C_20
REMARK    5  A    between atoms: C_19  and  N_25
REMARK                            x       y       z     vdW  Elec       q    Type
REMARK                         _______ _______ _______ _____ _____    ______ ____
ROOT
ATOM      1  N   UNL     1      34.573 -23.455 -16.255  0.00  0.00    -0.277 NA
ATOM      2  N   UNL     1      32.209 -23.440 -16.722  0.00  0.00    -0.319 NA
ATOM      3  C   UNL     1      34.268 -23.303 -14.957  0.00  0.00    +0.278 C 
ATOM      4  C   UNL     1      32.992 -23.210 -14.457  0.00  0.00    +0.156 C 
ATOM      5  C   UNL     1      31.987 -23.286 -15.400  0.00  0.00    +0.113 C 
ATOM      6  C   UNL     1      33.507 -23.516 -17.075  0.00  0.00    +0.317 C 
ATOM      7  C   UNL     1      30.563 -23.197 -14.965  0.00  0.00    +0.063 C 
ENDROOT
BRANCH   3   8
ATOM      8  O   UNL     1      35.333 -23.238 -14.075  0.00  0.00    -0.429 OA
BRANCH   8  13
ATOM      9  O   UNL     1      39.873 -24.793 -14.541  0.00  0.00    -0.435 OA
ATOM     10  O   UNL     1      39.192 -27.099 -14.364  0.00  0.00    -0.435 OA
ATOM     11  C   UNL     1      38.529 -24.924 -14.378  0.00  0.00    +0.179 C 
ATOM     12  C   UNL     1      38.140 -26.240 -14.277  0.00  0.00    +0.177 C 
ATOM     13  C   UNL     1      36.271 -24.224 -14.144  0.00  0.00    +0.151 C 
ATOM     14  C   UNL     1      37.616 -23.891 -14.315  0.00  0.00    +0.078 C 
ATOM     15  C   UNL     1      36.817 -26.596 -14.108  0.00  0.00    +0.043 C 
ATOM     16  C   UNL     1      35.873 -25.569 -14.041  0.00  0.00    +0.041 C 
ATOM     17  C   UNL     1      40.287 -26.175 -14.530  0.00  0.00    +0.429 C 
ENDBRANCH   8  13
ENDBRANCH   3   8
BRANCH   6  18
ATOM     18  O   UNL     1      33.770 -23.669 -18.416  0.00  0.00    -0.375 OA
BRANCH  18  20
ATOM     19  C   UNL     1      34.582 -20.229 -20.592  0.00  0.00    +0.057 C 
ATOM     20  C   UNL     1      34.040 -22.527 -19.138  0.00  0.00    +0.161 C 
ATOM     21  C   UNL     1      33.263 -20.571 -20.295  0.00  0.00    +0.018 C 
ATOM     22  C   UNL     1      35.628 -21.042 -20.157  0.00  0.00    +0.018 C 
ATOM     23  C   UNL     1      32.990 -21.727 -19.563  0.00  0.00    +0.040 C 
ATOM     24  C   UNL     1      35.356 -22.198 -19.426  0.00  0.00    +0.040 C 
BRANCH  19  25
ATOM     25  N   UNL     1      34.852 -19.083 -21.318  0.00  0.00    -0.246 N 
ATOM     26  N   UNL     1      35.084 -17.725 -23.071  0.00  0.00    -0.224 NA
ATOM     27  C   UNL     1      35.260 -17.873 -20.816  0.00  0.00    +0.092 C 
ATOM     28  C   UNL     1      34.762 -18.939 -22.680  0.00  0.00    +0.172 C 
ATOM     29  C   UNL     1      35.395 -17.057 -21.914  0.00  0.00    +0.117 C 
ENDBRANCH  19  25
ENDBRANCH  18  20
ENDBRANCH   6  18
TORSDOF 5
ENDMDL
MODEL 2
REMARK VINA RESULT:     -12.3      2.536      5.537
REMARK  Name = 10157080
REMARK  5 active torsions:
REMARK  status: ('A' for Active; 'I' for Inactive)
REMARK    1  A    between atoms: C_3  and  O_8
REMARK    2  A    between atoms: C_6  and  O_18
REMARK    3  A    between atoms: O_8  and  C_13
REMARK    4  A    between atoms: O_18  and  C_20
REMARK    5  A    between atoms: C_19  and  N_25
REMARK                            x       y       z     vdW  Elec       q    Type
REMARK                         _______ _______ _______ _____ _____    ______ ____
ROOT
ATOM      1  N   UNL     1      33.251 -23.631 -16.141  0.00  0.00    -0.277 NA
ATOM      2  N   UNL     1      35.568 -23.181 -16.629  0.00  0.00    -0.319 NA
ATOM      3  C   UNL     1      33.556 -23.523 -14.838  0.00  0.00    +0.278 C 
ATOM      4  C   UNL     1      34.810 -23.254 -14.346  0.00  0.00    +0.156 C 
ATOM      5  C   UNL     1      35.791 -23.090 -15.302  0.00  0.00    +0.113 C 
ATOM      6  C   UNL     1      34.294 -23.451 -16.973  0.00  0.00    +0.317 C 
ATOM      7  C   UNL     1      37.190 -22.793 -14.876  0.00  0.00    +0.063 C 
ENDROOT
BRANCH   3   8
ATOM      8  O   UNL     1      32.515 -23.698 -13.943  0.00  0.00    -0.429 OA
BRANCH   8  13
ATOM      9  O   UNL     1      28.731 -22.275 -16.572  0.00  0.00    -0.435 OA
ATOM     10  O   UNL     1      27.510 -24.289 -16.061  0.00  0.00    -0.435 OA
ATOM     11  C   UNL     1      29.435 -23.116 -15.766  0.00  0.00    +0.179 C 
ATOM     12  C   UNL     1      28.738 -24.266 -15.475  0.00  0.00    +0.177 C 
ATOM     13  C   UNL     1      31.265 -23.875 -14.455  0.00  0.00    +0.151 C 
ATOM     14  C   UNL     1      30.702 -22.891 -15.271  0.00  0.00    +0.078 C 
ATOM     15  C   UNL     1      29.270 -25.254 -14.672  0.00  0.00    +0.043 C 
ATOM     16  C   UNL     1      30.552 -25.051 -14.157  0.00  0.00    +0.041 C 
ATOM     17  C   UNL     1      27.513 -23.025 -16.755  0.00  0.00    +0.429 C 
ENDBRANCH   8  13
ENDBRANCH   3   8
BRANCH   6  18
ATOM     18  O   UNL     1      34.030 -23.555 -18.319  0.00  0.00    -0.375 OA
BRANCH  18  20
ATOM     19  C   UNL     1      34.671 -20.177 -20.644  0.00  0.00    +0.057 C 
ATOM     20  C   UNL     1      34.243 -22.434 -19.091  0.00  0.00    +0.161 C 
ATOM     21  C   UNL     1      33.373 -20.543 -20.288  0.00  0.00    +0.018 C 
ATOM     22  C   UNL     1      35.754 -20.947 -20.218  0.00  0.00    +0.018 C 
ATOM     23  C   UNL     1      33.157 -21.678 -19.506  0.00  0.00    +0.040 C 
ATOM     24  C   UNL     1      35.539 -22.081 -19.437  0.00  0.00    +0.040 C 
BRANCH  19  25
ATOM     25  N   UNL     1      34.885 -19.052 -21.420  0.00  0.00    -0.246 N 
ATOM     26  N   UNL     1      35.009 -17.751 -23.226  0.00  0.00    -0.224 NA
ATOM     27  C   UNL     1      35.290 -17.818 -20.978  0.00  0.00    +0.092 C 
ATOM     28  C   UNL     1      34.730 -18.956 -22.781  0.00  0.00    +0.172 C 
ATOM     29  C   UNL     1      35.359 -17.038 -22.108  0.00  0.00    +0.117 C 
ENDBRANCH  19  25
ENDBRANCH  18  20
ENDBRANCH   6  18
TORSDOF 5
ENDMDL
MODEL 3
REMARK VINA RESULT:     -11.4      4.225      8.328
REMARK  Name = 10157080
REMARK  5 active torsions:
REMARK  status: ('A' for Active; 'I' for Inactive)
REMARK    1  A    between atoms: C_3  and  O_8
REMARK    2  A    between atoms: C_6  and  O_18
REMARK    3  A    between atoms: O_8  and  C_13
REMARK    4  A    between atoms: O_18  and  C_20
REMARK    5  A    between atoms: C_19  and  N_25
REMARK                            x       y       z     vdW  Elec       q    Type
REMARK                         _______ _______ _______ _____ _____    ______ ____
ROOT
ATOM      1  N   UNL     1      35.707 -17.778 -22.193  0.00  0.00    -0.277 NA
ATOM      2  N   UNL     1      34.309 -17.538 -24.142  0.00  0.00    -0.319 NA
ATOM      3  C   UNL     1      35.341 -19.070 -22.150  0.00  0.00    +0.278 C 
ATOM      4  C   UNL     1      34.482 -19.671 -23.038  0.00  0.00    +0.156 C 
ATOM      5  C   UNL     1      33.990 -18.844 -24.028  0.00  0.00    +0.113 C 
ATOM      6  C   UNL     1      35.160 -17.078 -23.204  0.00  0.00    +0.317 C 
ATOM      7  C   UNL     1      33.050 -19.396 -25.046  0.00  0.00    +0.063 C 
ENDROOT
BRANCH   3   8
ATOM      8  O   UNL     1      35.880 -19.831 -21.129  0.00  0.00    -0.429 OA
BRANCH   8  13
ATOM      9  O   UNL     1      34.903 -23.187 -17.807  0.00  0.00    -0.435 OA
ATOM     10  O   UNL     1      32.534 -22.768 -17.957  0.00  0.00    -0.435 OA
ATOM     11  C   UNL     1      34.606 -22.213 -18.710  0.00  0.00    +0.179 C 
ATOM     12  C   UNL     1      33.254 -21.974 -18.795  0.00  0.00    +0.177 C 
ATOM     13  C   UNL     1      35.020 -20.547 -20.352  0.00  0.00    +0.151 C 
ATOM     14  C   UNL     1      35.516 -21.515 -19.476  0.00  0.00    +0.078 C 
ATOM     15  C   UNL     1      32.737 -21.024 -19.652  0.00  0.00    +0.043 C 
ATOM     16  C   UNL     1      33.638 -20.302 -20.439  0.00  0.00    +0.041 C 
ATOM     17  C   UNL     1      33.585 -23.534 -17.334  0.00  0.00    +0.429 C 
ENDBRANCH   8  13
ENDBRANCH   3   8
BRANCH   6  18
ATOM     18  O   UNL     1      35.504 -15.748 -23.287  0.00  0.00    -0.375 OA
BRANCH  18  20
ATOM     19  C   UNL     1      32.893 -13.005 -21.590  0.00  0.00    +0.057 C 
ATOM     20  C   UNL     1      34.637 -14.838 -22.723  0.00  0.00    +0.161 C 
ATOM     21  C   UNL     1      33.138 -12.977 -22.963  0.00  0.00    +0.018 C 
ATOM     22  C   UNL     1      33.524 -13.955 -20.788  0.00  0.00    +0.018 C 
ATOM     23  C   UNL     1      34.015 -13.900 -23.534  0.00  0.00    +0.040 C 
ATOM     24  C   UNL     1      34.401 -14.877 -21.357  0.00  0.00    +0.040 C 
BRANCH  19  25
ATOM     25  N   UNL     1      32.023 -12.090 -21.025  0.00  0.00    -0.246 N 
ATOM     26  N   UNL     1      31.086 -10.766 -19.495  0.00  0.00    -0.224 NA
ATOM     27  C   UNL     1      30.974 -11.463 -21.649  0.00  0.00    +0.092 C 
ATOM     28  C   UNL     1      32.045 -11.634 -19.730  0.00  0.00    +0.172 C 
ATOM     29  C   UNL     1      30.416 -10.656 -20.687  0.00  0.00    +0.117 C 
ENDBRANCH  19  25
ENDBRANCH  18  20
ENDBRANCH   6  18
TORSDOF 5
ENDMDL
MODEL 4
REMARK VINA RESULT:     -11.3      4.469      8.481
REMARK  Name = 10157080
REMARK  5 active torsions:
REMARK  status: ('A' for Active; 'I' for Inactive)
REMARK    1  A    between atoms: C_3  and  O_8
REMARK    2  A    between atoms: C_6  and  O_18
REMARK    3  A    between atoms: O_8  and  C_13
REMARK    4  A    between atoms: O_18  and  C_20
REMARK    5  A    between atoms: C_19  and  N_25
REMARK                            x       y       z     vdW  Elec       q    Type
REMARK                         _______ _______ _______ _____ _____    ______ ____
ROOT
ATOM      1  N   UNL     1      35.280 -17.745 -20.651  0.00  0.00    -0.277 NA
ATOM      2  N   UNL     1      34.641 -16.346 -22.507  0.00  0.00    -0.319 NA
ATOM      3  C   UNL     1      35.494 -18.733 -21.534  0.00  0.00    +0.278 C 
ATOM      4  C   UNL     1      35.312 -18.625 -22.891  0.00  0.00    +0.156 C 
ATOM      5  C   UNL     1      34.878 -17.390 -23.328  0.00  0.00    +0.113 C 
ATOM      6  C   UNL     1      34.859 -16.590 -21.200  0.00  0.00    +0.317 C 
ATOM      7  C   UNL     1      34.648 -17.164 -24.784  0.00  0.00    +0.063 C 
ENDROOT
BRANCH   3   8
ATOM      8  O   UNL     1      35.931 -19.940 -21.017  0.00  0.00    -0.429 OA
BRANCH   8  13
ATOM      9  O   UNL     1      34.892 -23.175 -17.595  0.00  0.00    -0.435 OA
ATOM     10  O   UNL     1      32.521 -22.872 -17.909  0.00  0.00    -0.435 OA
ATOM     11  C   UNL     1      34.611 -22.259 -18.562  0.00  0.00    +0.179 C 
ATOM     12  C   UNL     1      33.258 -22.086 -18.741  0.00  0.00    +0.177 C 
ATOM     13  C   UNL     1      35.055 -20.656 -20.258  0.00  0.00    +0.151 C 
ATOM     14  C   UNL     1      35.537 -21.558 -19.306  0.00  0.00    +0.078 C 
ATOM     15  C   UNL     1      32.755 -21.203 -19.674  0.00  0.00    +0.043 C 
ATOM     16  C   UNL     1      33.672 -20.479 -20.441  0.00  0.00    +0.041 C 
ATOM     17  C   UNL     1      33.563 -23.558 -17.185  0.00  0.00    +0.429 C 
ENDBRANCH   8  13
ENDBRANCH   3   8
BRANCH   6  18
ATOM     18  O   UNL     1      34.624 -15.548 -20.333  0.00  0.00    -0.375 OA
BRANCH  18  20
ATOM     19  C   UNL     1      32.746 -12.185 -21.879  0.00  0.00    +0.057 C 
ATOM     20  C   UNL     1      34.000 -14.432 -20.846  0.00  0.00    +0.161 C 
ATOM     21  C   UNL     1      33.884 -12.696 -22.502  0.00  0.00    +0.018 C 
ATOM     22  C   UNL     1      32.239 -12.803 -20.736  0.00  0.00    +0.018 C 
ATOM     23  C   UNL     1      34.515 -13.827 -21.983  0.00  0.00    +0.040 C 
ATOM     24  C   UNL     1      32.869 -13.934 -20.217  0.00  0.00    +0.040 C 
BRANCH  19  25
ATOM     25  N   UNL     1      32.121 -11.063 -22.393  0.00  0.00    -0.246 N 
ATOM     26  N   UNL     1      31.785  -9.242 -23.635  0.00  0.00    -0.224 NA
ATOM     27  C   UNL     1      30.885 -10.581 -22.042  0.00  0.00    +0.092 C 
ATOM     28  C   UNL     1      32.619 -10.220 -23.355  0.00  0.00    +0.172 C 
ATOM     29  C   UNL     1      30.704  -9.462 -22.819  0.00  0.00    +0.117 C 
ENDBRANCH  19  25
ENDBRANCH  18  20
ENDBRANCH   6  18
TORSDOF 5
ENDMDL
MODEL 5
REMARK VINA RESULT:     -10.8      4.458     10.608
REMARK  Name = 10157080
REMARK  5 active torsions:
REMARK  status: ('A' for Active; 'I' for Inactive)
REMARK    1  A    between atoms: C_3  and  O_8
REMARK    2  A    between atoms: C_6  and  O_18
REMARK    3  A    between atoms: O_8  and  C_13
REMARK    4  A    between atoms: O_18  and  C_20
REMARK    5  A    between atoms: C_19  and  N_25
REMARK                            x       y       z     vdW  Elec       q    Type
REMARK                         _______ _______ _______ _____ _____    ______ ____
ROOT
ATOM      1  N   UNL     1      35.620 -18.113 -20.680  0.00  0.00    -0.277 NA
ATOM      2  N   UNL     1      35.285 -19.230 -22.789  0.00  0.00    -0.319 NA
ATOM      3  C   UNL     1      35.068 -17.019 -21.228  0.00  0.00    +0.278 C 
ATOM      4  C   UNL     1      34.607 -16.936 -22.520  0.00  0.00    +0.156 C 
ATOM      5  C   UNL     1      34.743 -18.090 -23.265  0.00  0.00    +0.113 C 
ATOM      6  C   UNL     1      35.696 -19.172 -21.508  0.00  0.00    +0.317 C 
ATOM      7  C   UNL     1      34.274 -18.109 -24.681  0.00  0.00    +0.063 C 
ENDROOT
BRANCH   3   8
ATOM      8  O   UNL     1      34.965 -15.905 -20.414  0.00  0.00    -0.429 OA
BRANCH   8  13
ATOM      9  O   UNL     1      33.932 -12.216 -23.343  0.00  0.00    -0.435 OA
ATOM     10  O   UNL     1      31.851 -11.785 -22.206  0.00  0.00    -0.435 OA
ATOM     11  C   UNL     1      33.717 -13.079 -22.313  0.00  0.00    +0.179 C 
ATOM     12  C   UNL     1      32.528 -12.833 -21.664  0.00  0.00    +0.177 C 
ATOM     13  C   UNL     1      34.167 -14.885 -20.836  0.00  0.00    +0.151 C 
ATOM     14  C   UNL     1      34.559 -14.099 -21.922  0.00  0.00    +0.078 C 
ATOM     15  C   UNL     1      32.117 -13.594 -20.588  0.00  0.00    +0.043 C 
ATOM     16  C   UNL     1      32.952 -14.633 -20.173  0.00  0.00    +0.041 C 
ATOM     17  C   UNL     1      32.745 -11.400 -23.270  0.00  0.00    +0.429 C 
ENDBRANCH   8  13
ENDBRANCH   3   8
BRANCH   6  18
ATOM     18  O   UNL     1      36.258 -20.317 -20.991  0.00  0.00    -0.375 OA
BRANCH  18  20
ATOM     19  C   UNL     1      34.134 -22.298 -18.027  0.00  0.00    +0.057 C 
ATOM     20  C   UNL     1      35.552 -20.974 -20.007  0.00  0.00    +0.161 C 
ATOM     21  C   UNL     1      35.525 -22.228 -17.959  0.00  0.00    +0.018 C 
ATOM     22  C   UNL     1      33.456 -21.701 -19.090  0.00  0.00    +0.018 C 
ATOM     23  C   UNL     1      36.240 -21.562 -18.955  0.00  0.00    +0.040 C 
ATOM     24  C   UNL     1      34.169 -21.035 -20.086  0.00  0.00    +0.040 C 
BRANCH  19  25
ATOM     25  N   UNL     1      33.426 -22.959 -17.039  0.00  0.00    -0.246 N 
ATOM     26  N   UNL     1      33.023 -24.167 -15.209  0.00  0.00    -0.224 NA
ATOM     27  C   UNL     1      32.061 -23.050 -16.931  0.00  0.00    +0.092 C 
ATOM     28  C   UNL     1      33.956 -23.649 -15.977  0.00  0.00    +0.172 C 
ATOM     29  C   UNL     1      31.841 -23.798 -15.799  0.00  0.00    +0.117 C 
ENDBRANCH  19  25
ENDBRANCH  18  20
ENDBRANCH   6  18
TORSDOF 5
ENDMDL
MODEL 6
REMARK VINA RESULT:     -10.6      3.767     10.028
REMARK  Name = 10157080
REMARK  5 active torsions:
REMARK  status: ('A' for Active; 'I' for Inactive)
REMARK    1  A    between atoms: C_3  and  O_8
REMARK    2  A    between atoms: C_6  and  O_18
REMARK    3  A    between atoms: O_8  and  C_13
REMARK    4  A    between atoms: O_18  and  C_20
REMARK    5  A    between atoms: C_19  and  N_25
REMARK                            x       y       z     vdW  Elec       q    Type
REMARK                         _______ _______ _______ _____ _____    ______ ____
ROOT
ATOM      1  N   UNL     1      36.436 -20.142 -20.842  0.00  0.00    -0.277 NA
ATOM      2  N   UNL     1      34.665 -21.045 -19.479  0.00  0.00    -0.319 NA
ATOM      3  C   UNL     1      35.490 -19.603 -21.627  0.00  0.00    +0.278 C 
ATOM      4  C   UNL     1      34.137 -19.729 -21.424  0.00  0.00    +0.156 C 
ATOM      5  C   UNL     1      33.777 -20.471 -20.317  0.00  0.00    +0.113 C 
ATOM      6  C   UNL     1      35.959 -20.843 -19.796  0.00  0.00    +0.317 C 
ATOM      7  C   UNL     1      32.333 -20.670 -20.003  0.00  0.00    +0.063 C 
ENDROOT
BRANCH   3   8
ATOM      8  O   UNL     1      35.933 -18.870 -22.714  0.00  0.00    -0.429 OA
BRANCH   8  13
ATOM      9  O   UNL     1      33.616 -15.775 -25.596  0.00  0.00    -0.435 OA
ATOM     10  O   UNL     1      33.457 -14.129 -23.843  0.00  0.00    -0.435 OA
ATOM     11  C   UNL     1      34.184 -16.200 -24.435  0.00  0.00    +0.179 C 
ATOM     12  C   UNL     1      34.093 -15.260 -23.434  0.00  0.00    +0.177 C 
ATOM     13  C   UNL     1      35.322 -17.678 -22.964  0.00  0.00    +0.151 C 
ATOM     14  C   UNL     1      34.793 -17.421 -24.231  0.00  0.00    +0.078 C 
ATOM     15  C   UNL     1      34.607 -15.489 -22.174  0.00  0.00    +0.043 C 
ATOM     16  C   UNL     1      35.229 -16.718 -21.941  0.00  0.00    +0.041 C 
ATOM     17  C   UNL     1      33.156 -14.462 -25.213  0.00  0.00    +0.429 C 
ENDBRANCH   8  13
ENDBRANCH   3   8
BRANCH   6  18
ATOM     18  O   UNL     1      36.892 -21.417 -18.965  0.00  0.00    -0.375 OA
BRANCH  18  20
ATOM     19  C   UNL     1      35.510 -23.046 -15.406  0.00  0.00    +0.057 C 
ATOM     20  C   UNL     1      36.434 -21.958 -17.783  0.00  0.00    +0.161 C 
ATOM     21  C   UNL     1      34.734 -23.136 -16.562  0.00  0.00    +0.018 C 
ATOM     22  C   UNL     1      36.750 -22.409 -15.446  0.00  0.00    +0.018 C 
ATOM     23  C   UNL     1      35.199 -22.589 -17.758  0.00  0.00    +0.040 C 
ATOM     24  C   UNL     1      37.215 -21.862 -16.642  0.00  0.00    +0.040 C 
BRANCH  19  25
ATOM     25  N   UNL     1      35.049 -23.588 -14.220  0.00  0.00    -0.246 N 
ATOM     26  N   UNL     1      33.650 -24.502 -12.745  0.00  0.00    -0.224 NA
ATOM     27  C   UNL     1      35.773 -23.777 -13.070  0.00  0.00    +0.092 C 
ATOM     28  C   UNL     1      33.777 -24.041 -13.969  0.00  0.00    +0.172 C 
ATOM     29  C   UNL     1      34.889 -24.340 -12.180  0.00  0.00    +0.117 C 
ENDBRANCH  19  25
ENDBRANCH  18  20
ENDBRANCH   6  18
TORSDOF 5
ENDMDL
MODEL 7
REMARK VINA RESULT:     -10.4      3.117      5.549
REMARK  Name = 10157080
REMARK  5 active torsions:
REMARK  status: ('A' for Active; 'I' for Inactive)
REMARK    1  A    between atoms: C_3  and  O_8
REMARK    2  A    between atoms: C_6  and  O_18
REMARK    3  A    between atoms: O_8  and  C_13
REMARK    4  A    between atoms: O_18  and  C_20
REMARK    5  A    between atoms: C_19  and  N_25
REMARK                            x       y       z     vdW  Elec       q    Type
REMARK                         _______ _______ _______ _____ _____    ______ ____
ROOT
ATOM      1  N   UNL     1      36.538 -19.936 -20.324  0.00  0.00    -0.277 NA
ATOM      2  N   UNL     1      34.312 -19.445 -21.108  0.00  0.00    -0.319 NA
ATOM      3  C   UNL     1      36.009 -20.934 -19.599  0.00  0.00    +0.278 C 
ATOM      4  C   UNL     1      34.674 -21.256 -19.563  0.00  0.00    +0.156 C 
ATOM      5  C   UNL     1      33.860 -20.466 -20.350  0.00  0.00    +0.113 C 
ATOM      6  C   UNL     1      35.642 -19.239 -21.049  0.00  0.00    +0.317 C 
ATOM      7  C   UNL     1      32.392 -20.729 -20.385  0.00  0.00    +0.063 C 
ENDROOT
BRANCH   3   8
ATOM      8  O   UNL     1      36.892 -21.681 -18.840  0.00  0.00    -0.429 OA
BRANCH   8  13
ATOM      9  O   UNL     1      37.481 -22.963 -14.228  0.00  0.00    -0.435 OA
ATOM     10  O   UNL     1      35.193 -23.699 -14.052  0.00  0.00    -0.435 OA
ATOM     11  C   UNL     1      36.794 -22.800 -15.392  0.00  0.00    +0.179 C 
ATOM     12  C   UNL     1      35.488 -23.219 -15.291  0.00  0.00    +0.177 C 
ATOM     13  C   UNL     1      36.438 -22.190 -17.660  0.00  0.00    +0.151 C 
ATOM     14  C   UNL     1      37.300 -22.279 -16.565  0.00  0.00    +0.078 C 
ATOM     15  C   UNL     1      34.615 -23.143 -16.357  0.00  0.00    +0.043 C 
ATOM     16  C   UNL     1      35.103 -22.619 -17.557  0.00  0.00    +0.041 C 
ATOM     17  C   UNL     1      36.460 -23.533 -13.384  0.00  0.00    +0.429 C 
ENDBRANCH   8  13
ENDBRANCH   3   8
BRANCH   6  18
ATOM     18  O   UNL     1      36.137 -18.203 -21.807  0.00  0.00    -0.375 OA
BRANCH  18  20
ATOM     19  C   UNL     1      33.923 -14.695 -21.901  0.00  0.00    +0.057 C 
ATOM     20  C   UNL     1      35.402 -17.039 -21.838  0.00  0.00    +0.161 C 
ATOM     21  C   UNL     1      34.315 -15.304 -23.093  0.00  0.00    +0.018 C 
ATOM     22  C   UNL     1      34.274 -15.265 -20.678  0.00  0.00    +0.018 C 
ATOM     23  C   UNL     1      35.059 -16.484 -23.062  0.00  0.00    +0.040 C 
ATOM     24  C   UNL     1      35.018 -16.444 -20.645  0.00  0.00    +0.040 C 
BRANCH  19  25
ATOM     25  N   UNL     1      33.185 -13.525 -21.933  0.00  0.00    -0.246 N 
ATOM     26  N   UNL     1      32.370 -11.588 -22.677  0.00  0.00    -0.224 NA
ATOM     27  C   UNL     1      32.322 -13.075 -20.966  0.00  0.00    +0.092 C 
ATOM     28  C   UNL     1      33.176 -12.592 -22.940  0.00  0.00    +0.172 C 
ATOM     29  C   UNL     1      31.835 -11.883 -21.448  0.00  0.00    +0.117 C 
ENDBRANCH  19  25
ENDBRANCH  18  20
ENDBRANCH   6  18
TORSDOF 5
ENDMDL
MODEL 8
REMARK VINA RESULT:     -10.1      9.950     15.837
REMARK  Name = 10157080
REMARK  5 active torsions:
REMARK  status: ('A' for Active; 'I' for Inactive)
REMARK    1  A    between atoms: C_3  and  O_8
REMARK    2  A    between atoms: C_6  and  O_18
REMARK    3  A    between atoms: O_8  and  C_13
REMARK    4  A    between atoms: O_18  and  C_20
REMARK    5  A    between atoms: C_19  and  N_25
REMARK                            x       y       z     vdW  Elec       q    Type
REMARK                         _______ _______ _______ _____ _____    ______ ____
ROOT
ATOM      1  N   UNL     1      33.460  -9.944 -23.297  0.00  0.00    -0.277 NA
ATOM      2  N   UNL     1      31.878 -11.534 -22.413  0.00  0.00    -0.319 NA
ATOM      3  C   UNL     1      33.055  -9.087 -22.347  0.00  0.00    +0.278 C 
ATOM      4  C   UNL     1      32.089  -9.356 -21.408  0.00  0.00    +0.156 C 
ATOM      5  C   UNL     1      31.527 -10.614 -21.490  0.00  0.00    +0.113 C 
ATOM      6  C   UNL     1      32.837 -11.137 -23.273  0.00  0.00    +0.317 C 
ATOM      7  C   UNL     1      30.468 -11.011 -20.517  0.00  0.00    +0.063 C 
ENDROOT
BRANCH   3   8
ATOM      8  O   UNL     1      33.670  -7.847 -22.330  0.00  0.00    -0.429 OA
BRANCH   8  13
ATOM      9  O   UNL     1      31.707  -3.593 -21.189  0.00  0.00    -0.435 OA
ATOM     10  O   UNL     1      30.619  -3.423 -23.333  0.00  0.00    -0.435 OA
ATOM     11  C   UNL     1      31.966  -4.664 -21.987  0.00  0.00    +0.179 C 
ATOM     12  C   UNL     1      31.345  -4.568 -23.211  0.00  0.00    +0.177 C 
ATOM     13  C   UNL     1      32.902  -6.757 -22.610  0.00  0.00    +0.151 C 
ATOM     14  C   UNL     1      32.753  -5.748 -21.656  0.00  0.00    +0.078 C 
ATOM     15  C   UNL     1      31.476  -5.550 -24.172  0.00  0.00    +0.043 C 
ATOM     16  C   UNL     1      32.267  -6.658 -23.862  0.00  0.00    +0.041 C 
ATOM     17  C   UNL     1      30.854  -2.810 -22.050  0.00  0.00    +0.429 C 
ENDBRANCH   8  13
ENDBRANCH   3   8
BRANCH   6  18
ATOM     18  O   UNL     1      33.217 -12.048 -24.231  0.00  0.00    -0.375 OA
BRANCH  18  20
ATOM     19  C   UNL     1      34.492 -15.769 -22.907  0.00  0.00    +0.057 C 
ATOM     20  C   UNL     1      33.641 -13.284 -23.791  0.00  0.00    +0.161 C 
ATOM     21  C   UNL     1      33.939 -15.635 -24.180  0.00  0.00    +0.018 C 
ATOM     22  C   UNL     1      34.617 -14.654 -22.079  0.00  0.00    +0.018 C 
ATOM     23  C   UNL     1      33.511 -14.384 -24.626  0.00  0.00    +0.040 C 
ATOM     24  C   UNL     1      34.189 -13.404 -22.523  0.00  0.00    +0.040 C 
BRANCH  19  25
ATOM     25  N   UNL     1      34.916 -17.010 -22.465  0.00  0.00    -0.246 N 
ATOM     26  N   UNL     1      35.690 -18.588 -21.094  0.00  0.00    -0.224 NA
ATOM     27  C   UNL     1      34.975 -18.165 -23.203  0.00  0.00    +0.092 C 
ATOM     28  C   UNL     1      35.358 -17.321 -21.203  0.00  0.00    +0.172 C 
ATOM     29  C   UNL     1      35.454 -19.119 -22.337  0.00  0.00    +0.117 C 
ENDBRANCH  19  25
ENDBRANCH  18  20
ENDBRANCH   6  18
TORSDOF 5
ENDMDL
MODEL 9
REMARK VINA RESULT:     -10.1      6.378     12.544
REMARK  Name = 10157080
REMARK  5 active torsions:
REMARK  status: ('A' for Active; 'I' for Inactive)
REMARK    1  A    between atoms: C_3  and  O_8
REMARK    2  A    between atoms: C_6  and  O_18
REMARK    3  A    between atoms: O_8  and  C_13
REMARK    4  A    between atoms: O_18  and  C_20
REMARK    5  A    between atoms: C_19  and  N_25
REMARK                            x       y       z     vdW  Elec       q    Type
REMARK                         _______ _______ _______ _____ _____    ______ ____
ROOT
ATOM      1  N   UNL     1      34.182 -15.449 -22.951  0.00  0.00    -0.277 NA
ATOM      2  N   UNL     1      34.238 -15.464 -25.361  0.00  0.00    -0.319 NA
ATOM      3  C   UNL     1      33.420 -14.346 -23.025  0.00  0.00    +0.278 C 
ATOM      4  C   UNL     1      33.025 -13.743 -24.194  0.00  0.00    +0.156 C 
ATOM      5  C   UNL     1      33.470 -14.354 -25.348  0.00  0.00    +0.113 C 
ATOM      6  C   UNL     1      34.552 -15.951 -24.145  0.00  0.00    +0.317 C 
ATOM      7  C   UNL     1      33.098 -13.781 -26.674  0.00  0.00    +0.063 C 
ENDROOT
BRANCH   3   8
ATOM      8  O   UNL     1      33.012 -13.796 -21.823  0.00  0.00    -0.429 OA
BRANCH   8  13
ATOM      9  O   UNL     1      32.839  -9.299 -23.555  0.00  0.00    -0.435 OA
ATOM     10  O   UNL     1      31.091  -8.681 -22.015  0.00  0.00    -0.435 OA
ATOM     11  C   UNL     1      32.477 -10.329 -22.744  0.00  0.00    +0.179 C 
ATOM     12  C   UNL     1      31.479  -9.977 -21.865  0.00  0.00    +0.177 C 
ATOM     13  C   UNL     1      32.513 -12.528 -21.845  0.00  0.00    +0.151 C 
ATOM     14  C   UNL     1      33.015 -11.599 -22.759  0.00  0.00    +0.078 C 
ATOM     15  C   UNL     1      30.965 -10.875 -20.951  0.00  0.00    +0.043 C 
ATOM     16  C   UNL     1      31.492 -12.168 -20.946  0.00  0.00    +0.041 C 
ATOM     17  C   UNL     1      31.956  -8.258 -23.088  0.00  0.00    +0.429 C 
ENDBRANCH   8  13
ENDBRANCH   3   8
BRANCH   6  18
ATOM     18  O   UNL     1      35.337 -17.080 -24.119  0.00  0.00    -0.375 OA
BRANCH  18  20
ATOM     19  C   UNL     1      34.520 -19.889 -21.176  0.00  0.00    +0.057 C 
ATOM     20  C   UNL     1      35.066 -18.013 -23.142  0.00  0.00    +0.161 C 
ATOM     21  C   UNL     1      33.879 -19.968 -22.412  0.00  0.00    +0.018 C 
ATOM     22  C   UNL     1      35.435 -18.866 -20.929  0.00  0.00    +0.018 C 
ATOM     23  C   UNL     1      34.154 -19.024 -23.402  0.00  0.00    +0.040 C 
ATOM     24  C   UNL     1      35.711 -17.923 -21.918  0.00  0.00    +0.040 C 
BRANCH  19  25
ATOM     25  N   UNL     1      34.247 -20.825 -20.195  0.00  0.00    -0.246 N 
ATOM     26  N   UNL     1      33.074 -22.104 -18.795  0.00  0.00    -0.224 NA
ATOM     27  C   UNL     1      35.162 -21.574 -19.499  0.00  0.00    +0.092 C 
ATOM     28  C   UNL     1      33.005 -21.184 -19.731  0.00  0.00    +0.172 C 
ATOM     29  C   UNL     1      34.416 -22.350 -18.646  0.00  0.00    +0.117 C 
ENDBRANCH  19  25
ENDBRANCH  18  20
ENDBRANCH   6  18
TORSDOF 5
ENDMDL
