MODEL 1
REMARK VINA RESULT:     -13.1      0.000      0.000
REMARK  Name = 4369496
REMARK  6 active torsions:
REMARK  status: ('A' for Active; 'I' for Inactive)
REMARK    1  A    between atoms: N_2  and  C_21
REMARK    2  A    between atoms: C_3  and  C_10
REMARK    3  A    between atoms: C_5  and  C_11
REMARK    4  A    between atoms: C_11  and  N_12
REMARK    5  A    between atoms: C_23  and  N_27
REMARK    6  A    between atoms: C_31  and  C_36
REMARK                            x       y       z     vdW  Elec       q    Type
REMARK                         _______ _______ _______ _____ _____    ______ ____
ROOT
ATOM      1  O   UNL     1      36.599 -18.305 -20.629  0.00  0.00    -0.270 OA
ATOM      2  N   UNL     1      34.435 -19.175 -20.875  0.00  0.00    -0.280 N 
ATOM      3  C   UNL     1      35.439 -18.213 -21.059  0.00  0.00    +0.249 C 
ATOM      4  H   UNL     1      33.561 -18.962 -21.276  0.00  0.00    +0.155 HD
ENDROOT
BRANCH   3  10
ATOM      5  C   UNL     1      34.299 -14.742 -23.189  0.00  0.00    -0.043 C 
ATOM      6  C   UNL     1      34.401 -14.692 -21.806  0.00  0.00    -0.006 C 
ATOM      7  C   UNL     1      34.566 -15.913 -23.884  0.00  0.00    -0.006 C 
ATOM      8  C   UNL     1      34.778 -15.837 -21.104  0.00  0.00    +0.004 C 
ATOM      9  C   UNL     1      34.942 -17.057 -23.182  0.00  0.00    +0.004 C 
ATOM     10  C   UNL     1      35.048 -17.020 -21.791  0.00  0.00    +0.054 C 
BRANCH   5  11
ATOM     11  C   UNL     1      33.894 -13.506 -23.948  0.00  0.00    -0.050 C 
BRANCH  11  12
ATOM     12  N   UNL     1      33.530 -12.411 -23.051  0.00  0.00    +0.387 N 
ATOM     13  N   UNL     1      31.935 -10.120 -22.296  0.00  0.00    +0.383 N 
ATOM     14  C   UNL     1      32.151 -12.567 -22.572  0.00  0.00    -0.100 C 
ATOM     15  C   UNL     1      33.697 -11.114 -23.717  0.00  0.00    -0.100 C 
ATOM     16  C   UNL     1      31.767 -11.419 -21.632  0.00  0.00    -0.101 C 
ATOM     17  C   UNL     1      33.314  -9.964 -22.778  0.00  0.00    -0.101 C 
ATOM     18  C   UNL     1      31.572  -9.027 -21.398  0.00  0.00    -0.101 C 
ATOM     19  H   UNL     1      34.155 -12.442 -22.246  0.00  0.00    -0.079 HD
ATOM     20  H   UNL     1      31.308 -10.088 -23.102  0.00  0.00    -0.080 HD
ENDBRANCH  11  12
ENDBRANCH   5  11
ENDBRANCH   3  10
BRANCH   2  21
ATOM     21  C   UNL     1      34.513 -20.412 -20.190  0.00  0.00    +0.052 C 
ATOM     22  C   UNL     1      33.400 -20.881 -19.513  0.00  0.00    +0.030 C 
ATOM     23  C   UNL     1      33.478 -22.099 -18.836  0.00  0.00    +0.059 C 
ATOM     24  C   UNL     1      35.700 -21.123 -20.213  0.00  0.00    +0.015 C 
ATOM     25  C   UNL     1      34.667 -22.829 -18.848  0.00  0.00    +0.015 C 
ATOM     26  C   UNL     1      35.777 -22.341 -19.536  0.00  0.00    +0.003 C 
BRANCH  23  27
ATOM     27  N   UNL     1      32.354 -22.592 -18.141  0.00  0.00    -0.247 N 
ATOM     28  N   UNL     1      33.302 -23.234 -16.093  0.00  0.00    -0.337 NA
ATOM     29  N   UNL     1      30.946 -23.520 -16.510  0.00  0.00    -0.170 NA
ATOM     30  C   UNL     1      32.193 -23.142 -16.855  0.00  0.00    +0.149 C 
ATOM     31  C   UNL     1      33.111 -23.765 -14.867  0.00  0.00    +0.147 C 
ATOM     32  C   UNL     1      31.885 -24.189 -14.398  0.00  0.00    +0.055 C 
ATOM     33  C   UNL     1      30.828 -24.042 -15.271  0.00  0.00    +0.114 C 
ATOM     34  H   UNL     1      31.517 -22.544 -18.659  0.00  0.00    +0.165 HD
BRANCH  31  36
ATOM     35  N   UNL     1      36.669 -23.467 -13.798  0.00  0.00    -0.242 NA
ATOM     36  C   UNL     1      34.297 -23.864 -14.051  0.00  0.00    +0.050 C 
ATOM     37  C   UNL     1      34.248 -24.422 -12.778  0.00  0.00    +0.006 C 
ATOM     38  C   UNL     1      35.522 -23.406 -14.510  0.00  0.00    +0.101 C 
ATOM     39  C   UNL     1      35.408 -24.503 -12.015  0.00  0.00    +0.021 C 
ATOM     40  C   UNL     1      36.582 -24.016 -12.566  0.00  0.00    +0.099 C 
ENDBRANCH  31  36
ENDBRANCH  23  27
ENDBRANCH   2  21
TORSDOF 6
ENDMDL
MODEL 2
REMARK VINA RESULT:     -12.8      2.337      5.466
REMARK  Name = 4369496
REMARK  6 active torsions:
REMARK  status: ('A' for Active; 'I' for Inactive)
REMARK    1  A    between atoms: N_2  and  C_21
REMARK    2  A    between atoms: C_3  and  C_10
REMARK    3  A    between atoms: C_5  and  C_11
REMARK    4  A    between atoms: C_11  and  N_12
REMARK    5  A    between atoms: C_23  and  N_27
REMARK    6  A    between atoms: C_31  and  C_36
REMARK                            x       y       z     vdW  Elec       q    Type
REMARK                         _______ _______ _______ _____ _____    ______ ____
ROOT
ATOM      1  O   UNL     1      34.087 -23.809 -17.792  0.00  0.00    -0.270 OA
ATOM      2  N   UNL     1      32.268 -22.372 -17.432  0.00  0.00    -0.280 N 
ATOM      3  C   UNL     1      33.446 -22.783 -18.071  0.00  0.00    +0.249 C 
ATOM      4  H   UNL     1      31.873 -21.534 -17.763  0.00  0.00    +0.155 HD
ENDROOT
BRANCH   3  10
ATOM      5  C   UNL     1      34.888 -20.221 -21.112  0.00  0.00    -0.043 C 
ATOM      6  C   UNL     1      35.785 -20.989 -20.384  0.00  0.00    -0.006 C 
ATOM      7  C   UNL     1      33.524 -20.281 -20.858  0.00  0.00    -0.006 C 
ATOM      8  C   UNL     1      35.309 -21.835 -19.381  0.00  0.00    +0.004 C 
ATOM      9  C   UNL     1      33.049 -21.126 -19.856  0.00  0.00    +0.004 C 
ATOM     10  C   UNL     1      33.941 -21.903 -19.117  0.00  0.00    +0.054 C 
BRANCH   5  11
ATOM     11  C   UNL     1      35.400 -19.309 -22.195  0.00  0.00    -0.050 C 
BRANCH  11  12
ATOM     12  N   UNL     1      34.761 -17.996 -22.148  0.00  0.00    +0.387 N 
ATOM     13  N   UNL     1      34.791 -15.109 -22.304  0.00  0.00    +0.383 N 
ATOM     14  C   UNL     1      34.896 -17.304 -23.435  0.00  0.00    -0.100 C 
ATOM     15  C   UNL     1      35.326 -17.180 -21.067  0.00  0.00    -0.100 C 
ATOM     16  C   UNL     1      34.227 -15.926 -23.386  0.00  0.00    -0.101 C 
ATOM     17  C   UNL     1      34.658 -15.801 -21.016  0.00  0.00    -0.101 C 
ATOM     18  C   UNL     1      34.150 -13.796 -22.257  0.00  0.00    -0.101 C 
ATOM     19  H   UNL     1      33.768 -18.135 -21.961  0.00  0.00    -0.079 HD
ATOM     20  H   UNL     1      35.784 -14.968 -22.492  0.00  0.00    -0.080 HD
ENDBRANCH  11  12
ENDBRANCH   5  11
ENDBRANCH   3  10
BRANCH   2  21
ATOM     21  C   UNL     1      31.572 -23.005 -16.373  0.00  0.00    +0.052 C 
ATOM     22  C   UNL     1      32.279 -23.451 -15.270  0.00  0.00    +0.030 C 
ATOM     23  C   UNL     1      31.593 -24.076 -14.228  0.00  0.00    +0.059 C 
ATOM     24  C   UNL     1      30.200 -23.163 -16.466  0.00  0.00    +0.015 C 
ATOM     25  C   UNL     1      30.211 -24.243 -14.305  0.00  0.00    +0.015 C 
ATOM     26  C   UNL     1      29.514 -23.787 -15.423  0.00  0.00    +0.003 C 
BRANCH  23  27
ATOM     27  N   UNL     1      32.298 -24.535 -13.095  0.00  0.00    -0.247 N 
ATOM     28  N   UNL     1      34.523 -24.131 -13.721  0.00  0.00    -0.337 NA
ATOM     29  N   UNL     1      33.997 -25.109 -11.583  0.00  0.00    -0.170 NA
ATOM     30  C   UNL     1      33.670 -24.594 -12.786  0.00  0.00    +0.149 C 
ATOM     31  C   UNL     1      35.829 -24.203 -13.391  0.00  0.00    +0.147 C 
ATOM     32  C   UNL     1      36.290 -24.707 -12.192  0.00  0.00    +0.055 C 
ATOM     33  C   UNL     1      35.319 -25.150 -11.318  0.00  0.00    +0.114 C 
ATOM     34  H   UNL     1      31.715 -24.884 -12.382  0.00  0.00    +0.165 HD
BRANCH  31  36
ATOM     35  N   UNL     1      38.927 -23.799 -15.423  0.00  0.00    -0.242 NA
ATOM     36  C   UNL     1      36.742 -23.706 -14.392  0.00  0.00    +0.050 C 
ATOM     37  C   UNL     1      36.364 -22.696 -15.271  0.00  0.00    +0.006 C 
ATOM     38  C   UNL     1      38.024 -24.218 -14.509  0.00  0.00    +0.101 C 
ATOM     39  C   UNL     1      37.266 -22.237 -16.225  0.00  0.00    +0.021 C 
ATOM     40  C   UNL     1      38.523 -22.817 -16.259  0.00  0.00    +0.099 C 
ENDBRANCH  31  36
ENDBRANCH  23  27
ENDBRANCH   2  21
TORSDOF 6
ENDMDL
MODEL 3
REMARK VINA RESULT:     -12.7      2.988      5.887
REMARK  Name = 4369496
REMARK  6 active torsions:
REMARK  status: ('A' for Active; 'I' for Inactive)
REMARK    1  A    between atoms: N_2  and  C_21
REMARK    2  A    between atoms: C_3  and  C_10
REMARK    3  A    between atoms: C_5  and  C_11
REMARK    4  A    between atoms: C_11  and  N_12
REMARK    5  A    between atoms: C_23  and  N_27
REMARK    6  A    between atoms: C_31  and  C_36
REMARK                            x       y       z     vdW  Elec       q    Type
REMARK                         _______ _______ _______ _____ _____    ______ ____
ROOT
ATOM      1  O   UNL     1      33.690 -24.140 -18.650  0.00  0.00    -0.270 OA
ATOM      2  N   UNL     1      33.384 -22.560 -16.944  0.00  0.00    -0.280 N 
ATOM      3  C   UNL     1      33.797 -22.982 -18.215  0.00  0.00    +0.249 C 
ATOM      4  H   UNL     1      33.534 -21.609 -16.740  0.00  0.00    +0.155 HD
ENDROOT
BRANCH   3  10
ATOM      5  C   UNL     1      35.596 -20.026 -20.647  0.00  0.00    -0.043 C 
ATOM      6  C   UNL     1      36.396 -20.856 -19.875  0.00  0.00    -0.006 C 
ATOM      7  C   UNL     1      34.214 -20.150 -20.633  0.00  0.00    -0.006 C 
ATOM      8  C   UNL     1      35.803 -21.832 -19.074  0.00  0.00    +0.004 C 
ATOM      9  C   UNL     1      33.621 -21.126 -19.832  0.00  0.00    +0.004 C 
ATOM     10  C   UNL     1      34.415 -21.967 -19.052  0.00  0.00    +0.054 C 
BRANCH   5  11
ATOM     11  C   UNL     1      36.236 -18.973 -21.513  0.00  0.00    -0.050 C 
BRANCH  11  12
ATOM     12  N   UNL     1      35.240 -18.182 -22.233  0.00  0.00    +0.387 N 
ATOM     13  N   UNL     1      34.426 -16.315 -24.285  0.00  0.00    +0.383 N 
ATOM     14  C   UNL     1      35.179 -18.580 -23.644  0.00  0.00    -0.100 C 
ATOM     15  C   UNL     1      35.532 -16.748 -22.118  0.00  0.00    -0.100 C 
ATOM     16  C   UNL     1      34.137 -17.750 -24.401  0.00  0.00    -0.101 C 
ATOM     17  C   UNL     1      34.489 -15.916 -22.874  0.00  0.00    -0.101 C 
ATOM     18  C   UNL     1      33.429 -15.525 -25.004  0.00  0.00    -0.101 C 
ATOM     19  H   UNL     1      34.330 -18.360 -21.810  0.00  0.00    -0.079 HD
ATOM     20  H   UNL     1      35.337 -16.136 -24.711  0.00  0.00    -0.080 HD
ENDBRANCH  11  12
ENDBRANCH   5  11
ENDBRANCH   3  10
BRANCH   2  21
ATOM     21  C   UNL     1      32.780 -23.322 -15.914  0.00  0.00    +0.052 C 
ATOM     22  C   UNL     1      33.361 -23.340 -14.657  0.00  0.00    +0.030 C 
ATOM     23  C   UNL     1      32.766 -24.093 -13.643  0.00  0.00    +0.059 C 
ATOM     24  C   UNL     1      31.623 -24.030 -16.188  0.00  0.00    +0.015 C 
ATOM     25  C   UNL     1      31.600 -24.813 -13.902  0.00  0.00    +0.015 C 
ATOM     26  C   UNL     1      31.029 -24.782 -15.174  0.00  0.00    +0.003 C 
BRANCH  23  27
ATOM     27  N   UNL     1      33.343 -24.123 -12.356  0.00  0.00    -0.247 N 
ATOM     28  N   UNL     1      35.612 -24.452 -12.859  0.00  0.00    -0.337 NA
ATOM     29  N   UNL     1      34.864 -24.266 -10.576  0.00  0.00    -0.170 NA
ATOM     30  C   UNL     1      34.669 -24.288 -11.910  0.00  0.00    +0.149 C 
ATOM     31  C   UNL     1      36.869 -24.608 -12.394  0.00  0.00    +0.147 C 
ATOM     32  C   UNL     1      37.198 -24.603 -11.054  0.00  0.00    +0.055 C 
ATOM     33  C   UNL     1      36.144 -24.427 -10.182  0.00  0.00    +0.114 C 
ATOM     34  H   UNL     1      32.691 -24.006 -11.628  0.00  0.00    +0.165 HD
BRANCH  31  36
ATOM     35  N   UNL     1      38.847 -24.065 -15.506  0.00  0.00    -0.242 NA
ATOM     36  C   UNL     1      37.880 -24.783 -13.410  0.00  0.00    +0.050 C 
ATOM     37  C   UNL     1      38.837 -25.787 -13.305  0.00  0.00    +0.006 C 
ATOM     38  C   UNL     1      37.928 -23.956 -14.521  0.00  0.00    +0.101 C 
ATOM     39  C   UNL     1      39.798 -25.931 -14.300  0.00  0.00    +0.021 C 
ATOM     40  C   UNL     1      39.760 -25.052 -15.370  0.00  0.00    +0.099 C 
ENDBRANCH  31  36
ENDBRANCH  23  27
ENDBRANCH   2  21
TORSDOF 6
ENDMDL
MODEL 4
REMARK VINA RESULT:     -12.0      2.142     12.973
REMARK  Name = 4369496
REMARK  6 active torsions:
REMARK  status: ('A' for Active; 'I' for Inactive)
REMARK    1  A    between atoms: N_2  and  C_21
REMARK    2  A    between atoms: C_3  and  C_10
REMARK    3  A    between atoms: C_5  and  C_11
REMARK    4  A    between atoms: C_11  and  N_12
REMARK    5  A    between atoms: C_23  and  N_27
REMARK    6  A    between atoms: C_31  and  C_36
REMARK                            x       y       z     vdW  Elec       q    Type
REMARK                         _______ _______ _______ _____ _____    ______ ____
ROOT
ATOM      1  O   UNL     1      34.959 -17.366 -23.787  0.00  0.00    -0.270 OA
ATOM      2  N   UNL     1      34.524 -16.122 -21.846  0.00  0.00    -0.280 N 
ATOM      3  C   UNL     1      34.944 -17.259 -22.550  0.00  0.00    +0.249 C 
ATOM      4  H   UNL     1      34.569 -16.187 -20.865  0.00  0.00    +0.155 HD
ENDROOT
BRANCH   3  10
ATOM      5  C   UNL     1      36.164 -20.547 -20.185  0.00  0.00    -0.043 C 
ATOM      6  C   UNL     1      34.836 -20.438 -20.571  0.00  0.00    -0.006 C 
ATOM      7  C   UNL     1      37.099 -19.594 -20.564  0.00  0.00    -0.006 C 
ATOM      8  C   UNL     1      34.434 -19.354 -21.351  0.00  0.00    +0.004 C 
ATOM      9  C   UNL     1      36.697 -18.510 -21.345  0.00  0.00    +0.004 C 
ATOM     10  C   UNL     1      35.364 -18.390 -21.738  0.00  0.00    +0.054 C 
BRANCH   5  11
ATOM     11  C   UNL     1      36.599 -21.718 -19.344  0.00  0.00    -0.050 C 
BRANCH  11  12
ATOM     12  N   UNL     1      35.743 -21.893 -18.172  0.00  0.00    +0.387 N 
ATOM     13  N   UNL     1      34.584 -23.466 -16.041  0.00  0.00    +0.383 N 
ATOM     14  C   UNL     1      36.535 -22.294 -17.004  0.00  0.00    -0.100 C 
ATOM     15  C   UNL     1      34.690 -22.880 -18.440  0.00  0.00    -0.100 C 
ATOM     16  C   UNL     1      35.639 -22.481 -15.775  0.00  0.00    -0.101 C 
ATOM     17  C   UNL     1      33.792 -23.067 -17.212  0.00  0.00    -0.101 C 
ATOM     18  C   UNL     1      33.728 -23.640 -14.870  0.00  0.00    -0.101 C 
ATOM     19  H   UNL     1      35.301 -20.998 -17.968  0.00  0.00    -0.079 HD
ATOM     20  H   UNL     1      35.026 -24.364 -16.244  0.00  0.00    -0.080 HD
ENDBRANCH  11  12
ENDBRANCH   5  11
ENDBRANCH   3  10
BRANCH   2  21
ATOM     21  C   UNL     1      34.044 -14.893 -22.361  0.00  0.00    +0.052 C 
ATOM     22  C   UNL     1      33.407 -14.006 -21.509  0.00  0.00    +0.030 C 
ATOM     23  C   UNL     1      32.932 -12.797 -22.017  0.00  0.00    +0.059 C 
ATOM     24  C   UNL     1      34.221 -14.608 -23.703  0.00  0.00    +0.015 C 
ATOM     25  C   UNL     1      33.102 -12.493 -23.368  0.00  0.00    +0.015 C 
ATOM     26  C   UNL     1      33.747 -13.398 -24.211  0.00  0.00    +0.003 C 
BRANCH  23  27
ATOM     27  N   UNL     1      32.282 -11.881 -21.164  0.00  0.00    -0.247 N 
ATOM     28  N   UNL     1      32.840  -9.828 -22.154  0.00  0.00    -0.337 NA
ATOM     29  N   UNL     1      31.472  -9.915 -20.172  0.00  0.00    -0.170 NA
ATOM     30  C   UNL     1      32.194 -10.475 -21.163  0.00  0.00    +0.149 C 
ATOM     31  C   UNL     1      32.734  -8.483 -22.122  0.00  0.00    +0.147 C 
ATOM     32  C   UNL     1      32.025  -7.792 -21.161  0.00  0.00    +0.055 C 
ATOM     33  C   UNL     1      31.409  -8.567 -20.201  0.00  0.00    +0.114 C 
ATOM     34  H   UNL     1      31.794 -12.308 -20.423  0.00  0.00    +0.165 HD
BRANCH  31  36
ATOM     35  N   UNL     1      33.410  -6.940 -25.447  0.00  0.00    -0.242 NA
ATOM     36  C   UNL     1      33.424  -7.789 -23.183  0.00  0.00    +0.050 C 
ATOM     37  C   UNL     1      34.717  -7.307 -23.004  0.00  0.00    +0.006 C 
ATOM     38  C   UNL     1      32.821  -7.582 -24.413  0.00  0.00    +0.101 C 
ATOM     39  C   UNL     1      35.356  -6.643 -24.045  0.00  0.00    +0.021 C 
ATOM     40  C   UNL     1      34.665  -6.487 -25.235  0.00  0.00    +0.099 C 
ENDBRANCH  31  36
ENDBRANCH  23  27
ENDBRANCH   2  21
TORSDOF 6
ENDMDL
MODEL 5
REMARK VINA RESULT:     -10.9      1.375      2.697
REMARK  Name = 4369496
REMARK  6 active torsions:
REMARK  status: ('A' for Active; 'I' for Inactive)
REMARK    1  A    between atoms: N_2  and  C_21
REMARK    2  A    between atoms: C_3  and  C_10
REMARK    3  A    between atoms: C_5  and  C_11
REMARK    4  A    between atoms: C_11  and  N_12
REMARK    5  A    between atoms: C_23  and  N_27
REMARK    6  A    between atoms: C_31  and  C_36
REMARK                            x       y       z     vdW  Elec       q    Type
REMARK                         _______ _______ _______ _____ _____    ______ ____
ROOT
ATOM      1  O   UNL     1      36.538 -18.681 -21.535  0.00  0.00    -0.270 OA
ATOM      2  N   UNL     1      34.278 -19.005 -20.998  0.00  0.00    -0.280 N 
ATOM      3  C   UNL     1      35.353 -18.313 -21.572  0.00  0.00    +0.249 C 
ATOM      4  H   UNL     1      33.394 -18.589 -21.108  0.00  0.00    +0.155 HD
ENDROOT
BRANCH   3  10
ATOM      5  C   UNL     1      34.386 -14.667 -23.485  0.00  0.00    -0.043 C 
ATOM      6  C   UNL     1      34.564 -14.690 -22.110  0.00  0.00    -0.006 C 
ATOM      7  C   UNL     1      34.520 -15.821 -24.244  0.00  0.00    -0.006 C 
ATOM      8  C   UNL     1      34.884 -15.892 -21.479  0.00  0.00    +0.004 C 
ATOM      9  C   UNL     1      34.840 -17.023 -23.613  0.00  0.00    +0.004 C 
ATOM     10  C   UNL     1      35.022 -17.059 -22.230  0.00  0.00    +0.054 C 
BRANCH   5  11
ATOM     11  C   UNL     1      34.042 -13.369 -24.167  0.00  0.00    -0.050 C 
BRANCH  11  12
ATOM     12  N   UNL     1      33.639 -12.341 -23.209  0.00  0.00    +0.387 N 
ATOM     13  N   UNL     1      31.963 -10.157 -22.327  0.00  0.00    +0.383 N 
ATOM     14  C   UNL     1      32.268 -12.574 -22.740  0.00  0.00    -0.100 C 
ATOM     15  C   UNL     1      33.757 -11.003 -23.801  0.00  0.00    -0.100 C 
ATOM     16  C   UNL     1      31.844 -11.496 -21.738  0.00  0.00    -0.101 C 
ATOM     17  C   UNL     1      33.334  -9.923 -22.798  0.00  0.00    -0.101 C 
ATOM     18  C   UNL     1      31.562  -9.130 -21.369  0.00  0.00    -0.101 C 
ATOM     19  H   UNL     1      34.266 -12.395 -22.408  0.00  0.00    -0.079 HD
ATOM     20  H   UNL     1      31.334 -10.102 -23.129  0.00  0.00    -0.080 HD
ENDBRANCH  11  12
ENDBRANCH   5  11
ENDBRANCH   3  10
BRANCH   2  21
ATOM     21  C   UNL     1      34.298 -20.226 -20.279  0.00  0.00    +0.052 C 
ATOM     22  C   UNL     1      35.394 -20.528 -19.489  0.00  0.00    +0.030 C 
ATOM     23  C   UNL     1      35.414 -21.731 -18.783  0.00  0.00    +0.059 C 
ATOM     24  C   UNL     1      33.221 -21.089 -20.383  0.00  0.00    +0.015 C 
ATOM     25  C   UNL     1      34.337 -22.612 -18.876  0.00  0.00    +0.015 C 
ATOM     26  C   UNL     1      33.240 -22.291 -19.676  0.00  0.00    +0.003 C 
BRANCH  23  27
ATOM     27  N   UNL     1      36.522 -22.054 -17.972  0.00  0.00    -0.247 N 
ATOM     28  N   UNL     1      35.485 -23.073 -16.130  0.00  0.00    -0.337 NA
ATOM     29  N   UNL     1      37.880 -22.831 -16.224  0.00  0.00    -0.170 NA
ATOM     30  C   UNL     1      36.634 -22.682 -16.716  0.00  0.00    +0.149 C 
ATOM     31  C   UNL     1      35.630 -23.670 -14.929  0.00  0.00    +0.147 C 
ATOM     32  C   UNL     1      36.849 -23.881 -14.320  0.00  0.00    +0.055 C 
ATOM     33  C   UNL     1      37.951 -23.436 -15.020  0.00  0.00    +0.114 C 
ATOM     34  H   UNL     1      37.387 -21.788 -18.360  0.00  0.00    +0.165 HD
BRANCH  31  36
ATOM     35  N   UNL     1      33.289 -25.117 -12.415  0.00  0.00    -0.242 NA
ATOM     36  C   UNL     1      34.400 -24.090 -14.301  0.00  0.00    +0.050 C 
ATOM     37  C   UNL     1      33.172 -23.894 -14.926  0.00  0.00    +0.006 C 
ATOM     38  C   UNL     1      34.403 -24.701 -13.058  0.00  0.00    +0.101 C 
ATOM     39  C   UNL     1      32.004 -24.309 -14.296  0.00  0.00    +0.021 C 
ATOM     40  C   UNL     1      32.116 -24.909 -13.052  0.00  0.00    +0.099 C 
ENDBRANCH  31  36
ENDBRANCH  23  27
ENDBRANCH   2  21
TORSDOF 6
ENDMDL
MODEL 6
REMARK VINA RESULT:     -10.7      3.954     15.176
REMARK  Name = 4369496
REMARK  6 active torsions:
REMARK  status: ('A' for Active; 'I' for Inactive)
REMARK    1  A    between atoms: N_2  and  C_21
REMARK    2  A    between atoms: C_3  and  C_10
REMARK    3  A    between atoms: C_5  and  C_11
REMARK    4  A    between atoms: C_11  and  N_12
REMARK    5  A    between atoms: C_23  and  N_27
REMARK    6  A    between atoms: C_31  and  C_36
REMARK                            x       y       z     vdW  Elec       q    Type
REMARK                         _______ _______ _______ _____ _____    ______ ____
ROOT
ATOM      1  O   UNL     1      32.230 -12.829 -20.867  0.00  0.00    -0.270 OA
ATOM      2  N   UNL     1      33.341 -12.085 -22.794  0.00  0.00    -0.280 N 
ATOM      3  C   UNL     1      33.033 -13.018 -21.794  0.00  0.00    +0.249 C 
ATOM      4  H   UNL     1      33.999 -12.379 -23.464  0.00  0.00    +0.155 HD
ENDROOT
BRANCH   3  10
ATOM      5  C   UNL     1      35.107 -16.699 -21.998  0.00  0.00    -0.043 C 
ATOM      6  C   UNL     1      34.704 -16.076 -23.170  0.00  0.00    -0.006 C 
ATOM      7  C   UNL     1      34.841 -16.133 -20.759  0.00  0.00    -0.006 C 
ATOM      8  C   UNL     1      34.021 -14.862 -23.103  0.00  0.00    +0.004 C 
ATOM      9  C   UNL     1      34.158 -14.919 -20.692  0.00  0.00    +0.004 C 
ATOM     10  C   UNL     1      33.747 -14.283 -21.864  0.00  0.00    +0.054 C 
BRANCH   5  11
ATOM     11  C   UNL     1      35.846 -18.009 -22.070  0.00  0.00    -0.050 C 
BRANCH  11  12
ATOM     12  N   UNL     1      35.487 -18.898 -20.966  0.00  0.00    +0.387 N 
ATOM     13  N   UNL     1      35.064 -21.506 -19.792  0.00  0.00    +0.383 N 
ATOM     14  C   UNL     1      36.616 -19.762 -20.604  0.00  0.00    -0.100 C 
ATOM     15  C   UNL     1      34.312 -19.708 -21.312  0.00  0.00    -0.100 C 
ATOM     16  C   UNL     1      36.240 -20.696 -19.449  0.00  0.00    -0.101 C 
ATOM     17  C   UNL     1      33.934 -20.642 -20.156  0.00  0.00    -0.101 C 
ATOM     18  C   UNL     1      34.705 -22.393 -18.688  0.00  0.00    -0.101 C 
ATOM     19  H   UNL     1      35.253 -18.320 -20.160  0.00  0.00    -0.079 HD
ATOM     20  H   UNL     1      35.299 -22.086 -20.598  0.00  0.00    -0.080 HD
ENDBRANCH  11  12
ENDBRANCH   5  11
ENDBRANCH   3  10
BRANCH   2  21
ATOM     21  C   UNL     1      32.828 -10.776 -22.967  0.00  0.00    +0.052 C 
ATOM     22  C   UNL     1      33.457  -9.915 -23.850  0.00  0.00    +0.030 C 
ATOM     23  C   UNL     1      32.953  -8.625 -24.019  0.00  0.00    +0.059 C 
ATOM     24  C   UNL     1      31.711 -10.388 -22.248  0.00  0.00    +0.015 C 
ATOM     25  C   UNL     1      31.828  -8.217 -23.303  0.00  0.00    +0.015 C 
ATOM     26  C   UNL     1      31.207  -9.098 -22.418  0.00  0.00    +0.003 C 
BRANCH  23  27
ATOM     27  N   UNL     1      33.581  -7.735 -24.915  0.00  0.00    -0.247 N 
ATOM     28  N   UNL     1      32.675  -5.674 -24.253  0.00  0.00    -0.337 NA
ATOM     29  N   UNL     1      34.255  -5.806 -26.068  0.00  0.00    -0.170 NA
ATOM     30  C   UNL     1      33.499  -6.339 -25.087  0.00  0.00    +0.149 C 
ATOM     31  C   UNL     1      32.622  -4.339 -24.446  0.00  0.00    +0.147 C 
ATOM     32  C   UNL     1      33.346  -3.675 -25.414  0.00  0.00    +0.055 C 
ATOM     33  C   UNL     1      34.154  -4.467 -26.204  0.00  0.00    +0.114 C 
ATOM     34  H   UNL     1      34.195  -8.176 -25.546  0.00  0.00    +0.165 HD
BRANCH  31  36
ATOM     35  N   UNL     1      29.915  -2.068 -23.261  0.00  0.00    -0.242 NA
ATOM     36  C   UNL     1      31.741  -3.626 -23.553  0.00  0.00    +0.050 C 
ATOM     37  C   UNL     1      31.836  -3.781 -22.174  0.00  0.00    +0.006 C 
ATOM     38  C   UNL     1      30.771  -2.765 -24.041  0.00  0.00    +0.101 C 
ATOM     39  C   UNL     1      30.973  -3.081 -21.339  0.00  0.00    +0.021 C 
ATOM     40  C   UNL     1      30.038  -2.245 -21.927  0.00  0.00    +0.099 C 
ENDBRANCH  31  36
ENDBRANCH  23  27
ENDBRANCH   2  21
TORSDOF 6
ENDMDL
MODEL 7
REMARK VINA RESULT:     -10.5      5.974     16.032
REMARK  Name = 4369496
REMARK  6 active torsions:
REMARK  status: ('A' for Active; 'I' for Inactive)
REMARK    1  A    between atoms: N_2  and  C_21
REMARK    2  A    between atoms: C_3  and  C_10
REMARK    3  A    between atoms: C_5  and  C_11
REMARK    4  A    between atoms: C_11  and  N_12
REMARK    5  A    between atoms: C_23  and  N_27
REMARK    6  A    between atoms: C_31  and  C_36
REMARK                            x       y       z     vdW  Elec       q    Type
REMARK                         _______ _______ _______ _____ _____    ______ ____
ROOT
ATOM      1  O   UNL     1      31.356 -10.388 -20.990  0.00  0.00    -0.270 OA
ATOM      2  N   UNL     1      32.748  -9.162 -22.426  0.00  0.00    -0.280 N 
ATOM      3  C   UNL     1      32.157 -10.335 -21.937  0.00  0.00    +0.249 C 
ATOM      4  H   UNL     1      33.366  -9.279 -23.183  0.00  0.00    +0.155 HD
ENDROOT
BRANCH   3  10
ATOM      5  C   UNL     1      33.311 -13.923 -23.856  0.00  0.00    -0.043 C 
ATOM      6  C   UNL     1      33.875 -12.721 -24.259  0.00  0.00    -0.006 C 
ATOM      7  C   UNL     1      32.374 -13.967 -22.834  0.00  0.00    -0.006 C 
ATOM      8  C   UNL     1      33.495 -11.538 -23.625  0.00  0.00    +0.004 C 
ATOM      9  C   UNL     1      31.994 -12.784 -22.200  0.00  0.00    +0.004 C 
ATOM     10  C   UNL     1      32.554 -11.569 -22.596  0.00  0.00    +0.054 C 
BRANCH   5  11
ATOM     11  C   UNL     1      33.722 -15.201 -24.539  0.00  0.00    -0.050 C 
BRANCH  11  12
ATOM     12  N   UNL     1      34.040 -16.254 -23.576  0.00  0.00    +0.387 N 
ATOM     13  N   UNL     1      35.861 -18.061 -22.242  0.00  0.00    +0.383 N 
ATOM     14  C   UNL     1      34.992 -15.770 -22.570  0.00  0.00    -0.100 C 
ATOM     15  C   UNL     1      34.573 -17.439 -24.258  0.00  0.00    -0.100 C 
ATOM     16  C   UNL     1      35.328 -16.874 -21.562  0.00  0.00    -0.101 C 
ATOM     17  C   UNL     1      34.909 -18.544 -23.251  0.00  0.00    -0.101 C 
ATOM     18  C   UNL     1      36.177 -19.113 -21.280  0.00  0.00    -0.101 C 
ATOM     19  H   UNL     1      33.177 -16.518 -23.101  0.00  0.00    -0.079 HD
ATOM     20  H   UNL     1      36.726 -17.798 -22.717  0.00  0.00    -0.080 HD
ENDBRANCH  11  12
ENDBRANCH   5  11
ENDBRANCH   3  10
BRANCH   2  21
ATOM     21  C   UNL     1      32.575  -7.831 -21.973  0.00  0.00    +0.052 C 
ATOM     22  C   UNL     1      31.855  -6.941 -22.751  0.00  0.00    +0.030 C 
ATOM     23  C   UNL     1      31.686  -5.629 -22.305  0.00  0.00    +0.059 C 
ATOM     24  C   UNL     1      33.129  -7.452 -20.762  0.00  0.00    +0.015 C 
ATOM     25  C   UNL     1      32.238  -5.230 -21.087  0.00  0.00    +0.015 C 
ATOM     26  C   UNL     1      32.959  -6.141 -20.316  0.00  0.00    +0.003 C 
BRANCH  23  27
ATOM     27  N   UNL     1      30.954  -4.708 -23.084  0.00  0.00    -0.247 N 
ATOM     28  N   UNL     1      32.556  -4.044 -24.666  0.00  0.00    -0.337 NA
ATOM     29  N   UNL     1      30.324  -3.136 -24.706  0.00  0.00    -0.170 NA
ATOM     30  C   UNL     1      31.295  -3.926 -24.204  0.00  0.00    +0.149 C 
ATOM     31  C   UNL     1      32.846  -3.280 -25.739  0.00  0.00    +0.147 C 
ATOM     32  C   UNL     1      31.941  -2.432 -26.344  0.00  0.00    +0.055 C 
ATOM     33  C   UNL     1      30.683  -2.400 -25.779  0.00  0.00    +0.114 C 
ATOM     34  H   UNL     1      30.024  -4.589 -22.785  0.00  0.00    +0.165 HD
BRANCH  31  36
ATOM     35  N   UNL     1      36.122  -2.375 -27.269  0.00  0.00    -0.242 NA
ATOM     36  C   UNL     1      34.196  -3.407 -26.234  0.00  0.00    +0.050 C 
ATOM     37  C   UNL     1      34.873  -4.620 -26.169  0.00  0.00    +0.006 C 
ATOM     38  C   UNL     1      34.859  -2.324 -26.789  0.00  0.00    +0.101 C 
ATOM     39  C   UNL     1      36.173  -4.711 -26.654  0.00  0.00    +0.021 C 
ATOM     40  C   UNL     1      36.747  -3.570 -27.189  0.00  0.00    +0.099 C 
ENDBRANCH  31  36
ENDBRANCH  23  27
ENDBRANCH   2  21
TORSDOF 6
ENDMDL
MODEL 8
REMARK VINA RESULT:     -10.2      2.268     13.309
REMARK  Name = 4369496
REMARK  6 active torsions:
REMARK  status: ('A' for Active; 'I' for Inactive)
REMARK    1  A    between atoms: N_2  and  C_21
REMARK    2  A    between atoms: C_3  and  C_10
REMARK    3  A    between atoms: C_5  and  C_11
REMARK    4  A    between atoms: C_11  and  N_12
REMARK    5  A    between atoms: C_23  and  N_27
REMARK    6  A    between atoms: C_31  and  C_36
REMARK                            x       y       z     vdW  Elec       q    Type
REMARK                         _______ _______ _______ _____ _____    ______ ____
ROOT
ATOM      1  O   UNL     1      34.636 -16.734 -23.534  0.00  0.00    -0.270 OA
ATOM      2  N   UNL     1      34.272 -15.715 -21.453  0.00  0.00    -0.280 N 
ATOM      3  C   UNL     1      34.674 -16.762 -22.293  0.00  0.00    +0.249 C 
ATOM      4  H   UNL     1      34.360 -15.884 -20.488  0.00  0.00    +0.155 HD
ENDROOT
BRANCH   3  10
ATOM      5  C   UNL     1      36.034 -20.266 -20.353  0.00  0.00    -0.043 C 
ATOM      6  C   UNL     1      34.694 -20.150 -20.693  0.00  0.00    -0.006 C 
ATOM      7  C   UNL     1      36.935 -19.250 -20.639  0.00  0.00    -0.006 C 
ATOM      8  C   UNL     1      34.245 -18.995 -21.334  0.00  0.00    +0.004 C 
ATOM      9  C   UNL     1      36.487 -18.095 -21.280  0.00  0.00    +0.004 C 
ATOM     10  C   UNL     1      35.142 -17.967 -21.627  0.00  0.00    +0.054 C 
BRANCH   5  11
ATOM     11  C   UNL     1      36.519 -21.513 -19.662  0.00  0.00    -0.050 C 
BRANCH  11  12
ATOM     12  N   UNL     1      35.821 -21.741 -18.398  0.00  0.00    +0.387 N 
ATOM     13  N   UNL     1      35.001 -23.390 -16.170  0.00  0.00    +0.383 N 
ATOM     14  C   UNL     1      36.767 -22.120 -17.342  0.00  0.00    -0.100 C 
ATOM     15  C   UNL     1      34.787 -22.771 -18.552  0.00  0.00    -0.100 C 
ATOM     16  C   UNL     1      36.037 -22.362 -16.016  0.00  0.00    -0.101 C 
ATOM     17  C   UNL     1      34.055 -23.013 -17.227  0.00  0.00    -0.101 C 
ATOM     18  C   UNL     1      34.303 -23.617 -14.906  0.00  0.00    -0.101 C 
ATOM     19  H   UNL     1      35.369 -20.869 -18.126  0.00  0.00    -0.079 HD
ATOM     20  H   UNL     1      35.453 -24.265 -16.440  0.00  0.00    -0.080 HD
ENDBRANCH  11  12
ENDBRANCH   5  11
ENDBRANCH   3  10
BRANCH   2  21
ATOM     21  C   UNL     1      33.755 -14.446 -21.810  0.00  0.00    +0.052 C 
ATOM     22  C   UNL     1      34.535 -13.586 -22.564  0.00  0.00    +0.030 C 
ATOM     23  C   UNL     1      34.026 -12.334 -22.915  0.00  0.00    +0.059 C 
ATOM     24  C   UNL     1      32.481 -14.094 -21.397  0.00  0.00    +0.015 C 
ATOM     25  C   UNL     1      32.744 -11.964 -22.507  0.00  0.00    +0.015 C 
ATOM     26  C   UNL     1      31.972 -12.844 -21.748  0.00  0.00    +0.003 C 
BRANCH  23  27
ATOM     27  N   UNL     1      34.806 -11.446 -23.684  0.00  0.00    -0.247 N 
ATOM     28  N   UNL     1      33.807  -9.382 -23.188  0.00  0.00    -0.337 NA
ATOM     29  N   UNL     1      35.683  -9.519 -24.693  0.00  0.00    -0.170 NA
ATOM     30  C   UNL     1      34.763 -10.050 -23.863  0.00  0.00    +0.149 C 
ATOM     31  C   UNL     1      33.795  -8.047 -23.384  0.00  0.00    +0.147 C 
ATOM     32  C   UNL     1      34.683  -7.385 -24.206  0.00  0.00    +0.055 C 
ATOM     33  C   UNL     1      35.614  -8.179 -24.843  0.00  0.00    +0.114 C 
ATOM     34  H   UNL     1      35.521 -11.889 -24.196  0.00  0.00    +0.165 HD
BRANCH  31  36
ATOM     35  N   UNL     1      30.966  -5.722 -22.684  0.00  0.00    -0.242 NA
ATOM     36  C   UNL     1      32.772  -7.331 -22.660  0.00  0.00    +0.050 C 
ATOM     37  C   UNL     1      32.586  -7.528 -21.295  0.00  0.00    +0.006 C 
ATOM     38  C   UNL     1      31.943  -6.424 -23.301  0.00  0.00    +0.101 C 
ATOM     39  C   UNL     1      31.592  -6.823 -20.625  0.00  0.00    +0.021 C 
ATOM     40  C   UNL     1      30.816  -5.941 -21.359  0.00  0.00    +0.099 C 
ENDBRANCH  31  36
ENDBRANCH  23  27
ENDBRANCH   2  21
TORSDOF 6
ENDMDL
