MODEL 1
REMARK VINA RESULT:     -12.1      0.000      0.000
REMARK  Name = 66645351
REMARK  11 active torsions:
REMARK  status: ('A' for Active; 'I' for Inactive)
REMARK    1  A    between atoms: C_2  and  C_4
REMARK    2  A    between atoms: C_2  and  C_18
REMARK    3  A    between atoms: C_3  and  C_5
REMARK    4  A    between atoms: C_6  and  O_11
REMARK    5  A    between atoms: C_8  and  O_13
REMARK    6  A    between atoms: O_13  and  S_14
REMARK    7  A    between atoms: C_18  and  C_20
REMARK    8  A    between atoms: C_20  and  C_22
REMARK    9  A    between atoms: C_21  and  C_23
REMARK   10  A    between atoms: C_25  and  O_29
REMARK   11  A    between atoms: C_27  and  O_31
REMARK                            x       y       z     vdW  Elec       q    Type
REMARK                         _______ _______ _______ _____ _____    ______ ____
ROOT
ATOM      1  O   UNL     1      32.599 -22.073 -19.712  0.00  0.00    -0.291 OA
ATOM      2  C   UNL     1      33.574 -22.458 -19.072  0.00  0.00    +0.181 C 
ENDROOT
BRANCH   2   4
ATOM      3  C   UNL     1      34.534 -23.118 -16.905  0.00  0.00    +0.003 C 
ATOM      4  C   UNL     1      33.446 -22.958 -17.671  0.00  0.00    +0.038 C 
BRANCH   3   5
ATOM      5  C   UNL     1      34.513 -23.596 -15.510  0.00  0.00    +0.003 C 
ATOM      6  C   UNL     1      33.317 -23.968 -13.444  0.00  0.00    +0.175 C 
ATOM      7  C   UNL     1      33.338 -23.517 -14.764  0.00  0.00    +0.040 C 
ATOM      8  C   UNL     1      34.474 -24.498 -12.870  0.00  0.00    +0.209 C 
ATOM      9  C   UNL     1      35.669 -24.126 -14.937  0.00  0.00    +0.003 C 
ATOM     10  C   UNL     1      35.650 -24.577 -13.617  0.00  0.00    +0.043 C 
BRANCH   6  11
ATOM     11  O   UNL     1      32.163 -23.888 -12.725  0.00  0.00    -0.468 OA
ATOM     12  C   UNL     1      31.018 -24.545 -13.263  0.00  0.00    +0.253 C 
ENDBRANCH   6  11
BRANCH   8  13
ATOM     13  O   UNL     1      34.467 -24.942 -11.583  0.00  0.00    -0.319 OA
BRANCH  13  14
ATOM     14  S   UNL     1      35.866 -24.899 -10.720  0.00  0.00    +0.282 S 
ATOM     15  O   UNL     1      35.370 -24.972  -9.167  0.00  0.00    -0.012 OA
ATOM     16  O   UNL     1      36.630 -26.101 -11.000  0.00  0.00    -0.105 OA
ATOM     17  O   UNL     1      36.469 -23.595 -10.922  0.00  0.00    -0.105 OA
ENDBRANCH  13  14
ENDBRANCH   8  13
ENDBRANCH   3   5
ENDBRANCH   2   4
BRANCH   2  18
ATOM     18  C   UNL     1      34.983 -22.417 -19.628  0.00  0.00    +0.138 C 
BRANCH  18  20
ATOM     19  O   UNL     1      36.507 -20.627 -19.099  0.00  0.00    -0.291 OA
ATOM     20  C   UNL     1      35.578 -21.033 -19.792  0.00  0.00    +0.181 C 
BRANCH  20  22
ATOM     21  C   UNL     1      35.668 -19.309 -21.546  0.00  0.00    +0.003 C 
ATOM     22  C   UNL     1      34.933 -20.169 -20.825  0.00  0.00    +0.038 C 
BRANCH  21  23
ATOM     23  C   UNL     1      35.129 -18.409 -22.580  0.00  0.00    +0.003 C 
ATOM     24  C   UNL     1      35.302 -17.030 -22.465  0.00  0.00    +0.040 C 
ATOM     25  C   UNL     1      34.791 -16.178 -23.444  0.00  0.00    +0.172 C 
ATOM     26  C   UNL     1      34.443 -18.936 -23.676  0.00  0.00    +0.003 C 
ATOM     27  C   UNL     1      34.106 -16.706 -24.539  0.00  0.00    +0.168 C 
ATOM     28  C   UNL     1      33.932 -18.085 -24.654  0.00  0.00    +0.040 C 
BRANCH  25  29
ATOM     29  O   UNL     1      34.967 -14.833 -23.321  0.00  0.00    -0.468 OA
ATOM     30  C   UNL     1      34.176 -14.164 -22.341  0.00  0.00    +0.253 C 
ENDBRANCH  25  29
BRANCH  27  31
ATOM     31  O   UNL     1      33.602 -15.884 -25.502  0.00  0.00    -0.503 OA
ATOM     32  H   UNL     1      34.138 -15.629 -26.228  0.00  0.00    +0.292 HD
ENDBRANCH  27  31
ENDBRANCH  21  23
ENDBRANCH  20  22
ENDBRANCH  18  20
ENDBRANCH   2  18
TORSDOF 11
ENDMDL
MODEL 2
REMARK VINA RESULT:     -11.4      4.205      6.719
REMARK  Name = 66645351
REMARK  11 active torsions:
REMARK  status: ('A' for Active; 'I' for Inactive)
REMARK    1  A    between atoms: C_2  and  C_4
REMARK    2  A    between atoms: C_2  and  C_18
REMARK    3  A    between atoms: C_3  and  C_5
REMARK    4  A    between atoms: C_6  and  O_11
REMARK    5  A    between atoms: C_8  and  O_13
REMARK    6  A    between atoms: O_13  and  S_14
REMARK    7  A    between atoms: C_18  and  C_20
REMARK    8  A    between atoms: C_20  and  C_22
REMARK    9  A    between atoms: C_21  and  C_23
REMARK   10  A    between atoms: C_25  and  O_29
REMARK   11  A    between atoms: C_27  and  O_31
REMARK                            x       y       z     vdW  Elec       q    Type
REMARK                         _______ _______ _______ _____ _____    ______ ____
ROOT
ATOM      1  O   UNL     1      30.726 -24.174 -12.395  0.00  0.00    -0.291 OA
ATOM      2  C   UNL     1      31.155 -24.749 -13.392  0.00  0.00    +0.181 C 
ENDROOT
BRANCH   2   4
ATOM      3  C   UNL     1      33.599 -24.599 -13.627  0.00  0.00    +0.003 C 
ATOM      4  C   UNL     1      32.517 -25.361 -13.420  0.00  0.00    +0.038 C 
BRANCH   3   5
ATOM      5  C   UNL     1      34.984 -25.104 -13.664  0.00  0.00    +0.003 C 
ATOM      6  C   UNL     1      37.170 -25.290 -12.652  0.00  0.00    +0.175 C 
ATOM      7  C   UNL     1      35.859 -24.814 -12.618  0.00  0.00    +0.040 C 
ATOM      8  C   UNL     1      37.606 -26.056 -13.734  0.00  0.00    +0.209 C 
ATOM      9  C   UNL     1      35.419 -25.869 -14.746  0.00  0.00    +0.003 C 
ATOM     10  C   UNL     1      36.730 -26.345 -14.781  0.00  0.00    +0.043 C 
BRANCH   6  11
ATOM     11  O   UNL     1      38.016 -25.003 -11.623  0.00  0.00    -0.468 OA
ATOM     12  C   UNL     1      38.328 -23.628 -11.407  0.00  0.00    +0.253 C 
ENDBRANCH   6  11
BRANCH   8  13
ATOM     13  O   UNL     1      38.883 -26.527 -13.780  0.00  0.00    -0.319 OA
BRANCH  13  14
ATOM     14  S   UNL     1      40.043 -25.608 -14.494  0.00  0.00    +0.282 S 
ATOM     15  O   UNL     1      39.215 -24.343 -15.111  0.00  0.00    -0.012 OA
ATOM     16  O   UNL     1      40.938 -25.098 -13.471  0.00  0.00    -0.105 OA
ATOM     17  O   UNL     1      40.577 -26.363 -15.613  0.00  0.00    -0.105 OA
ENDBRANCH  13  14
ENDBRANCH   8  13
ENDBRANCH   3   5
ENDBRANCH   2   4
BRANCH   2  18
ATOM     18  C   UNL     1      30.364 -24.846 -14.681  0.00  0.00    +0.138 C 
BRANCH  18  20
ATOM     19  O   UNL     1      28.937 -23.057 -15.436  0.00  0.00    -0.291 OA
ATOM     20  C   UNL     1      30.070 -23.525 -15.365  0.00  0.00    +0.181 C 
BRANCH  20  22
ATOM     21  C   UNL     1      32.062 -23.521 -16.808  0.00  0.00    +0.003 C 
ATOM     22  C   UNL     1      31.242 -22.845 -15.991  0.00  0.00    +0.038 C 
BRANCH  21  23
ATOM     23  C   UNL     1      33.247 -22.946 -17.468  0.00  0.00    +0.003 C 
ATOM     24  C   UNL     1      34.494 -23.014 -16.847  0.00  0.00    +0.040 C 
ATOM     25  C   UNL     1      35.616 -22.469 -17.471  0.00  0.00    +0.172 C 
ATOM     26  C   UNL     1      33.122 -22.331 -18.715  0.00  0.00    +0.003 C 
ATOM     27  C   UNL     1      35.490 -21.855 -18.718  0.00  0.00    +0.168 C 
ATOM     28  C   UNL     1      34.244 -21.785 -19.339  0.00  0.00    +0.040 C 
BRANCH  25  29
ATOM     29  O   UNL     1      36.829 -22.542 -16.855  0.00  0.00    -0.468 OA
ATOM     30  C   UNL     1      36.839 -22.437 -15.433  0.00  0.00    +0.253 C 
ENDBRANCH  25  29
BRANCH  27  31
ATOM     31  O   UNL     1      36.578 -21.318 -19.338  0.00  0.00    -0.503 OA
ATOM     32  H   UNL     1      37.096 -21.845 -19.916  0.00  0.00    +0.292 HD
ENDBRANCH  27  31
ENDBRANCH  21  23
ENDBRANCH  20  22
ENDBRANCH  18  20
ENDBRANCH   2  18
TORSDOF 11
ENDMDL
MODEL 3
REMARK VINA RESULT:     -11.2      1.259      2.621
REMARK  Name = 66645351
REMARK  11 active torsions:
REMARK  status: ('A' for Active; 'I' for Inactive)
REMARK    1  A    between atoms: C_2  and  C_4
REMARK    2  A    between atoms: C_2  and  C_18
REMARK    3  A    between atoms: C_3  and  C_5
REMARK    4  A    between atoms: C_6  and  O_11
REMARK    5  A    between atoms: C_8  and  O_13
REMARK    6  A    between atoms: O_13  and  S_14
REMARK    7  A    between atoms: C_18  and  C_20
REMARK    8  A    between atoms: C_20  and  C_22
REMARK    9  A    between atoms: C_21  and  C_23
REMARK   10  A    between atoms: C_25  and  O_29
REMARK   11  A    between atoms: C_27  and  O_31
REMARK                            x       y       z     vdW  Elec       q    Type
REMARK                         _______ _______ _______ _____ _____    ______ ____
ROOT
ATOM      1  O   UNL     1      37.022 -20.461 -19.069  0.00  0.00    -0.291 OA
ATOM      2  C   UNL     1      36.297 -21.387 -18.715  0.00  0.00    +0.181 C 
ENDROOT
BRANCH   2   4
ATOM      3  C   UNL     1      35.449 -22.825 -16.908  0.00  0.00    +0.003 C 
ATOM      4  C   UNL     1      36.390 -21.978 -17.347  0.00  0.00    +0.038 C 
BRANCH   3   5
ATOM      5  C   UNL     1      35.454 -23.467 -15.580  0.00  0.00    +0.003 C 
ATOM      6  C   UNL     1      36.539 -24.868 -13.938  0.00  0.00    +0.175 C 
ATOM      7  C   UNL     1      36.534 -24.259 -15.194  0.00  0.00    +0.040 C 
ATOM      8  C   UNL     1      35.462 -24.683 -13.070  0.00  0.00    +0.209 C 
ATOM      9  C   UNL     1      34.377 -23.282 -14.712  0.00  0.00    +0.003 C 
ATOM     10  C   UNL     1      34.382 -23.890 -13.457  0.00  0.00    +0.043 C 
BRANCH   6  11
ATOM     11  O   UNL     1      37.600 -25.639 -13.571  0.00  0.00    -0.468 OA
ATOM     12  C   UNL     1      38.867 -25.309 -14.136  0.00  0.00    +0.253 C 
ENDBRANCH   6  11
BRANCH   8  13
ATOM     13  O   UNL     1      35.455 -25.272 -11.841  0.00  0.00    -0.319 OA
BRANCH  13  14
ATOM     14  S   UNL     1      36.140 -24.479 -10.576  0.00  0.00    +0.282 S 
ATOM     15  O   UNL     1      37.659 -25.074 -10.517  0.00  0.00    -0.012 OA
ATOM     16  O   UNL     1      36.228 -23.066 -10.895  0.00  0.00    -0.105 OA
ATOM     17  O   UNL     1      35.460 -24.907  -9.367  0.00  0.00    -0.105 OA
ENDBRANCH  13  14
ENDBRANCH   8  13
ENDBRANCH   3   5
ENDBRANCH   2   4
BRANCH   2  18
ATOM     18  C   UNL     1      35.288 -22.033 -19.643  0.00  0.00    +0.138 C 
BRANCH  18  20
ATOM     19  O   UNL     1      33.002 -21.776 -18.924  0.00  0.00    -0.291 OA
ATOM     20  C   UNL     1      33.913 -21.395 -19.654  0.00  0.00    +0.181 C 
BRANCH  20  22
ATOM     21  C   UNL     1      34.686 -19.991 -21.521  0.00  0.00    +0.003 C 
ATOM     22  C   UNL     1      33.716 -20.297 -20.647  0.00  0.00    +0.038 C 
BRANCH  21  23
ATOM     23  C   UNL     1      34.596 -18.924 -22.532  0.00  0.00    +0.003 C 
ATOM     24  C   UNL     1      35.026 -17.633 -22.225  0.00  0.00    +0.040 C 
ATOM     25  C   UNL     1      34.941 -16.622 -23.182  0.00  0.00    +0.172 C 
ATOM     26  C   UNL     1      34.078 -19.203 -23.797  0.00  0.00    +0.003 C 
ATOM     27  C   UNL     1      34.423 -16.903 -24.447  0.00  0.00    +0.168 C 
ATOM     28  C   UNL     1      33.991 -18.193 -24.754  0.00  0.00    +0.040 C 
BRANCH  25  29
ATOM     29  O   UNL     1      35.365 -15.366 -22.871  0.00  0.00    -0.468 OA
ATOM     30  C   UNL     1      34.407 -14.485 -22.287  0.00  0.00    +0.253 C 
ENDBRANCH  25  29
BRANCH  27  31
ATOM     31  O   UNL     1      34.333 -15.924 -25.391  0.00  0.00    -0.503 OA
ATOM     32  H   UNL     1      33.549 -15.416 -25.466  0.00  0.00    +0.292 HD
ENDBRANCH  27  31
ENDBRANCH  21  23
ENDBRANCH  20  22
ENDBRANCH  18  20
ENDBRANCH   2  18
TORSDOF 11
ENDMDL
MODEL 4
REMARK VINA RESULT:     -11.0      5.295     12.531
REMARK  Name = 66645351
REMARK  11 active torsions:
REMARK  status: ('A' for Active; 'I' for Inactive)
REMARK    1  A    between atoms: C_2  and  C_4
REMARK    2  A    between atoms: C_2  and  C_18
REMARK    3  A    between atoms: C_3  and  C_5
REMARK    4  A    between atoms: C_6  and  O_11
REMARK    5  A    between atoms: C_8  and  O_13
REMARK    6  A    between atoms: O_13  and  S_14
REMARK    7  A    between atoms: C_18  and  C_20
REMARK    8  A    between atoms: C_20  and  C_22
REMARK    9  A    between atoms: C_21  and  C_23
REMARK   10  A    between atoms: C_25  and  O_29
REMARK   11  A    between atoms: C_27  and  O_31
REMARK                            x       y       z     vdW  Elec       q    Type
REMARK                         _______ _______ _______ _____ _____    ______ ____
ROOT
ATOM      1  O   UNL     1      35.001 -16.784 -20.507  0.00  0.00    -0.291 OA
ATOM      2  C   UNL     1      34.981 -16.432 -21.684  0.00  0.00    +0.181 C 
ENDROOT
BRANCH   2   4
ATOM      3  C   UNL     1      33.543 -14.474 -21.295  0.00  0.00    +0.003 C 
ATOM      4  C   UNL     1      34.393 -15.124 -22.101  0.00  0.00    +0.038 C 
BRANCH   3   5
ATOM      5  C   UNL     1      32.916 -13.177 -21.609  0.00  0.00    +0.003 C 
ATOM      6  C   UNL     1      31.457 -11.354 -20.989  0.00  0.00    +0.175 C 
ATOM      7  C   UNL     1      32.052 -12.581 -20.692  0.00  0.00    +0.040 C 
ATOM      8  C   UNL     1      31.729 -10.723 -22.204  0.00  0.00    +0.209 C 
ATOM      9  C   UNL     1      33.188 -12.547 -22.824  0.00  0.00    +0.003 C 
ATOM     10  C   UNL     1      32.594 -11.320 -23.121  0.00  0.00    +0.043 C 
BRANCH   6  11
ATOM     11  O   UNL     1      30.615 -10.780 -20.085  0.00  0.00    -0.468 OA
ATOM     12  C   UNL     1      31.203 -10.237 -18.905  0.00  0.00    +0.253 C 
ENDBRANCH   6  11
BRANCH   8  13
ATOM     13  O   UNL     1      31.155  -9.526 -22.506  0.00  0.00    -0.319 OA
BRANCH  13  14
ATOM     14  S   UNL     1      32.071  -8.163 -22.428  0.00  0.00    +0.282 S 
ATOM     15  O   UNL     1      30.994  -6.988 -22.074  0.00  0.00    -0.012 OA
ATOM     16  O   UNL     1      32.990  -8.276 -21.310  0.00  0.00    -0.105 OA
ATOM     17  O   UNL     1      32.580  -7.897 -23.761  0.00  0.00    -0.105 OA
ENDBRANCH  13  14
ENDBRANCH   8  13
ENDBRANCH   3   5
ENDBRANCH   2   4
BRANCH   2  18
ATOM     18  C   UNL     1      35.504 -17.306 -22.806  0.00  0.00    +0.138 C 
BRANCH  18  20
ATOM     19  O   UNL     1      34.102 -18.939 -23.890  0.00  0.00    -0.291 OA
ATOM     20  C   UNL     1      34.833 -18.658 -22.944  0.00  0.00    +0.181 C 
BRANCH  20  22
ATOM     21  C   UNL     1      34.071 -20.028 -21.048  0.00  0.00    +0.003 C 
ATOM     22  C   UNL     1      35.081 -19.621 -21.830  0.00  0.00    +0.038 C 
BRANCH  21  23
ATOM     23  C   UNL     1      34.210 -20.967 -19.921  0.00  0.00    +0.003 C 
ATOM     24  C   UNL     1      35.469 -21.221 -19.377  0.00  0.00    +0.040 C 
ATOM     25  C   UNL     1      35.602 -22.110 -18.310  0.00  0.00    +0.172 C 
ATOM     26  C   UNL     1      33.084 -21.603 -19.399  0.00  0.00    +0.003 C 
ATOM     27  C   UNL     1      34.475 -22.746 -17.789  0.00  0.00    +0.168 C 
ATOM     28  C   UNL     1      33.216 -22.493 -18.334  0.00  0.00    +0.040 C 
BRANCH  25  29
ATOM     29  O   UNL     1      36.836 -22.350 -17.786  0.00  0.00    -0.468 OA
ATOM     30  C   UNL     1      37.195 -21.619 -16.616  0.00  0.00    +0.253 C 
ENDBRANCH  25  29
BRANCH  27  31
ATOM     31  O   UNL     1      34.591 -23.617 -16.747  0.00  0.00    -0.503 OA
ATOM     32  H   UNL     1      33.840 -23.827 -16.226  0.00  0.00    +0.292 HD
ENDBRANCH  27  31
ENDBRANCH  21  23
ENDBRANCH  20  22
ENDBRANCH  18  20
ENDBRANCH   2  18
TORSDOF 11
ENDMDL
MODEL 5
REMARK VINA RESULT:     -10.9      4.903     12.335
REMARK  Name = 66645351
REMARK  11 active torsions:
REMARK  status: ('A' for Active; 'I' for Inactive)
REMARK    1  A    between atoms: C_2  and  C_4
REMARK    2  A    between atoms: C_2  and  C_18
REMARK    3  A    between atoms: C_3  and  C_5
REMARK    4  A    between atoms: C_6  and  O_11
REMARK    5  A    between atoms: C_8  and  O_13
REMARK    6  A    between atoms: O_13  and  S_14
REMARK    7  A    between atoms: C_18  and  C_20
REMARK    8  A    between atoms: C_20  and  C_22
REMARK    9  A    between atoms: C_21  and  C_23
REMARK   10  A    between atoms: C_25  and  O_29
REMARK   11  A    between atoms: C_27  and  O_31
REMARK                            x       y       z     vdW  Elec       q    Type
REMARK                         _______ _______ _______ _____ _____    ______ ____
ROOT
ATOM      1  O   UNL     1      34.834 -16.043 -25.108  0.00  0.00    -0.291 OA
ATOM      2  C   UNL     1      34.693 -16.185 -23.896  0.00  0.00    +0.181 C 
ENDROOT
BRANCH   2   4
ATOM      3  C   UNL     1      33.474 -14.073 -23.576  0.00  0.00    +0.003 C 
ATOM      4  C   UNL     1      34.156 -15.091 -23.034  0.00  0.00    +0.038 C 
BRANCH   3   5
ATOM      5  C   UNL     1      32.897 -12.951 -22.813  0.00  0.00    +0.003 C 
ATOM      6  C   UNL     1      32.481 -10.583 -22.568  0.00  0.00    +0.175 C 
ATOM      7  C   UNL     1      33.026 -11.646 -23.289  0.00  0.00    +0.040 C 
ATOM      8  C   UNL     1      31.806 -10.826 -21.371  0.00  0.00    +0.209 C 
ATOM      9  C   UNL     1      32.222 -13.194 -21.617  0.00  0.00    +0.003 C 
ATOM     10  C   UNL     1      31.677 -12.132 -20.896  0.00  0.00    +0.043 C 
BRANCH   6  11
ATOM     11  O   UNL     1      32.613  -9.313 -23.042  0.00  0.00    -0.468 OA
ATOM     12  C   UNL     1      33.933  -8.870 -23.349  0.00  0.00    +0.253 C 
ENDBRANCH   6  11
BRANCH   8  13
ATOM     13  O   UNL     1      31.269  -9.798 -20.657  0.00  0.00    -0.319 OA
BRANCH  13  14
ATOM     14  S   UNL     1      32.134  -9.155 -19.416  0.00  0.00    +0.282 S 
ATOM     15  O   UNL     1      33.130  -8.087 -20.146  0.00  0.00    -0.012 OA
ATOM     16  O   UNL     1      31.238  -8.410 -18.552  0.00  0.00    -0.105 OA
ATOM     17  O   UNL     1      32.962 -10.211 -18.863  0.00  0.00    -0.105 OA
ENDBRANCH  13  14
ENDBRANCH   8  13
ENDBRANCH   3   5
ENDBRANCH   2   4
BRANCH   2  18
ATOM     18  C   UNL     1      35.092 -17.456 -23.173  0.00  0.00    +0.138 C 
BRANCH  18  20
ATOM     19  O   UNL     1      33.948 -18.853 -24.769  0.00  0.00    -0.291 OA
ATOM     20  C   UNL     1      34.381 -18.715 -23.628  0.00  0.00    +0.181 C 
BRANCH  20  22
ATOM     21  C   UNL     1      34.758 -19.629 -21.375  0.00  0.00    +0.003 C 
ATOM     22  C   UNL     1      34.198 -19.768 -22.585  0.00  0.00    +0.038 C 
BRANCH  21  23
ATOM     23  C   UNL     1      34.644 -20.611 -20.282  0.00  0.00    +0.003 C 
ATOM     24  C   UNL     1      35.787 -21.037 -19.605  0.00  0.00    +0.040 C 
ATOM     25  C   UNL     1      35.680 -21.966 -18.571  0.00  0.00    +0.172 C 
ATOM     26  C   UNL     1      33.393 -21.116 -19.925  0.00  0.00    +0.003 C 
ATOM     27  C   UNL     1      34.429 -22.471 -18.214  0.00  0.00    +0.168 C 
ATOM     28  C   UNL     1      33.286 -22.046 -18.892  0.00  0.00    +0.040 C 
BRANCH  25  29
ATOM     29  O   UNL     1      36.803 -22.374 -17.916  0.00  0.00    -0.468 OA
ATOM     30  C   UNL     1      37.113 -21.714 -16.691  0.00  0.00    +0.253 C 
ENDBRANCH  25  29
BRANCH  27  31
ATOM     31  O   UNL     1      34.311 -23.380 -17.206  0.00  0.00    -0.503 OA
ATOM     32  H   UNL     1      33.485 -23.791 -17.041  0.00  0.00    +0.292 HD
ENDBRANCH  27  31
ENDBRANCH  21  23
ENDBRANCH  20  22
ENDBRANCH  18  20
ENDBRANCH   2  18
TORSDOF 11
ENDMDL
MODEL 6
REMARK VINA RESULT:     -10.4      2.327      3.120
REMARK  Name = 66645351
REMARK  11 active torsions:
REMARK  status: ('A' for Active; 'I' for Inactive)
REMARK    1  A    between atoms: C_2  and  C_4
REMARK    2  A    between atoms: C_2  and  C_18
REMARK    3  A    between atoms: C_3  and  C_5
REMARK    4  A    between atoms: C_6  and  O_11
REMARK    5  A    between atoms: C_8  and  O_13
REMARK    6  A    between atoms: O_13  and  S_14
REMARK    7  A    between atoms: C_18  and  C_20
REMARK    8  A    between atoms: C_20  and  C_22
REMARK    9  A    between atoms: C_21  and  C_23
REMARK   10  A    between atoms: C_25  and  O_29
REMARK   11  A    between atoms: C_27  and  O_31
REMARK                            x       y       z     vdW  Elec       q    Type
REMARK                         _______ _______ _______ _____ _____    ______ ____
ROOT
ATOM      1  O   UNL     1      32.076 -22.798 -17.544  0.00  0.00    -0.291 OA
ATOM      2  C   UNL     1      33.186 -22.575 -18.022  0.00  0.00    +0.181 C 
ENDROOT
BRANCH   2   4
ATOM      3  C   UNL     1      34.670 -23.015 -16.110  0.00  0.00    +0.003 C 
ATOM      4  C   UNL     1      34.428 -23.146 -17.421  0.00  0.00    +0.038 C 
BRANCH   3   5
ATOM      5  C   UNL     1      35.859 -23.548 -15.420  0.00  0.00    +0.003 C 
ATOM      6  C   UNL     1      36.830 -24.933 -13.695  0.00  0.00    +0.175 C 
ATOM      7  C   UNL     1      35.706 -24.428 -14.349  0.00  0.00    +0.040 C 
ATOM      8  C   UNL     1      38.108 -24.558 -14.113  0.00  0.00    +0.209 C 
ATOM      9  C   UNL     1      37.135 -23.172 -15.838  0.00  0.00    +0.003 C 
ATOM     10  C   UNL     1      38.260 -23.677 -15.184  0.00  0.00    +0.043 C 
BRANCH   6  11
ATOM     11  O   UNL     1      36.669 -25.793 -12.651  0.00  0.00    -0.468 OA
ATOM     12  C   UNL     1      36.164 -25.247 -11.434  0.00  0.00    +0.253 C 
ENDBRANCH   6  11
BRANCH   8  13
ATOM     13  O   UNL     1      39.213 -25.043 -13.483  0.00  0.00    -0.319 OA
BRANCH  13  14
ATOM     14  S   UNL     1      40.031 -26.295 -14.165  0.00  0.00    +0.282 S 
ATOM     15  O   UNL     1      38.886 -27.438 -14.384  0.00  0.00    -0.012 OA
ATOM     16  O   UNL     1      40.510 -25.889 -15.474  0.00  0.00    -0.105 OA
ATOM     17  O   UNL     1      40.966 -26.802 -13.177  0.00  0.00    -0.105 OA
ENDBRANCH  13  14
ENDBRANCH   8  13
ENDBRANCH   3   5
ENDBRANCH   2   4
BRANCH   2  18
ATOM     18  C   UNL     1      33.391 -21.673 -19.222  0.00  0.00    +0.138 C 
BRANCH  18  20
ATOM     19  O   UNL     1      35.768 -22.065 -19.137  0.00  0.00    -0.291 OA
ATOM     20  C   UNL     1      34.836 -21.415 -19.602  0.00  0.00    +0.181 C 
BRANCH  20  22
ATOM     21  C   UNL     1      34.202 -20.055 -21.552  0.00  0.00    +0.003 C 
ATOM     22  C   UNL     1      35.064 -20.285 -20.551  0.00  0.00    +0.038 C 
BRANCH  21  23
ATOM     23  C   UNL     1      34.339 -18.975 -22.544  0.00  0.00    +0.003 C 
ATOM     24  C   UNL     1      34.817 -17.724 -22.152  0.00  0.00    +0.040 C 
ATOM     25  C   UNL     1      34.947 -16.700 -23.090  0.00  0.00    +0.172 C 
ATOM     26  C   UNL     1      33.989 -19.201 -23.876  0.00  0.00    +0.003 C 
ATOM     27  C   UNL     1      34.597 -16.927 -24.422  0.00  0.00    +0.168 C 
ATOM     28  C   UNL     1      34.117 -18.177 -24.814  0.00  0.00    +0.040 C 
BRANCH  25  29
ATOM     29  O   UNL     1      35.416 -15.484 -22.696  0.00  0.00    -0.468 OA
ATOM     30  C   UNL     1      34.453 -14.538 -22.234  0.00  0.00    +0.253 C 
ENDBRANCH  25  29
BRANCH  27  31
ATOM     31  O   UNL     1      34.718 -15.936 -25.349  0.00  0.00    -0.503 OA
ATOM     32  H   UNL     1      34.558 -16.118 -26.254  0.00  0.00    +0.292 HD
ENDBRANCH  27  31
ENDBRANCH  21  23
ENDBRANCH  20  22
ENDBRANCH  18  20
ENDBRANCH   2  18
TORSDOF 11
ENDMDL
MODEL 7
REMARK VINA RESULT:     -10.4      2.621      4.467
REMARK  Name = 66645351
REMARK  11 active torsions:
REMARK  status: ('A' for Active; 'I' for Inactive)
REMARK    1  A    between atoms: C_2  and  C_4
REMARK    2  A    between atoms: C_2  and  C_18
REMARK    3  A    between atoms: C_3  and  C_5
REMARK    4  A    between atoms: C_6  and  O_11
REMARK    5  A    between atoms: C_8  and  O_13
REMARK    6  A    between atoms: O_13  and  S_14
REMARK    7  A    between atoms: C_18  and  C_20
REMARK    8  A    between atoms: C_20  and  C_22
REMARK    9  A    between atoms: C_21  and  C_23
REMARK   10  A    between atoms: C_25  and  O_29
REMARK   11  A    between atoms: C_27  and  O_31
REMARK                            x       y       z     vdW  Elec       q    Type
REMARK                         _______ _______ _______ _____ _____    ______ ____
ROOT
ATOM      1  O   UNL     1      30.895 -23.381 -14.683  0.00  0.00    -0.291 OA
ATOM      2  C   UNL     1      31.813 -23.402 -15.499  0.00  0.00    +0.181 C 
ENDROOT
BRANCH   2   4
ATOM      3  C   UNL     1      34.192 -23.161 -14.919  0.00  0.00    +0.003 C 
ATOM      4  C   UNL     1      33.152 -23.971 -15.159  0.00  0.00    +0.038 C 
BRANCH   3   5
ATOM      5  C   UNL     1      35.548 -23.621 -14.568  0.00  0.00    +0.003 C 
ATOM      6  C   UNL     1      37.072 -24.625 -12.984  0.00  0.00    +0.175 C 
ATOM      7  C   UNL     1      35.789 -24.190 -13.318  0.00  0.00    +0.040 C 
ATOM      8  C   UNL     1      38.114 -24.490 -13.902  0.00  0.00    +0.209 C 
ATOM      9  C   UNL     1      36.590 -23.485 -15.485  0.00  0.00    +0.003 C 
ATOM     10  C   UNL     1      37.873 -23.920 -15.153  0.00  0.00    +0.043 C 
BRANCH   6  11
ATOM     11  O   UNL     1      37.295 -25.181 -11.761  0.00  0.00    -0.468 OA
ATOM     12  C   UNL     1      36.343 -24.898 -10.737  0.00  0.00    +0.253 C 
ENDBRANCH   6  11
BRANCH   8  13
ATOM     13  O   UNL     1      39.371 -24.910 -13.589  0.00  0.00    -0.319 OA
BRANCH  13  14
ATOM     14  S   UNL     1      39.944 -26.287 -14.280  0.00  0.00    +0.282 S 
ATOM     15  O   UNL     1      41.132 -26.767 -13.269  0.00  0.00    -0.012 OA
ATOM     16  O   UNL     1      38.902 -27.298 -14.255  0.00  0.00    -0.105 OA
ATOM     17  O   UNL     1      40.568 -25.922 -15.539  0.00  0.00    -0.105 OA
ENDBRANCH  13  14
ENDBRANCH   8  13
ENDBRANCH   3   5
ENDBRANCH   2   4
BRANCH   2  18
ATOM     18  C   UNL     1      31.682 -22.818 -16.890  0.00  0.00    +0.138 C 
BRANCH  18  20
ATOM     19  O   UNL     1      33.263 -24.298 -17.947  0.00  0.00    -0.291 OA
ATOM     20  C   UNL     1      32.803 -23.163 -17.850  0.00  0.00    +0.181 C 
BRANCH  20  22
ATOM     21  C   UNL     1      34.613 -22.051 -19.090  0.00  0.00    +0.003 C 
ATOM     22  C   UNL     1      33.348 -22.024 -18.646  0.00  0.00    +0.038 C 
BRANCH  21  23
ATOM     23  C   UNL     1      35.248 -20.978 -19.874  0.00  0.00    +0.003 C 
ATOM     24  C   UNL     1      34.524 -20.316 -20.866  0.00  0.00    +0.040 C 
ATOM     25  C   UNL     1      35.125 -19.301 -21.610  0.00  0.00    +0.172 C 
ATOM     26  C   UNL     1      36.575 -20.624 -19.627  0.00  0.00    +0.003 C 
ATOM     27  C   UNL     1      36.451 -18.947 -21.362  0.00  0.00    +0.168 C 
ATOM     28  C   UNL     1      37.177 -19.609 -20.371  0.00  0.00    +0.040 C 
BRANCH  25  29
ATOM     29  O   UNL     1      34.407 -18.661 -22.575  0.00  0.00    -0.468 OA
ATOM     30  C   UNL     1      34.206 -19.360 -23.802  0.00  0.00    +0.253 C 
ENDBRANCH  25  29
BRANCH  27  31
ATOM     31  O   UNL     1      37.050 -17.957 -22.081  0.00  0.00    -0.503 OA
ATOM     32  H   UNL     1      36.654 -17.109 -22.132  0.00  0.00    +0.292 HD
ENDBRANCH  27  31
ENDBRANCH  21  23
ENDBRANCH  20  22
ENDBRANCH  18  20
ENDBRANCH   2  18
TORSDOF 11
ENDMDL
MODEL 8
REMARK VINA RESULT:     -10.3      4.168     10.137
REMARK  Name = 66645351
REMARK  11 active torsions:
REMARK  status: ('A' for Active; 'I' for Inactive)
REMARK    1  A    between atoms: C_2  and  C_4
REMARK    2  A    between atoms: C_2  and  C_18
REMARK    3  A    between atoms: C_3  and  C_5
REMARK    4  A    between atoms: C_6  and  O_11
REMARK    5  A    between atoms: C_8  and  O_13
REMARK    6  A    between atoms: O_13  and  S_14
REMARK    7  A    between atoms: C_18  and  C_20
REMARK    8  A    between atoms: C_20  and  C_22
REMARK    9  A    between atoms: C_21  and  C_23
REMARK   10  A    between atoms: C_25  and  O_29
REMARK   11  A    between atoms: C_27  and  O_31
REMARK                            x       y       z     vdW  Elec       q    Type
REMARK                         _______ _______ _______ _____ _____    ______ ____
ROOT
ATOM      1  O   UNL     1      29.258 -24.190 -16.189  0.00  0.00    -0.291 OA
ATOM      2  C   UNL     1      30.203 -23.574 -15.703  0.00  0.00    +0.181 C 
ENDROOT
BRANCH   2   4
ATOM      3  C   UNL     1      32.297 -23.333 -16.972  0.00  0.00    +0.003 C 
ATOM      4  C   UNL     1      31.147 -22.788 -16.553  0.00  0.00    +0.038 C 
BRANCH   3   5
ATOM      5  C   UNL     1      33.290 -22.646 -17.818  0.00  0.00    +0.003 C 
ATOM      6  C   UNL     1      35.583 -22.043 -18.282  0.00  0.00    +0.175 C 
ATOM      7  C   UNL     1      34.642 -22.693 -17.482  0.00  0.00    +0.040 C 
ATOM      8  C   UNL     1      35.170 -21.346 -19.418  0.00  0.00    +0.209 C 
ATOM      9  C   UNL     1      32.876 -21.949 -18.953  0.00  0.00    +0.003 C 
ATOM     10  C   UNL     1      33.816 -21.299 -19.753  0.00  0.00    +0.043 C 
BRANCH   6  11
ATOM     11  O   UNL     1      36.902 -22.096 -17.945  0.00  0.00    -0.468 OA
ATOM     12  C   UNL     1      37.229 -21.880 -16.574  0.00  0.00    +0.253 C 
ENDBRANCH   6  11
BRANCH   8  13
ATOM     13  O   UNL     1      36.078 -20.707 -20.207  0.00  0.00    -0.319 OA
BRANCH  13  14
ATOM     14  S   UNL     1      35.556 -19.522 -21.220  0.00  0.00    +0.282 S 
ATOM     15  O   UNL     1      36.926 -18.748 -21.654  0.00  0.00    -0.012 OA
ATOM     16  O   UNL     1      34.993 -20.132 -22.410  0.00  0.00    -0.105 OA
ATOM     17  O   UNL     1      34.762 -18.592 -20.438  0.00  0.00    -0.105 OA
ENDBRANCH  13  14
ENDBRANCH   8  13
ENDBRANCH   3   5
ENDBRANCH   2   4
BRANCH   2  18
ATOM     18  C   UNL     1      30.515 -23.595 -14.221  0.00  0.00    +0.138 C 
BRANCH  18  20
ATOM     19  O   UNL     1      30.949 -25.941 -13.881  0.00  0.00    -0.291 OA
ATOM     20  C   UNL     1      31.329 -24.782 -13.744  0.00  0.00    +0.181 C 
BRANCH  20  22
ATOM     21  C   UNL     1      33.784 -24.625 -13.679  0.00  0.00    +0.003 C 
ATOM     22  C   UNL     1      32.611 -24.452 -13.053  0.00  0.00    +0.038 C 
BRANCH  21  23
ATOM     23  C   UNL     1      35.101 -24.338 -13.085  0.00  0.00    +0.003 C 
ATOM     24  C   UNL     1      36.251 -24.407 -13.872  0.00  0.00    +0.040 C 
ATOM     25  C   UNL     1      37.498 -24.135 -13.310  0.00  0.00    +0.172 C 
ATOM     26  C   UNL     1      35.199 -23.999 -11.735  0.00  0.00    +0.003 C 
ATOM     27  C   UNL     1      37.595 -23.796 -11.960  0.00  0.00    +0.168 C 
ATOM     28  C   UNL     1      36.446 -23.728 -11.173  0.00  0.00    +0.040 C 
BRANCH  25  29
ATOM     29  O   UNL     1      38.614 -24.205 -14.088  0.00  0.00    -0.468 OA
ATOM     30  C   UNL     1      39.220 -25.487 -14.237  0.00  0.00    +0.253 C 
ENDBRANCH  25  29
BRANCH  27  31
ATOM     31  O   UNL     1      38.808 -23.529 -11.399  0.00  0.00    -0.503 OA
ATOM     32  H   UNL     1      38.967 -23.747 -10.501  0.00  0.00    +0.292 HD
ENDBRANCH  27  31
ENDBRANCH  21  23
ENDBRANCH  20  22
ENDBRANCH  18  20
ENDBRANCH   2  18
TORSDOF 11
ENDMDL
MODEL 9
REMARK VINA RESULT:     -10.2      3.836      7.396
REMARK  Name = 66645351
REMARK  11 active torsions:
REMARK  status: ('A' for Active; 'I' for Inactive)
REMARK    1  A    between atoms: C_2  and  C_4
REMARK    2  A    between atoms: C_2  and  C_18
REMARK    3  A    between atoms: C_3  and  C_5
REMARK    4  A    between atoms: C_6  and  O_11
REMARK    5  A    between atoms: C_8  and  O_13
REMARK    6  A    between atoms: O_13  and  S_14
REMARK    7  A    between atoms: C_18  and  C_20
REMARK    8  A    between atoms: C_20  and  C_22
REMARK    9  A    between atoms: C_21  and  C_23
REMARK   10  A    between atoms: C_25  and  O_29
REMARK   11  A    between atoms: C_27  and  O_31
REMARK                            x       y       z     vdW  Elec       q    Type
REMARK                         _______ _______ _______ _____ _____    ______ ____
ROOT
ATOM      1  O   UNL     1      36.831 -20.423 -19.628  0.00  0.00    -0.291 OA
ATOM      2  C   UNL     1      36.289 -21.328 -18.998  0.00  0.00    +0.181 C 
ENDROOT
BRANCH   2   4
ATOM      3  C   UNL     1      36.213 -22.727 -16.975  0.00  0.00    +0.003 C 
ATOM      4  C   UNL     1      36.621 -21.595 -17.567  0.00  0.00    +0.038 C 
BRANCH   3   5
ATOM      5  C   UNL     1      36.494 -23.088 -15.574  0.00  0.00    +0.003 C 
ATOM      6  C   UNL     1      37.963 -24.055 -13.918  0.00  0.00    +0.175 C 
ATOM      7  C   UNL     1      37.696 -23.712 -15.243  0.00  0.00    +0.040 C 
ATOM      8  C   UNL     1      37.027 -23.773 -12.922  0.00  0.00    +0.209 C 
ATOM      9  C   UNL     1      35.558 -22.805 -14.579  0.00  0.00    +0.003 C 
ATOM     10  C   UNL     1      35.824 -23.148 -13.254  0.00  0.00    +0.043 C 
BRANCH   6  11
ATOM     11  O   UNL     1      39.142 -24.663 -13.606  0.00  0.00    -0.468 OA
ATOM     12  C   UNL     1      39.213 -26.075 -13.799  0.00  0.00    +0.253 C 
ENDBRANCH   6  11
BRANCH   8  13
ATOM     13  O   UNL     1      37.275 -24.102 -11.624  0.00  0.00    -0.319 OA
BRANCH  13  14
ATOM     14  S   UNL     1      36.254 -25.137 -10.858  0.00  0.00    +0.282 S 
ATOM     15  O   UNL     1      34.828 -24.916 -11.621  0.00  0.00    -0.012 OA
ATOM     16  O   UNL     1      36.686 -26.500 -11.108  0.00  0.00    -0.105 OA
ATOM     17  O   UNL     1      36.092 -24.668  -9.494  0.00  0.00    -0.105 OA
ENDBRANCH  13  14
ENDBRANCH   8  13
ENDBRANCH   3   5
ENDBRANCH   2   4
BRANCH   2  18
ATOM     18  C   UNL     1      35.283 -22.270 -19.627  0.00  0.00    +0.138 C 
BRANCH  18  20
ATOM     19  O   UNL     1      33.188 -21.089 -19.776  0.00  0.00    -0.291 OA
ATOM     20  C   UNL     1      33.833 -22.004 -19.273  0.00  0.00    +0.181 C 
BRANCH  20  22
ATOM     21  C   UNL     1      32.379 -22.419 -17.333  0.00  0.00    +0.003 C 
ATOM     22  C   UNL     1      33.244 -22.902 -18.235  0.00  0.00    +0.038 C 
BRANCH  21  23
ATOM     23  C   UNL     1      31.749 -23.216 -16.266  0.00  0.00    +0.003 C 
ATOM     24  C   UNL     1      30.359 -23.304 -16.190  0.00  0.00    +0.040 C 
ATOM     25  C   UNL     1      29.761 -24.059 -15.180  0.00  0.00    +0.172 C 
ATOM     26  C   UNL     1      32.542 -23.882 -15.331  0.00  0.00    +0.003 C 
ATOM     27  C   UNL     1      30.555 -24.724 -14.245  0.00  0.00    +0.168 C 
ATOM     28  C   UNL     1      31.945 -24.635 -14.320  0.00  0.00    +0.040 C 
BRANCH  25  29
ATOM     29  O   UNL     1      28.403 -24.139 -15.116  0.00  0.00    -0.468 OA
ATOM     30  C   UNL     1      27.665 -23.035 -15.637  0.00  0.00    +0.253 C 
ENDBRANCH  25  29
BRANCH  27  31
ATOM     31  O   UNL     1      29.984 -25.464 -13.254  0.00  0.00    -0.503 OA
ATOM     32  H   UNL     1      29.157 -25.882 -13.397  0.00  0.00    +0.292 HD
ENDBRANCH  27  31
ENDBRANCH  21  23
ENDBRANCH  20  22
ENDBRANCH  18  20
ENDBRANCH   2  18
TORSDOF 11
ENDMDL
