MODEL 1
REMARK VINA RESULT:     -12.4      0.000      0.000
REMARK  Name = 446286
REMARK  4 active torsions:
REMARK  status: ('A' for Active; 'I' for Inactive)
REMARK    1  A    between atoms: C_9  and  C_17
REMARK    2  A    between atoms: C_11  and  C_22
REMARK    3  A    between atoms: C_25  and  O_28
REMARK    4  A    between atoms: C_27  and  O_30
REMARK                            x       y       z     vdW  Elec       q    Type
REMARK                         _______ _______ _______ _____ _____    ______ ____
ROOT
ATOM      1  O   UNL     1      37.143 -19.618 -19.748  0.00  0.00    -0.270 OA
ATOM      2  N   UNL     1      35.134 -20.863 -19.702  0.00  0.00    -0.255 N 
ATOM      3  C   UNL     1      32.706 -21.243 -19.351  0.00  0.00    +0.027 C 
ATOM      4  C   UNL     1      32.978 -22.421 -18.437  0.00  0.00    +0.029 C 
ATOM      5  C   UNL     1      33.836 -21.112 -20.357  0.00  0.00    +0.099 C 
ATOM      6  C   UNL     1      34.378 -22.373 -17.883  0.00  0.00    -0.008 C 
ATOM      7  C   UNL     1      35.407 -21.624 -18.501  0.00  0.00    +0.050 C 
ATOM      8  C   UNL     1      34.650 -23.137 -16.733  0.00  0.00    -0.002 C 
ATOM      9  C   UNL     1      35.925 -23.162 -16.180  0.00  0.00    +0.016 C 
ATOM     10  C   UNL     1      36.691 -21.685 -17.931  0.00  0.00    +0.015 C 
ATOM     11  C   UNL     1      36.040 -19.909 -20.209  0.00  0.00    +0.253 C 
ATOM     12  C   UNL     1      36.945 -22.439 -16.781  0.00  0.00    +0.003 C 
ENDROOT
BRANCH   9  17
ATOM     13  S   UNL     1      36.779 -23.670 -12.320  0.00  0.00    -0.051 S 
ATOM     14  O   UNL     1      37.626 -26.042 -11.700  0.00  0.00    -0.261 OA
ATOM     15  N   UNL     1      36.932 -25.013 -15.037  0.00  0.00    -0.182 NA
ATOM     16  N   UNL     1      37.256 -25.736 -13.941  0.00  0.00    -0.198 N 
ATOM     17  C   UNL     1      36.193 -23.951 -14.933  0.00  0.00    +0.086 C 
ATOM     18  C   UNL     1      35.555 -23.495 -13.635  0.00  0.00    +0.098 C 
ATOM     19  C   UNL     1      34.289 -24.287 -13.321  0.00  0.00    +0.019 C 
ATOM     20  C   UNL     1      37.267 -25.321 -12.627  0.00  0.00    +0.292 C 
ATOM     21  H   UNL     1      37.516 -26.672 -14.102  0.00  0.00    +0.178 HD
ENDBRANCH   9  17
BRANCH  11  22
ATOM     22  C   UNL     1      35.644 -19.153 -21.413  0.00  0.00    +0.057 C 
ATOM     23  C   UNL     1      35.645 -17.761 -21.386  0.00  0.00    +0.045 C 
ATOM     24  C   UNL     1      35.269 -19.836 -22.566  0.00  0.00    +0.008 C 
ATOM     25  C   UNL     1      35.269 -17.046 -22.523  0.00  0.00    +0.173 C 
ATOM     26  C   UNL     1      34.892 -19.121 -23.704  0.00  0.00    +0.040 C 
ATOM     27  C   UNL     1      34.892 -17.727 -23.681  0.00  0.00    +0.172 C 
BRANCH  25  28
ATOM     28  O   UNL     1      35.272 -15.685 -22.491  0.00  0.00    -0.468 OA
ATOM     29  C   UNL     1      34.526 -15.059 -21.449  0.00  0.00    +0.253 C 
ENDBRANCH  25  28
BRANCH  27  30
ATOM     30  O   UNL     1      34.523 -17.040 -24.799  0.00  0.00    -0.468 OA
ATOM     31  C   UNL     1      33.393 -16.179 -24.688  0.00  0.00    +0.253 C 
ENDBRANCH  27  30
ENDBRANCH  11  22
TORSDOF 4
ENDMDL
MODEL 2
REMARK VINA RESULT:     -11.7      1.060      1.889
REMARK  Name = 446286
REMARK  4 active torsions:
REMARK  status: ('A' for Active; 'I' for Inactive)
REMARK    1  A    between atoms: C_9  and  C_17
REMARK    2  A    between atoms: C_11  and  C_22
REMARK    3  A    between atoms: C_25  and  O_28
REMARK    4  A    between atoms: C_27  and  O_30
REMARK                            x       y       z     vdW  Elec       q    Type
REMARK                         _______ _______ _______ _____ _____    ______ ____
ROOT
ATOM      1  O   UNL     1      37.116 -19.461 -19.850  0.00  0.00    -0.270 OA
ATOM      2  N   UNL     1      35.161 -20.782 -19.743  0.00  0.00    -0.255 N 
ATOM      3  C   UNL     1      32.760 -21.254 -19.320  0.00  0.00    +0.027 C 
ATOM      4  C   UNL     1      33.104 -22.419 -18.412  0.00  0.00    +0.029 C 
ATOM      5  C   UNL     1      33.854 -21.084 -20.360  0.00  0.00    +0.099 C 
ATOM      6  C   UNL     1      34.517 -22.314 -17.900  0.00  0.00    -0.008 C 
ATOM      7  C   UNL     1      35.497 -21.528 -18.548  0.00  0.00    +0.050 C 
ATOM      8  C   UNL     1      34.850 -23.063 -16.756  0.00  0.00    -0.002 C 
ATOM      9  C   UNL     1      36.141 -23.037 -16.240  0.00  0.00    +0.016 C 
ATOM     10  C   UNL     1      36.798 -21.537 -18.016  0.00  0.00    +0.015 C 
ATOM     11  C   UNL     1      36.014 -19.795 -20.278  0.00  0.00    +0.253 C 
ATOM     12  C   UNL     1      37.115 -22.277 -16.872  0.00  0.00    +0.003 C 
ENDROOT
BRANCH   9  17
ATOM     13  S   UNL     1      35.384 -24.789 -12.741  0.00  0.00    -0.051 S 
ATOM     14  O   UNL     1      37.482 -25.277 -11.297  0.00  0.00    -0.261 OA
ATOM     15  N   UNL     1      37.595 -23.538 -14.401  0.00  0.00    -0.182 NA
ATOM     16  N   UNL     1      37.928 -24.162 -13.248  0.00  0.00    -0.198 N 
ATOM     17  C   UNL     1      36.475 -23.810 -15.000  0.00  0.00    +0.086 C 
ATOM     18  C   UNL     1      35.517 -24.892 -14.539  0.00  0.00    +0.098 C 
ATOM     19  C   UNL     1      35.977 -26.278 -14.982  0.00  0.00    +0.019 C 
ATOM     20  C   UNL     1      37.088 -24.779 -12.347  0.00  0.00    +0.292 C 
ATOM     21  H   UNL     1      38.887 -24.175 -13.025  0.00  0.00    +0.178 HD
ENDBRANCH   9  17
BRANCH  11  22
ATOM     22  C   UNL     1      35.553 -19.059 -21.472  0.00  0.00    +0.057 C 
ATOM     23  C   UNL     1      35.004 -19.757 -22.544  0.00  0.00    +0.045 C 
ATOM     24  C   UNL     1      35.673 -17.674 -21.519  0.00  0.00    +0.008 C 
ATOM     25  C   UNL     1      34.571 -19.062 -23.674  0.00  0.00    +0.173 C 
ATOM     26  C   UNL     1      35.240 -16.978 -22.648  0.00  0.00    +0.040 C 
ATOM     27  C   UNL     1      34.690 -17.673 -23.725  0.00  0.00    +0.172 C 
BRANCH  25  28
ATOM     28  O   UNL     1      34.035 -19.750 -24.719  0.00  0.00    -0.468 OA
ATOM     29  C   UNL     1      32.643 -19.566 -24.971  0.00  0.00    +0.253 C 
ENDBRANCH  25  28
BRANCH  27  30
ATOM     30  O   UNL     1      34.269 -16.982 -24.822  0.00  0.00    -0.468 OA
ATOM     31  C   UNL     1      33.820 -15.646 -24.614  0.00  0.00    +0.253 C 
ENDBRANCH  27  30
ENDBRANCH  11  22
TORSDOF 4
ENDMDL
MODEL 3
REMARK VINA RESULT:     -11.2      5.129      9.071
REMARK  Name = 446286
REMARK  4 active torsions:
REMARK  status: ('A' for Active; 'I' for Inactive)
REMARK    1  A    between atoms: C_9  and  C_17
REMARK    2  A    between atoms: C_11  and  C_22
REMARK    3  A    between atoms: C_25  and  O_28
REMARK    4  A    between atoms: C_27  and  O_30
REMARK                            x       y       z     vdW  Elec       q    Type
REMARK                         _______ _______ _______ _____ _____    ______ ____
ROOT
ATOM      1  O   UNL     1      32.850 -12.251 -20.700  0.00  0.00    -0.270 OA
ATOM      2  N   UNL     1      33.558 -13.011 -22.822  0.00  0.00    -0.255 N 
ATOM      3  C   UNL     1      33.281 -13.850 -25.143  0.00  0.00    +0.027 C 
ATOM      4  C   UNL     1      34.189 -15.033 -24.870  0.00  0.00    +0.029 C 
ATOM      5  C   UNL     1      33.687 -12.686 -24.256  0.00  0.00    +0.099 C 
ATOM      6  C   UNL     1      34.299 -15.310 -23.393  0.00  0.00    -0.008 C 
ATOM      7  C   UNL     1      33.997 -14.330 -22.419  0.00  0.00    +0.050 C 
ATOM      8  C   UNL     1      34.753 -16.583 -23.002  0.00  0.00    -0.002 C 
ATOM      9  C   UNL     1      34.905 -16.902 -21.658  0.00  0.00    +0.016 C 
ATOM     10  C   UNL     1      34.178 -14.675 -21.068  0.00  0.00    +0.015 C 
ATOM     11  C   UNL     1      33.007 -12.090 -21.909  0.00  0.00    +0.253 C 
ATOM     12  C   UNL     1      34.620 -15.947 -20.692  0.00  0.00    +0.003 C 
ENDROOT
BRANCH   9  17
ATOM     13  S   UNL     1      34.436 -20.633 -20.336  0.00  0.00    -0.051 S 
ATOM     14  O   UNL     1      36.608 -21.758 -19.471  0.00  0.00    -0.261 OA
ATOM     15  N   UNL     1      36.446 -18.371 -20.556  0.00  0.00    -0.182 NA
ATOM     16  N   UNL     1      36.876 -19.574 -20.113  0.00  0.00    -0.198 N 
ATOM     17  C   UNL     1      35.355 -18.274 -21.253  0.00  0.00    +0.086 C 
ATOM     18  C   UNL     1      34.543 -19.469 -21.712  0.00  0.00    +0.098 C 
ATOM     19  C   UNL     1      35.155 -20.126 -22.946  0.00  0.00    +0.019 C 
ATOM     20  C   UNL     1      36.135 -20.721 -19.928  0.00  0.00    +0.292 C 
ATOM     21  H   UNL     1      37.834 -19.638 -19.896  0.00  0.00    +0.178 HD
ENDBRANCH   9  17
BRANCH  11  22
ATOM     22  C   UNL     1      32.546 -10.788 -22.434  0.00  0.00    +0.057 C 
ATOM     23  C   UNL     1      33.456  -9.929 -23.042  0.00  0.00    +0.045 C 
ATOM     24  C   UNL     1      31.207 -10.430 -22.314  0.00  0.00    +0.008 C 
ATOM     25  C   UNL     1      33.022  -8.699 -23.537  0.00  0.00    +0.173 C 
ATOM     26  C   UNL     1      30.773  -9.199 -22.808  0.00  0.00    +0.040 C 
ATOM     27  C   UNL     1      31.681  -8.334 -23.419  0.00  0.00    +0.172 C 
BRANCH  25  28
ATOM     28  O   UNL     1      33.917  -7.862 -24.132  0.00  0.00    -0.468 OA
ATOM     29  C   UNL     1      35.027  -7.435 -23.346  0.00  0.00    +0.253 C 
ENDBRANCH  25  28
BRANCH  27  30
ATOM     30  O   UNL     1      31.244  -7.136 -23.899  0.00  0.00    -0.468 OA
ATOM     31  C   UNL     1      31.255  -6.033 -22.995  0.00  0.00    +0.253 C 
ENDBRANCH  27  30
ENDBRANCH  11  22
TORSDOF 4
ENDMDL
MODEL 4
REMARK VINA RESULT:     -10.3      7.636     13.411
REMARK  Name = 446286
REMARK  4 active torsions:
REMARK  status: ('A' for Active; 'I' for Inactive)
REMARK    1  A    between atoms: C_9  and  C_17
REMARK    2  A    between atoms: C_11  and  C_22
REMARK    3  A    between atoms: C_25  and  O_28
REMARK    4  A    between atoms: C_27  and  O_30
REMARK                            x       y       z     vdW  Elec       q    Type
REMARK                         _______ _______ _______ _____ _____    ______ ____
ROOT
ATOM      1  O   UNL     1      34.246 -13.383 -24.438  0.00  0.00    -0.270 OA
ATOM      2  N   UNL     1      33.445 -13.172 -22.225  0.00  0.00    -0.255 N 
ATOM      3  C   UNL     1      31.865 -13.510 -20.340  0.00  0.00    +0.027 C 
ATOM      4  C   UNL     1      31.798 -12.019 -20.072  0.00  0.00    +0.029 C 
ATOM      5  C   UNL     1      33.218 -13.856 -20.937  0.00  0.00    +0.099 C 
ATOM      6  C   UNL     1      32.231 -11.226 -21.277  0.00  0.00    -0.008 C 
ATOM      7  C   UNL     1      33.024 -11.789 -22.303  0.00  0.00    +0.050 C 
ATOM      8  C   UNL     1      31.846  -9.874 -21.338  0.00  0.00    -0.002 C 
ATOM      9  C   UNL     1      32.230  -9.072 -22.407  0.00  0.00    +0.016 C 
ATOM     10  C   UNL     1      33.415 -10.949 -23.362  0.00  0.00    +0.015 C 
ATOM     11  C   UNL     1      34.013 -13.848 -23.324  0.00  0.00    +0.253 C 
ATOM     12  C   UNL     1      33.017  -9.610 -23.416  0.00  0.00    +0.003 C 
ENDROOT
BRANCH   9  17
ATOM     13  S   UNL     1      32.692  -5.149 -22.933  0.00  0.00    -0.051 S 
ATOM     14  O   UNL     1      30.769  -3.693 -21.980  0.00  0.00    -0.261 OA
ATOM     15  N   UNL     1      30.941  -7.227 -21.583  0.00  0.00    -0.182 NA
ATOM     16  N   UNL     1      30.542  -5.934 -21.560  0.00  0.00    -0.198 N 
ATOM     17  C   UNL     1      31.784  -7.643 -22.478  0.00  0.00    +0.086 C 
ATOM     18  C   UNL     1      32.303  -6.777 -23.610  0.00  0.00    +0.098 C 
ATOM     19  C   UNL     1      31.295  -6.675 -24.750  0.00  0.00    +0.019 C 
ATOM     20  C   UNL     1      31.187  -4.841 -22.095  0.00  0.00    +0.292 C 
ATOM     21  H   UNL     1      29.688  -5.753 -21.105  0.00  0.00    +0.178 HD
ENDBRANCH   9  17
BRANCH  11  22
ATOM     22  C   UNL     1      34.363 -15.272 -23.152  0.00  0.00    +0.057 C 
ATOM     23  C   UNL     1      34.088 -16.179 -24.172  0.00  0.00    +0.045 C 
ATOM     24  C   UNL     1      34.962 -15.699 -21.971  0.00  0.00    +0.008 C 
ATOM     25  C   UNL     1      34.417 -17.525 -24.010  0.00  0.00    +0.173 C 
ATOM     26  C   UNL     1      35.291 -17.045 -21.808  0.00  0.00    +0.040 C 
ATOM     27  C   UNL     1      35.018 -17.957 -22.827  0.00  0.00    +0.172 C 
BRANCH  25  28
ATOM     28  O   UNL     1      34.146 -18.407 -25.011  0.00  0.00    -0.468 OA
ATOM     29  C   UNL     1      32.963 -19.191 -24.882  0.00  0.00    +0.253 C 
ENDBRANCH  25  28
BRANCH  27  30
ATOM     30  O   UNL     1      35.345 -19.269 -22.657  0.00  0.00    -0.468 OA
ATOM     31  C   UNL     1      34.911 -19.894 -21.452  0.00  0.00    +0.253 C 
ENDBRANCH  27  30
ENDBRANCH  11  22
TORSDOF 4
ENDMDL
MODEL 5
REMARK VINA RESULT:     -10.2      7.759     13.086
REMARK  Name = 446286
REMARK  4 active torsions:
REMARK  status: ('A' for Active; 'I' for Inactive)
REMARK    1  A    between atoms: C_9  and  C_17
REMARK    2  A    between atoms: C_11  and  C_22
REMARK    3  A    between atoms: C_25  and  O_28
REMARK    4  A    between atoms: C_27  and  O_30
REMARK                            x       y       z     vdW  Elec       q    Type
REMARK                         _______ _______ _______ _____ _____    ______ ____
ROOT
ATOM      1  O   UNL     1      34.102 -13.731 -24.675  0.00  0.00    -0.270 OA
ATOM      2  N   UNL     1      33.469 -13.554 -22.406  0.00  0.00    -0.255 N 
ATOM      3  C   UNL     1      32.016 -13.892 -20.421  0.00  0.00    +0.027 C 
ATOM      4  C   UNL     1      32.021 -12.407 -20.111  0.00  0.00    +0.029 C 
ATOM      5  C   UNL     1      33.310 -14.265 -21.122  0.00  0.00    +0.099 C 
ATOM      6  C   UNL     1      32.394 -11.596 -21.324  0.00  0.00    -0.008 C 
ATOM      7  C   UNL     1      33.093 -12.156 -22.419  0.00  0.00    +0.050 C 
ATOM      8  C   UNL     1      32.055 -10.230 -21.323  0.00  0.00    -0.002 C 
ATOM      9  C   UNL     1      32.390  -9.413 -22.396  0.00  0.00    +0.016 C 
ATOM     10  C   UNL     1      33.436 -11.301 -23.481  0.00  0.00    +0.015 C 
ATOM     11  C   UNL     1      33.933 -14.219 -23.560  0.00  0.00    +0.253 C 
ATOM     12  C   UNL     1      33.083  -9.948 -23.473  0.00  0.00    +0.003 C 
ENDROOT
BRANCH   9  17
ATOM     13  S   UNL     1      32.920  -5.503 -22.957  0.00  0.00    -0.051 S 
ATOM     14  O   UNL     1      31.194  -3.990 -21.748  0.00  0.00    -0.261 OA
ATOM     15  N   UNL     1      31.289  -7.532 -21.398  0.00  0.00    -0.182 NA
ATOM     16  N   UNL     1      30.944  -6.226 -21.314  0.00  0.00    -0.198 N 
ATOM     17  C   UNL     1      31.990  -7.968 -22.400  0.00  0.00    +0.086 C 
ATOM     18  C   UNL     1      32.386  -7.109 -23.585  0.00  0.00    +0.098 C 
ATOM     19  C   UNL     1      31.239  -6.960 -24.581  0.00  0.00    +0.019 C 
ATOM     20  C   UNL     1      31.552  -5.151 -21.924  0.00  0.00    +0.292 C 
ATOM     21  H   UNL     1      30.166  -6.020 -20.749  0.00  0.00    +0.178 HD
ENDBRANCH   9  17
BRANCH  11  22
ATOM     22  C   UNL     1      34.244 -15.658 -23.449  0.00  0.00    +0.057 C 
ATOM     23  C   UNL     1      34.898 -16.138 -22.318  0.00  0.00    +0.045 C 
ATOM     24  C   UNL     1      33.883 -16.524 -24.477  0.00  0.00    +0.008 C 
ATOM     25  C   UNL     1      35.193 -17.497 -22.214  0.00  0.00    +0.173 C 
ATOM     26  C   UNL     1      34.179 -17.883 -24.373  0.00  0.00    +0.040 C 
ATOM     27  C   UNL     1      34.834 -18.369 -23.242  0.00  0.00    +0.172 C 
BRANCH  25  28
ATOM     28  O   UNL     1      35.833 -17.961 -21.105  0.00  0.00    -0.468 OA
ATOM     29  C   UNL     1      37.032 -18.705 -21.311  0.00  0.00    +0.253 C 
ENDBRANCH  25  28
BRANCH  27  30
ATOM     30  O   UNL     1      35.116 -19.700 -23.151  0.00  0.00    -0.468 OA
ATOM     31  C   UNL     1      34.933 -20.483 -24.328  0.00  0.00    +0.253 C 
ENDBRANCH  27  30
ENDBRANCH  11  22
TORSDOF 4
ENDMDL
MODEL 6
REMARK VINA RESULT:     -10.0      5.547      9.454
REMARK  Name = 446286
REMARK  4 active torsions:
REMARK  status: ('A' for Active; 'I' for Inactive)
REMARK    1  A    between atoms: C_9  and  C_17
REMARK    2  A    between atoms: C_11  and  C_22
REMARK    3  A    between atoms: C_25  and  O_28
REMARK    4  A    between atoms: C_27  and  O_30
REMARK                            x       y       z     vdW  Elec       q    Type
REMARK                         _______ _______ _______ _____ _____    ______ ____
ROOT
ATOM      1  O   UNL     1      34.608 -11.845 -23.980  0.00  0.00    -0.270 OA
ATOM      2  N   UNL     1      33.188 -12.415 -22.179  0.00  0.00    -0.255 N 
ATOM      3  C   UNL     1      32.365 -12.377 -19.837  0.00  0.00    +0.027 C 
ATOM      4  C   UNL     1      32.398 -13.891 -19.756  0.00  0.00    +0.029 C 
ATOM      5  C   UNL     1      32.117 -11.955 -21.275  0.00  0.00    +0.099 C 
ATOM      6  C   UNL     1      33.310 -14.476 -20.803  0.00  0.00    -0.008 C 
ATOM      7  C   UNL     1      33.680 -13.760 -21.964  0.00  0.00    +0.050 C 
ATOM      8  C   UNL     1      33.763 -15.794 -20.607  0.00  0.00    -0.002 C 
ATOM      9  C   UNL     1      34.587 -16.409 -21.543  0.00  0.00    +0.016 C 
ATOM     10  C   UNL     1      34.497 -14.414 -22.903  0.00  0.00    +0.015 C 
ATOM     11  C   UNL     1      33.720 -11.571 -23.176  0.00  0.00    +0.253 C 
ATOM     12  C   UNL     1      34.950 -15.720 -22.691  0.00  0.00    +0.003 C 
ENDROOT
BRANCH   9  17
ATOM     13  S   UNL     1      34.273 -20.286 -20.675  0.00  0.00    -0.051 S 
ATOM     14  O   UNL     1      36.493 -21.420 -19.957  0.00  0.00    -0.261 OA
ATOM     15  N   UNL     1      36.192 -17.937 -20.629  0.00  0.00    -0.182 NA
ATOM     16  N   UNL     1      36.672 -19.167 -20.334  0.00  0.00    -0.198 N 
ATOM     17  C   UNL     1      35.093 -17.800 -21.306  0.00  0.00    +0.086 C 
ATOM     18  C   UNL     1      34.324 -18.963 -21.902  0.00  0.00    +0.098 C 
ATOM     19  C   UNL     1      34.952 -19.443 -23.208  0.00  0.00    +0.019 C 
ATOM     20  C   UNL     1      35.977 -20.355 -20.285  0.00  0.00    +0.292 C 
ATOM     21  H   UNL     1      37.633 -19.218 -20.129  0.00  0.00    +0.178 HD
ENDBRANCH   9  17
BRANCH  11  22
ATOM     22  C   UNL     1      33.179 -10.200 -23.280  0.00  0.00    +0.057 C 
ATOM     23  C   UNL     1      34.039  -9.110 -23.184  0.00  0.00    +0.045 C 
ATOM     24  C   UNL     1      31.814 -10.009 -23.470  0.00  0.00    +0.008 C 
ATOM     25  C   UNL     1      33.529  -7.815 -23.280  0.00  0.00    +0.173 C 
ATOM     26  C   UNL     1      31.303  -8.714 -23.566  0.00  0.00    +0.040 C 
ATOM     27  C   UNL     1      32.161  -7.618 -23.471  0.00  0.00    +0.172 C 
BRANCH  25  28
ATOM     28  O   UNL     1      34.375  -6.753 -23.186  0.00  0.00    -0.468 OA
ATOM     29  C   UNL     1      35.074  -6.374 -24.370  0.00  0.00    +0.253 C 
ENDBRANCH  25  28
BRANCH  27  30
ATOM     30  O   UNL     1      31.651  -6.358 -23.567  0.00  0.00    -0.468 OA
ATOM     31  C   UNL     1      31.231  -5.734 -22.357  0.00  0.00    +0.253 C 
ENDBRANCH  27  30
ENDBRANCH  11  22
TORSDOF 4
ENDMDL
MODEL 7
REMARK VINA RESULT:      -9.6      7.537     12.184
REMARK  Name = 446286
REMARK  4 active torsions:
REMARK  status: ('A' for Active; 'I' for Inactive)
REMARK    1  A    between atoms: C_9  and  C_17
REMARK    2  A    between atoms: C_11  and  C_22
REMARK    3  A    between atoms: C_25  and  O_28
REMARK    4  A    between atoms: C_27  and  O_30
REMARK                            x       y       z     vdW  Elec       q    Type
REMARK                         _______ _______ _______ _____ _____    ______ ____
ROOT
ATOM      1  O   UNL     1      33.801  -9.041 -23.682  0.00  0.00    -0.270 OA
ATOM      2  N   UNL     1      32.344 -10.166 -22.199  0.00  0.00    -0.255 N 
ATOM      3  C   UNL     1      31.464 -10.888 -19.993  0.00  0.00    +0.027 C 
ATOM      4  C   UNL     1      31.512 -12.347 -20.402  0.00  0.00    +0.029 C 
ATOM      5  C   UNL     1      31.246 -10.025 -21.223  0.00  0.00    +0.099 C 
ATOM      6  C   UNL     1      32.456 -12.561 -21.557  0.00  0.00    -0.008 C 
ATOM      7  C   UNL     1      32.846 -11.507 -22.415  0.00  0.00    +0.050 C 
ATOM      8  C   UNL     1      32.920 -13.869 -21.784  0.00  0.00    -0.002 C 
ATOM      9  C   UNL     1      33.773 -14.148 -22.846  0.00  0.00    +0.016 C 
ATOM     10  C   UNL     1      33.693 -11.821 -23.493  0.00  0.00    +0.015 C 
ATOM     11  C   UNL     1      32.890  -9.044 -22.856  0.00  0.00    +0.253 C 
ATOM     12  C   UNL     1      34.156 -13.124 -23.701  0.00  0.00    +0.003 C 
ENDROOT
BRANCH   9  17
ATOM     13  S   UNL     1      33.684 -17.879 -24.244  0.00  0.00    -0.051 S 
ATOM     14  O   UNL     1      35.300 -19.522 -23.054  0.00  0.00    -0.261 OA
ATOM     15  N   UNL     1      34.844 -16.138 -22.046  0.00  0.00    -0.182 NA
ATOM     16  N   UNL     1      35.280 -17.414 -22.155  0.00  0.00    -0.198 N 
ATOM     17  C   UNL     1      34.289 -15.539 -23.056  0.00  0.00    +0.086 C 
ATOM     18  C   UNL     1      34.178 -16.154 -24.438  0.00  0.00    +0.098 C 
ATOM     19  C   UNL     1      35.486 -16.037 -25.214  0.00  0.00    +0.019 C 
ATOM     20  C   UNL     1      34.880 -18.368 -23.065  0.00  0.00    +0.292 C 
ATOM     21  H   UNL     1      35.965 -17.694 -21.507  0.00  0.00    +0.178 HD
ENDBRANCH   9  17
BRANCH  11  22
ATOM     22  C   UNL     1      32.336  -7.715 -22.528  0.00  0.00    +0.057 C 
ATOM     23  C   UNL     1      31.821  -6.912 -23.541  0.00  0.00    +0.045 C 
ATOM     24  C   UNL     1      32.335  -7.274 -21.208  0.00  0.00    +0.008 C 
ATOM     25  C   UNL     1      31.300  -5.656 -23.232  0.00  0.00    +0.173 C 
ATOM     26  C   UNL     1      31.814  -6.018 -20.898  0.00  0.00    +0.040 C 
ATOM     27  C   UNL     1      31.297  -5.209 -21.910  0.00  0.00    +0.172 C 
BRANCH  25  28
ATOM     28  O   UNL     1      30.797  -4.875 -24.227  0.00  0.00    -0.468 OA
ATOM     29  C   UNL     1      31.726  -4.074 -24.955  0.00  0.00    +0.253 C 
ENDBRANCH  25  28
BRANCH  27  30
ATOM     30  O   UNL     1      30.789  -3.984 -21.594  0.00  0.00    -0.468 OA
ATOM     31  C   UNL     1      31.723  -2.924 -21.404  0.00  0.00    +0.253 C 
ENDBRANCH  27  30
ENDBRANCH  11  22
TORSDOF 4
ENDMDL
MODEL 8
REMARK VINA RESULT:      -9.4      1.164      1.360
REMARK  Name = 446286
REMARK  4 active torsions:
REMARK  status: ('A' for Active; 'I' for Inactive)
REMARK    1  A    between atoms: C_9  and  C_17
REMARK    2  A    between atoms: C_11  and  C_22
REMARK    3  A    between atoms: C_25  and  O_28
REMARK    4  A    between atoms: C_27  and  O_30
REMARK                            x       y       z     vdW  Elec       q    Type
REMARK                         _______ _______ _______ _____ _____    ______ ____
ROOT
ATOM      1  O   UNL     1      36.899 -18.741 -20.731  0.00  0.00    -0.270 OA
ATOM      2  N   UNL     1      34.945 -20.057 -20.546  0.00  0.00    -0.255 N 
ATOM      3  C   UNL     1      32.575 -20.537 -19.980  0.00  0.00    +0.027 C 
ATOM      4  C   UNL     1      32.973 -21.741 -19.148  0.00  0.00    +0.029 C 
ATOM      5  C   UNL     1      33.597 -20.326 -21.084  0.00  0.00    +0.099 C 
ATOM      6  C   UNL     1      34.418 -21.665 -18.730  0.00  0.00    -0.008 C 
ATOM      7  C   UNL     1      35.357 -20.856 -19.411  0.00  0.00    +0.050 C 
ATOM      8  C   UNL     1      34.824 -22.464 -17.646  0.00  0.00    -0.002 C 
ATOM      9  C   UNL     1      36.147 -22.466 -17.220  0.00  0.00    +0.016 C 
ATOM     10  C   UNL     1      36.692 -20.893 -18.971  0.00  0.00    +0.015 C 
ATOM     11  C   UNL     1      35.766 -19.052 -21.096  0.00  0.00    +0.253 C 
ATOM     12  C   UNL     1      37.081 -21.684 -17.884  0.00  0.00    +0.003 C 
ENDROOT
BRANCH   9  17
ATOM     13  S   UNL     1      36.605 -23.292 -13.348  0.00  0.00    -0.051 S 
ATOM     14  O   UNL     1      38.308 -25.181 -12.836  0.00  0.00    -0.261 OA
ATOM     15  N   UNL     1      37.695 -23.921 -16.109  0.00  0.00    -0.182 NA
ATOM     16  N   UNL     1      38.150 -24.640 -15.057  0.00  0.00    -0.198 N 
ATOM     17  C   UNL     1      36.560 -23.294 -16.040  0.00  0.00    +0.086 C 
ATOM     18  C   UNL     1      35.618 -23.391 -14.856  0.00  0.00    +0.098 C 
ATOM     19  C   UNL     1      34.794 -24.675 -14.895  0.00  0.00    +0.019 C 
ATOM     20  C   UNL     1      37.801 -24.511 -13.731  0.00  0.00    +0.292 C 
ATOM     21  H   UNL     1      38.811 -25.339 -15.265  0.00  0.00    +0.178 HD
ENDBRANCH   9  17
BRANCH  11  22
ATOM     22  C   UNL     1      35.230 -18.262 -22.223  0.00  0.00    +0.057 C 
ATOM     23  C   UNL     1      34.905 -16.923 -22.033  0.00  0.00    +0.045 C 
ATOM     24  C   UNL     1      35.053 -18.864 -23.465  0.00  0.00    +0.008 C 
ATOM     25  C   UNL     1      34.397 -16.177 -23.097  0.00  0.00    +0.173 C 
ATOM     26  C   UNL     1      34.544 -18.119 -24.529  0.00  0.00    +0.040 C 
ATOM     27  C   UNL     1      34.216 -16.775 -24.344  0.00  0.00    +0.172 C 
BRANCH  25  28
ATOM     28  O   UNL     1      34.080 -14.866 -22.906  0.00  0.00    -0.468 OA
ATOM     29  C   UNL     1      33.413 -14.531 -21.692  0.00  0.00    +0.253 C 
ENDBRANCH  25  28
BRANCH  27  30
ATOM     30  O   UNL     1      33.722 -16.057 -25.392  0.00  0.00    -0.468 OA
ATOM     31  C   UNL     1      34.457 -14.903 -25.792  0.00  0.00    +0.253 C 
ENDBRANCH  27  30
ENDBRANCH  11  22
TORSDOF 4
ENDMDL
MODEL 9
REMARK VINA RESULT:      -9.4      3.727      9.972
REMARK  Name = 446286
REMARK  4 active torsions:
REMARK  status: ('A' for Active; 'I' for Inactive)
REMARK    1  A    between atoms: C_9  and  C_17
REMARK    2  A    between atoms: C_11  and  C_22
REMARK    3  A    between atoms: C_25  and  O_28
REMARK    4  A    between atoms: C_27  and  O_30
REMARK                            x       y       z     vdW  Elec       q    Type
REMARK                         _______ _______ _______ _____ _____    ______ ____
ROOT
ATOM      1  O   UNL     1      31.066 -22.085 -17.404  0.00  0.00    -0.270 OA
ATOM      2  N   UNL     1      33.369 -22.593 -17.564  0.00  0.00    -0.255 N 
ATOM      3  C   UNL     1      35.761 -22.521 -16.903  0.00  0.00    +0.027 C 
ATOM      4  C   UNL     1      36.177 -22.089 -18.295  0.00  0.00    +0.029 C 
ATOM      5  C   UNL     1      34.495 -23.355 -16.990  0.00  0.00    +0.099 C 
ATOM      6  C   UNL     1      35.021 -21.490 -19.052  0.00  0.00    -0.008 C 
ATOM      7  C   UNL     1      33.676 -21.742 -18.694  0.00  0.00    +0.050 C 
ATOM      8  C   UNL     1      35.319 -20.687 -20.168  0.00  0.00    -0.002 C 
ATOM      9  C   UNL     1      34.304 -20.121 -20.930  0.00  0.00    +0.016 C 
ATOM     10  C   UNL     1      32.669 -21.173 -19.495  0.00  0.00    +0.015 C 
ATOM     11  C   UNL     1      32.073 -22.672 -17.013  0.00  0.00    +0.253 C 
ATOM     12  C   UNL     1      32.980 -20.368 -20.595  0.00  0.00    +0.003 C 
ENDROOT
BRANCH   9  17
ATOM     13  S   UNL     1      35.077 -16.666 -22.760  0.00  0.00    -0.051 S 
ATOM     14  O   UNL     1      34.825 -16.726 -25.341  0.00  0.00    -0.261 OA
ATOM     15  N   UNL     1      34.045 -19.482 -23.226  0.00  0.00    -0.182 NA
ATOM     16  N   UNL     1      34.260 -18.688 -24.300  0.00  0.00    -0.198 N 
ATOM     17  C   UNL     1      34.635 -19.238 -22.095  0.00  0.00    +0.086 C 
ATOM     18  C   UNL     1      35.667 -18.143 -21.905  0.00  0.00    +0.098 C 
ATOM     19  C   UNL     1      37.040 -18.568 -22.417  0.00  0.00    +0.019 C 
ATOM     20  C   UNL     1      34.709 -17.386 -24.312  0.00  0.00    +0.292 C 
ATOM     21  H   UNL     1      34.071 -19.089 -25.178  0.00  0.00    +0.178 HD
ENDBRANCH   9  17
BRANCH  11  22
ATOM     22  C   UNL     1      31.878 -23.534 -15.830  0.00  0.00    +0.057 C 
ATOM     23  C   UNL     1      32.815 -23.516 -14.800  0.00  0.00    +0.045 C 
ATOM     24  C   UNL     1      30.762 -24.361 -15.754  0.00  0.00    +0.008 C 
ATOM     25  C   UNL     1      32.632 -24.332 -13.683  0.00  0.00    +0.173 C 
ATOM     26  C   UNL     1      30.578 -25.177 -14.638  0.00  0.00    +0.040 C 
ATOM     27  C   UNL     1      31.514 -25.162 -13.603  0.00  0.00    +0.172 C 
BRANCH  25  28
ATOM     28  O   UNL     1      33.551 -24.309 -12.679  0.00  0.00    -0.468 OA
ATOM     29  C   UNL     1      34.925 -24.275 -13.058  0.00  0.00    +0.253 C 
ENDBRANCH  25  28
BRANCH  27  30
ATOM     30  O   UNL     1      31.323 -25.963 -12.517  0.00  0.00    -0.468 OA
ATOM     31  C   UNL     1      30.389 -25.516 -11.537  0.00  0.00    +0.253 C 
ENDBRANCH  27  30
ENDBRANCH  11  22
TORSDOF 4
ENDMDL
