MODEL 1
REMARK VINA RESULT:     -10.8      0.000      0.000
REMARK  Name = 5287994
REMARK  8 active torsions:
REMARK  status: ('A' for Active; 'I' for Inactive)
REMARK    1  A    between atoms: C_5  and  O_19
REMARK    2  A    between atoms: C_5  and  C_21
REMARK    3  A    between atoms: C_8  and  C_30
REMARK    4  A    between atoms: C_10  and  C_11
REMARK    5  A    between atoms: C_16  and  O_17
REMARK    6  A    between atoms: C_21  and  C_22
REMARK    7  A    between atoms: C_27  and  O_28
REMARK    8  A    between atoms: C_30  and  C_31
REMARK                            x       y       z     vdW  Elec       q    Type
REMARK                         _______ _______ _______ _____ _____    ______ ____
ROOT
ATOM      1  O   UNL     1      33.275 -21.361 -20.159  0.00  0.00    -0.270 OA
ATOM      2  N   UNL     1      34.382 -22.147 -18.260  0.00  0.00    -0.232 N 
ATOM      3  N   UNL     1      36.531 -21.593 -18.703  0.00  0.00    -0.222 NA
ATOM      4  N   UNL     1      35.073 -23.312 -15.854  0.00  0.00    -0.406 NA
ATOM      5  C   UNL     1      35.692 -21.114 -19.844  0.00  0.00    +0.249 C 
ATOM      6  C   UNL     1      35.679 -22.141 -17.902  0.00  0.00    +0.162 C 
ATOM      7  C   UNL     1      34.270 -21.537 -19.473  0.00  0.00    +0.278 C 
ATOM      8  C   UNL     1      36.002 -22.783 -16.595  0.00  0.00    +0.144 C 
ATOM      9  C   UNL     1      33.414 -22.704 -17.483  0.00  0.00    +0.159 C 
ATOM     10  C   UNL     1      33.765 -23.264 -16.308  0.00  0.00    +0.129 C 
ENDROOT
BRANCH  10  11
ATOM     11  C   UNL     1      32.728 -23.885 -15.454  0.00  0.00    +0.027 C 
ATOM     12  C   UNL     1      31.385 -23.818 -15.825  0.00  0.00    +0.005 C 
ATOM     13  C   UNL     1      33.092 -24.539 -14.276  0.00  0.00    +0.005 C 
ATOM     14  C   UNL     1      30.408 -24.403 -15.020  0.00  0.00    +0.037 C 
ATOM     15  C   UNL     1      32.115 -25.124 -13.471  0.00  0.00    +0.037 C 
ATOM     16  C   UNL     1      30.773 -25.056 -13.843  0.00  0.00    +0.134 C 
BRANCH  16  17
ATOM     17  O   UNL     1      29.819 -25.628 -13.059  0.00  0.00    -0.506 OA
ATOM     18  H   UNL     1      28.935 -25.688 -13.363  0.00  0.00    +0.292 HD
ENDBRANCH  16  17
ENDBRANCH  10  11
BRANCH   5  19
ATOM     19  O   UNL     1      35.984 -21.678 -21.115  0.00  0.00    -0.361 OA
ATOM     20  H   UNL     1      36.941 -21.822 -21.192  0.00  0.00    +0.213 HD
ENDBRANCH   5  19
BRANCH   5  21
ATOM     21  C   UNL     1      35.800 -19.596 -19.919  0.00  0.00    +0.086 C 
BRANCH  21  22
ATOM     22  C   UNL     1      35.379 -19.073 -21.265  0.00  0.00    -0.017 C 
ATOM     23  C   UNL     1      34.910 -19.958 -22.227  0.00  0.00    -0.001 C 
ATOM     24  C   UNL     1      35.463 -17.712 -21.528  0.00  0.00    -0.001 C 
ATOM     25  C   UNL     1      34.519 -19.473 -23.475  0.00  0.00    +0.036 C 
ATOM     26  C   UNL     1      35.072 -17.227 -22.775  0.00  0.00    +0.036 C 
ATOM     27  C   UNL     1      34.600 -18.108 -23.749  0.00  0.00    +0.134 C 
BRANCH  27  28
ATOM     28  O   UNL     1      34.218 -17.635 -24.967  0.00  0.00    -0.506 OA
ATOM     29  H   UNL     1      34.757 -17.016 -25.419  0.00  0.00    +0.292 HD
ENDBRANCH  27  28
ENDBRANCH  21  22
ENDBRANCH   5  21
BRANCH   8  30
ATOM     30  C   UNL     1      37.436 -22.800 -16.164  0.00  0.00    +0.088 C 
BRANCH  30  31
ATOM     31  C   UNL     1      37.607 -23.582 -14.896  0.00  0.00    -0.015 C 
ATOM     32  C   UNL     1      38.397 -24.727 -14.894  0.00  0.00    -0.004 C 
ATOM     33  C   UNL     1      36.977 -23.154 -13.733  0.00  0.00    -0.004 C 
ATOM     34  C   UNL     1      38.556 -25.454 -13.713  0.00  0.00    -0.000 C 
ATOM     35  C   UNL     1      37.136 -23.881 -12.552  0.00  0.00    -0.000 C 
ATOM     36  C   UNL     1      37.926 -25.031 -12.543  0.00  0.00    -0.000 C 
ENDBRANCH  30  31
ENDBRANCH   8  30
TORSDOF 8
ENDMDL
MODEL 2
REMARK VINA RESULT:     -10.7      9.531     14.236
REMARK  Name = 5287994
REMARK  8 active torsions:
REMARK  status: ('A' for Active; 'I' for Inactive)
REMARK    1  A    between atoms: C_5  and  O_19
REMARK    2  A    between atoms: C_5  and  C_21
REMARK    3  A    between atoms: C_8  and  C_30
REMARK    4  A    between atoms: C_10  and  C_11
REMARK    5  A    between atoms: C_16  and  O_17
REMARK    6  A    between atoms: C_21  and  C_22
REMARK    7  A    between atoms: C_27  and  O_28
REMARK    8  A    between atoms: C_30  and  C_31
REMARK                            x       y       z     vdW  Elec       q    Type
REMARK                         _______ _______ _______ _____ _____    ______ ____
ROOT
ATOM      1  O   UNL     1      36.415  -9.526 -24.669  0.00  0.00    -0.270 OA
ATOM      2  N   UNL     1      34.496 -10.538 -23.806  0.00  0.00    -0.232 N 
ATOM      3  N   UNL     1      33.272  -8.751 -23.154  0.00  0.00    -0.222 NA
ATOM      4  N   UNL     1      32.573 -12.307 -22.913  0.00  0.00    -0.406 NA
ATOM      5  C   UNL     1      34.538  -8.239 -23.762  0.00  0.00    +0.249 C 
ATOM      6  C   UNL     1      33.382 -10.034 -23.246  0.00  0.00    +0.162 C 
ATOM      7  C   UNL     1      35.305  -9.501 -24.160  0.00  0.00    +0.278 C 
ATOM      8  C   UNL     1      32.374 -11.029 -22.779  0.00  0.00    +0.144 C 
ATOM      9  C   UNL     1      34.702 -11.877 -23.942  0.00  0.00    +0.159 C 
ATOM     10  C   UNL     1      33.752 -12.728 -23.508  0.00  0.00    +0.129 C 
ENDROOT
BRANCH  10  11
ATOM     11  C   UNL     1      33.962 -14.188 -23.637  0.00  0.00    +0.027 C 
ATOM     12  C   UNL     1      34.642 -14.886 -22.639  0.00  0.00    +0.005 C 
ATOM     13  C   UNL     1      33.481 -14.867 -24.757  0.00  0.00    +0.005 C 
ATOM     14  C   UNL     1      34.841 -16.261 -22.761  0.00  0.00    +0.037 C 
ATOM     15  C   UNL     1      33.679 -16.242 -24.878  0.00  0.00    +0.037 C 
ATOM     16  C   UNL     1      34.359 -16.939 -23.881  0.00  0.00    +0.134 C 
BRANCH  16  17
ATOM     17  O   UNL     1      34.552 -18.281 -23.998  0.00  0.00    -0.506 OA
ATOM     18  H   UNL     1      34.570 -18.822 -23.233  0.00  0.00    +0.292 HD
ENDBRANCH  16  17
ENDBRANCH  10  11
BRANCH   5  19
ATOM     19  O   UNL     1      35.382  -7.482 -22.906  0.00  0.00    -0.361 OA
ATOM     20  H   UNL     1      35.406  -7.894 -22.029  0.00  0.00    +0.213 HD
ENDBRANCH   5  19
BRANCH   5  21
ATOM     21  C   UNL     1      34.182  -7.414 -24.993  0.00  0.00    +0.086 C 
BRANCH  21  22
ATOM     22  C   UNL     1      33.212  -6.312 -24.664  0.00  0.00    -0.017 C 
ATOM     23  C   UNL     1      33.644  -4.992 -24.681  0.00  0.00    -0.001 C 
ATOM     24  C   UNL     1      31.897  -6.629 -24.350  0.00  0.00    -0.001 C 
ATOM     25  C   UNL     1      32.745  -3.970 -24.378  0.00  0.00    +0.036 C 
ATOM     26  C   UNL     1      30.998  -5.607 -24.046  0.00  0.00    +0.036 C 
ATOM     27  C   UNL     1      31.422  -4.278 -24.060  0.00  0.00    +0.134 C 
BRANCH  27  28
ATOM     28  O   UNL     1      30.545  -3.280 -23.763  0.00  0.00    -0.506 OA
ATOM     29  H   UNL     1      30.295  -3.126 -22.873  0.00  0.00    +0.292 HD
ENDBRANCH  27  28
ENDBRANCH  21  22
ENDBRANCH   5  21
BRANCH   8  30
ATOM     30  C   UNL     1      31.121 -10.506 -22.145  0.00  0.00    +0.088 C 
BRANCH  30  31
ATOM     31  C   UNL     1      31.367 -10.104 -20.721  0.00  0.00    -0.015 C 
ATOM     32  C   UNL     1      31.564  -8.763 -20.408  0.00  0.00    -0.004 C 
ATOM     33  C   UNL     1      31.393 -11.075 -19.726  0.00  0.00    -0.004 C 
ATOM     34  C   UNL     1      31.792  -8.390 -19.083  0.00  0.00    -0.000 C 
ATOM     35  C   UNL     1      31.620 -10.701 -18.401  0.00  0.00    -0.000 C 
ATOM     36  C   UNL     1      31.820  -9.358 -18.081  0.00  0.00    -0.000 C 
ENDBRANCH  30  31
ENDBRANCH   8  30
TORSDOF 8
ENDMDL
MODEL 3
REMARK VINA RESULT:     -10.2      2.058      4.687
REMARK  Name = 5287994
REMARK  8 active torsions:
REMARK  status: ('A' for Active; 'I' for Inactive)
REMARK    1  A    between atoms: C_5  and  O_19
REMARK    2  A    between atoms: C_5  and  C_21
REMARK    3  A    between atoms: C_8  and  C_30
REMARK    4  A    between atoms: C_10  and  C_11
REMARK    5  A    between atoms: C_16  and  O_17
REMARK    6  A    between atoms: C_21  and  C_22
REMARK    7  A    between atoms: C_27  and  O_28
REMARK    8  A    between atoms: C_30  and  C_31
REMARK                            x       y       z     vdW  Elec       q    Type
REMARK                         _______ _______ _______ _____ _____    ______ ____
ROOT
ATOM      1  O   UNL     1      37.311 -20.031 -19.817  0.00  0.00    -0.270 OA
ATOM      2  N   UNL     1      35.820 -21.413 -18.670  0.00  0.00    -0.232 N 
ATOM      3  N   UNL     1      33.868 -20.985 -19.731  0.00  0.00    -0.222 NA
ATOM      4  N   UNL     1      34.601 -23.174 -16.927  0.00  0.00    -0.406 NA
ATOM      5  C   UNL     1      34.935 -20.173 -20.394  0.00  0.00    +0.249 C 
ATOM      6  C   UNL     1      34.497 -21.621 -18.800  0.00  0.00    +0.162 C 
ATOM      7  C   UNL     1      36.207 -20.510 -19.614  0.00  0.00    +0.278 C 
ATOM      8  C   UNL     1      33.885 -22.580 -17.835  0.00  0.00    +0.144 C 
ATOM      9  C   UNL     1      36.565 -22.036 -17.717  0.00  0.00    +0.159 C 
ATOM     10  C   UNL     1      35.958 -22.898 -16.877  0.00  0.00    +0.129 C 
ENDROOT
BRANCH  10  11
ATOM     11  C   UNL     1      36.749 -23.576 -15.826  0.00  0.00    +0.027 C 
ATOM     12  C   UNL     1      38.134 -23.408 -15.776  0.00  0.00    +0.005 C 
ATOM     13  C   UNL     1      36.113 -24.385 -14.884  0.00  0.00    +0.005 C 
ATOM     14  C   UNL     1      38.879 -24.048 -14.786  0.00  0.00    +0.037 C 
ATOM     15  C   UNL     1      36.858 -25.024 -13.893  0.00  0.00    +0.037 C 
ATOM     16  C   UNL     1      38.241 -24.856 -13.844  0.00  0.00    +0.134 C 
BRANCH  16  17
ATOM     17  O   UNL     1      38.969 -25.478 -12.878  0.00  0.00    -0.506 OA
ATOM     18  H   UNL     1      39.757 -25.085 -12.558  0.00  0.00    +0.292 HD
ENDBRANCH  16  17
ENDBRANCH  10  11
BRANCH   5  19
ATOM     19  O   UNL     1      34.768 -18.763 -20.346  0.00  0.00    -0.361 OA
ATOM     20  H   UNL     1      34.731 -18.473 -19.421  0.00  0.00    +0.213 HD
ENDBRANCH   5  19
BRANCH   5  21
ATOM     21  C   UNL     1      35.056 -20.627 -21.843  0.00  0.00    +0.086 C 
BRANCH  21  22
ATOM     22  C   UNL     1      34.748 -19.511 -22.804  0.00  0.00    -0.017 C 
ATOM     23  C   UNL     1      33.786 -19.700 -23.787  0.00  0.00    -0.001 C 
ATOM     24  C   UNL     1      35.430 -18.306 -22.694  0.00  0.00    -0.001 C 
ATOM     25  C   UNL     1      33.500 -18.665 -24.677  0.00  0.00    +0.036 C 
ATOM     26  C   UNL     1      35.143 -17.271 -23.584  0.00  0.00    +0.036 C 
ATOM     27  C   UNL     1      34.179 -17.451 -24.575  0.00  0.00    +0.134 C 
BRANCH  27  28
ATOM     28  O   UNL     1      33.900 -16.441 -25.445  0.00  0.00    -0.506 OA
ATOM     29  H   UNL     1      33.009 -16.224 -25.640  0.00  0.00    +0.292 HD
ENDBRANCH  27  28
ENDBRANCH  21  22
ENDBRANCH   5  21
BRANCH   8  30
ATOM     30  C   UNL     1      32.413 -22.833 -17.946  0.00  0.00    +0.088 C 
BRANCH  30  31
ATOM     31  C   UNL     1      31.804 -23.064 -16.594  0.00  0.00    -0.015 C 
ATOM     32  C   UNL     1      30.441 -22.859 -16.409  0.00  0.00    -0.004 C 
ATOM     33  C   UNL     1      32.608 -23.482 -15.539  0.00  0.00    -0.004 C 
ATOM     34  C   UNL     1      29.875 -23.074 -15.152  0.00  0.00    -0.000 C 
ATOM     35  C   UNL     1      32.042 -23.698 -14.282  0.00  0.00    -0.000 C 
ATOM     36  C   UNL     1      30.675 -23.493 -14.089  0.00  0.00    -0.000 C 
ENDBRANCH  30  31
ENDBRANCH   8  30
TORSDOF 8
ENDMDL
MODEL 4
REMARK VINA RESULT:     -10.1      2.371      8.611
REMARK  Name = 5287994
REMARK  8 active torsions:
REMARK  status: ('A' for Active; 'I' for Inactive)
REMARK    1  A    between atoms: C_5  and  O_19
REMARK    2  A    between atoms: C_5  and  C_21
REMARK    3  A    between atoms: C_8  and  C_30
REMARK    4  A    between atoms: C_10  and  C_11
REMARK    5  A    between atoms: C_16  and  O_17
REMARK    6  A    between atoms: C_21  and  C_22
REMARK    7  A    between atoms: C_27  and  O_28
REMARK    8  A    between atoms: C_30  and  C_31
REMARK                            x       y       z     vdW  Elec       q    Type
REMARK                         _______ _______ _______ _____ _____    ______ ____
ROOT
ATOM      1  O   UNL     1      38.551 -21.529 -16.146  0.00  0.00    -0.270 OA
ATOM      2  N   UNL     1      36.451 -22.233 -16.881  0.00  0.00    -0.232 N 
ATOM      3  N   UNL     1      35.884 -23.754 -15.303  0.00  0.00    -0.222 NA
ATOM      4  N   UNL     1      34.107 -22.660 -18.277  0.00  0.00    -0.406 NA
ATOM      5  C   UNL     1      37.220 -23.191 -14.936  0.00  0.00    +0.249 C 
ATOM      6  C   UNL     1      35.579 -23.135 -16.395  0.00  0.00    +0.162 C 
ATOM      7  C   UNL     1      37.530 -22.190 -16.050  0.00  0.00    +0.278 C 
ATOM      8  C   UNL     1      34.329 -23.331 -17.185  0.00  0.00    +0.144 C 
ATOM      9  C   UNL     1      36.216 -21.536 -18.025  0.00  0.00    +0.159 C 
ATOM     10  C   UNL     1      35.065 -21.750 -18.693  0.00  0.00    +0.129 C 
ENDROOT
BRANCH  10  11
ATOM     11  C   UNL     1      34.797 -21.009 -19.947  0.00  0.00    +0.027 C 
ATOM     12  C   UNL     1      35.858 -20.579 -20.744  0.00  0.00    +0.005 C 
ATOM     13  C   UNL     1      33.483 -20.741 -20.332  0.00  0.00    +0.005 C 
ATOM     14  C   UNL     1      35.605 -19.880 -21.924  0.00  0.00    +0.037 C 
ATOM     15  C   UNL     1      33.230 -20.043 -21.513  0.00  0.00    +0.037 C 
ATOM     16  C   UNL     1      34.291 -19.613 -22.309  0.00  0.00    +0.134 C 
BRANCH  16  17
ATOM     17  O   UNL     1      34.045 -18.933 -23.462  0.00  0.00    -0.506 OA
ATOM     18  H   UNL     1      33.291 -18.381 -23.530  0.00  0.00    +0.292 HD
ENDBRANCH  16  17
ENDBRANCH  10  11
BRANCH   5  19
ATOM     19  O   UNL     1      38.296 -24.116 -14.885  0.00  0.00    -0.361 OA
ATOM     20  H   UNL     1      38.446 -24.387 -13.965  0.00  0.00    +0.213 HD
ENDBRANCH   5  19
BRANCH   5  21
ATOM     21  C   UNL     1      37.090 -22.479 -13.594  0.00  0.00    +0.086 C 
BRANCH  21  22
ATOM     22  C   UNL     1      36.568 -23.399 -12.524  0.00  0.00    -0.017 C 
ATOM     23  C   UNL     1      37.186 -23.422 -11.281  0.00  0.00    -0.001 C 
ATOM     24  C   UNL     1      35.474 -24.211 -12.793  0.00  0.00    -0.001 C 
ATOM     25  C   UNL     1      36.701 -24.274 -10.288  0.00  0.00    +0.036 C 
ATOM     26  C   UNL     1      34.989 -25.062 -11.801  0.00  0.00    +0.036 C 
ATOM     27  C   UNL     1      35.603 -25.093 -10.548  0.00  0.00    +0.134 C 
BRANCH  27  28
ATOM     28  O   UNL     1      35.130 -25.925  -9.579  0.00  0.00    -0.506 OA
ATOM     29  H   UNL     1      34.846 -25.574  -8.758  0.00  0.00    +0.292 HD
ENDBRANCH  27  28
ENDBRANCH  21  22
ENDBRANCH   5  21
BRANCH   8  30
ATOM     30  C   UNL     1      33.335 -24.331 -16.678  0.00  0.00    +0.088 C 
BRANCH  30  31
ATOM     31  C   UNL     1      32.255 -23.659 -15.883  0.00  0.00    -0.015 C 
ATOM     32  C   UNL     1      31.062 -23.303 -16.504  0.00  0.00    -0.004 C 
ATOM     33  C   UNL     1      32.455 -23.399 -14.532  0.00  0.00    -0.004 C 
ATOM     34  C   UNL     1      30.058 -22.679 -15.764  0.00  0.00    -0.000 C 
ATOM     35  C   UNL     1      31.450 -22.775 -13.792  0.00  0.00    -0.000 C 
ATOM     36  C   UNL     1      30.252 -22.415 -14.409  0.00  0.00    -0.000 C 
ENDBRANCH  30  31
ENDBRANCH   8  30
TORSDOF 8
ENDMDL
MODEL 5
REMARK VINA RESULT:      -9.8      2.245      8.631
REMARK  Name = 5287994
REMARK  8 active torsions:
REMARK  status: ('A' for Active; 'I' for Inactive)
REMARK    1  A    between atoms: C_5  and  O_19
REMARK    2  A    between atoms: C_5  and  C_21
REMARK    3  A    between atoms: C_8  and  C_30
REMARK    4  A    between atoms: C_10  and  C_11
REMARK    5  A    between atoms: C_16  and  O_17
REMARK    6  A    between atoms: C_21  and  C_22
REMARK    7  A    between atoms: C_27  and  O_28
REMARK    8  A    between atoms: C_30  and  C_31
REMARK                            x       y       z     vdW  Elec       q    Type
REMARK                         _______ _______ _______ _____ _____    ______ ____
ROOT
ATOM      1  O   UNL     1      38.512 -21.020 -16.353  0.00  0.00    -0.270 OA
ATOM      2  N   UNL     1      36.568 -21.724 -17.437  0.00  0.00    -0.232 N 
ATOM      3  N   UNL     1      35.871 -23.415 -16.106  0.00  0.00    -0.222 NA
ATOM      4  N   UNL     1      34.460 -22.093 -19.181  0.00  0.00    -0.406 NA
ATOM      5  C   UNL     1      37.114 -22.844 -15.504  0.00  0.00    +0.249 C 
ATOM      6  C   UNL     1      35.685 -22.701 -17.166  0.00  0.00    +0.162 C 
ATOM      7  C   UNL     1      37.522 -21.725 -16.464  0.00  0.00    +0.278 C 
ATOM      8  C   UNL     1      34.565 -22.862 -18.138  0.00  0.00    +0.144 C 
ATOM      9  C   UNL     1      36.455 -20.923 -18.532  0.00  0.00    +0.159 C 
ATOM     10  C   UNL     1      35.418 -21.111 -19.371  0.00  0.00    +0.129 C 
ENDROOT
BRANCH  10  11
ATOM     11  C   UNL     1      35.285 -20.258 -20.574  0.00  0.00    +0.027 C 
ATOM     12  C   UNL     1      36.327 -19.408 -20.946  0.00  0.00    +0.005 C 
ATOM     13  C   UNL     1      34.118 -20.303 -21.337  0.00  0.00    +0.005 C 
ATOM     14  C   UNL     1      36.201 -18.603 -22.078  0.00  0.00    +0.037 C 
ATOM     15  C   UNL     1      33.992 -19.499 -22.470  0.00  0.00    +0.037 C 
ATOM     16  C   UNL     1      35.033 -18.649 -22.841  0.00  0.00    +0.134 C 
BRANCH  16  17
ATOM     17  O   UNL     1      34.912 -17.866 -23.946  0.00  0.00    -0.506 OA
ATOM     18  H   UNL     1      34.738 -18.255 -24.781  0.00  0.00    +0.292 HD
ENDBRANCH  16  17
ENDBRANCH  10  11
BRANCH   5  19
ATOM     19  O   UNL     1      38.219 -23.730 -15.391  0.00  0.00    -0.361 OA
ATOM     20  H   UNL     1      38.268 -24.071 -14.485  0.00  0.00    +0.213 HD
ENDBRANCH   5  19
BRANCH   5  21
ATOM     21  C   UNL     1      36.769 -22.277 -14.132  0.00  0.00    +0.086 C 
BRANCH  21  22
ATOM     22  C   UNL     1      36.582 -23.365 -13.110  0.00  0.00    -0.017 C 
ATOM     23  C   UNL     1      35.309 -23.863 -12.866  0.00  0.00    -0.001 C 
ATOM     24  C   UNL     1      37.685 -23.858 -12.426  0.00  0.00    -0.001 C 
ATOM     25  C   UNL     1      35.136 -24.873 -11.920  0.00  0.00    +0.036 C 
ATOM     26  C   UNL     1      37.512 -24.868 -11.480  0.00  0.00    +0.036 C 
ATOM     27  C   UNL     1      36.238 -25.375 -11.227  0.00  0.00    +0.134 C 
BRANCH  27  28
ATOM     28  O   UNL     1      36.068 -26.360 -10.302  0.00  0.00    -0.506 OA
ATOM     29  H   UNL     1      35.746 -27.200 -10.566  0.00  0.00    +0.292 HD
ENDBRANCH  27  28
ENDBRANCH  21  22
ENDBRANCH   5  21
BRANCH   8  30
ATOM     30  C   UNL     1      33.563 -23.944 -17.872  0.00  0.00    +0.088 C 
BRANCH  30  31
ATOM     31  C   UNL     1      32.651 -23.565 -16.743  0.00  0.00    -0.015 C 
ATOM     32  C   UNL     1      31.449 -22.920 -17.015  0.00  0.00    -0.004 C 
ATOM     33  C   UNL     1      33.014 -23.864 -15.434  0.00  0.00    -0.004 C 
ATOM     34  C   UNL     1      30.601 -22.569 -15.964  0.00  0.00    -0.000 C 
ATOM     35  C   UNL     1      32.166 -23.513 -14.384  0.00  0.00    -0.000 C 
ATOM     36  C   UNL     1      30.959 -22.865 -14.650  0.00  0.00    -0.000 C 
ENDBRANCH  30  31
ENDBRANCH   8  30
TORSDOF 8
ENDMDL
MODEL 6
REMARK VINA RESULT:      -9.4      7.202     13.323
REMARK  Name = 5287994
REMARK  8 active torsions:
REMARK  status: ('A' for Active; 'I' for Inactive)
REMARK    1  A    between atoms: C_5  and  O_19
REMARK    2  A    between atoms: C_5  and  C_21
REMARK    3  A    between atoms: C_8  and  C_30
REMARK    4  A    between atoms: C_10  and  C_11
REMARK    5  A    between atoms: C_16  and  O_17
REMARK    6  A    between atoms: C_21  and  C_22
REMARK    7  A    between atoms: C_27  and  O_28
REMARK    8  A    between atoms: C_30  and  C_31
REMARK                            x       y       z     vdW  Elec       q    Type
REMARK                         _______ _______ _______ _____ _____    ______ ____
ROOT
ATOM      1  O   UNL     1      34.138 -13.907 -26.473  0.00  0.00    -0.270 OA
ATOM      2  N   UNL     1      33.509 -12.933 -24.448  0.00  0.00    -0.232 N 
ATOM      3  N   UNL     1      33.218 -14.743 -23.122  0.00  0.00    -0.222 NA
ATOM      4  N   UNL     1      32.787 -11.206 -22.417  0.00  0.00    -0.406 NA
ATOM      5  C   UNL     1      33.658 -15.228 -24.467  0.00  0.00    +0.249 C 
ATOM      6  C   UNL     1      33.180 -13.459 -23.254  0.00  0.00    +0.162 C 
ATOM      7  C   UNL     1      33.818 -13.953 -25.296  0.00  0.00    +0.278 C 
ATOM      8  C   UNL     1      32.796 -12.486 -22.191  0.00  0.00    +0.144 C 
ATOM      9  C   UNL     1      33.496 -11.592 -24.681  0.00  0.00    +0.159 C 
ATOM     10  C   UNL     1      33.147 -10.761 -23.679  0.00  0.00    +0.129 C 
ENDROOT
BRANCH  10  11
ATOM     11  C   UNL     1      33.115  -9.300 -23.916  0.00  0.00    +0.027 C 
ATOM     12  C   UNL     1      31.921  -8.679 -24.284  0.00  0.00    +0.005 C 
ATOM     13  C   UNL     1      34.278  -8.543 -23.774  0.00  0.00    +0.005 C 
ATOM     14  C   UNL     1      31.890  -7.302 -24.509  0.00  0.00    +0.037 C 
ATOM     15  C   UNL     1      34.247  -7.167 -23.997  0.00  0.00    +0.037 C 
ATOM     16  C   UNL     1      33.054  -6.546 -24.366  0.00  0.00    +0.134 C 
BRANCH  16  17
ATOM     17  O   UNL     1      33.023  -5.204 -24.583  0.00  0.00    -0.506 OA
ATOM     18  H   UNL     1      32.617  -4.636 -23.959  0.00  0.00    +0.292 HD
ENDBRANCH  16  17
ENDBRANCH  10  11
BRANCH   5  19
ATOM     19  O   UNL     1      32.746 -16.071 -25.157  0.00  0.00    -0.361 OA
ATOM     20  H   UNL     1      32.767 -16.958 -24.765  0.00  0.00    +0.213 HD
ENDBRANCH   5  19
BRANCH   5  21
ATOM     21  C   UNL     1      34.996 -15.939 -24.309  0.00  0.00    +0.086 C 
BRANCH  21  22
ATOM     22  C   UNL     1      34.933 -17.019 -23.263  0.00  0.00    -0.017 C 
ATOM     23  C   UNL     1      34.537 -18.300 -23.625  0.00  0.00    -0.001 C 
ATOM     24  C   UNL     1      35.274 -16.721 -21.950  0.00  0.00    -0.001 C 
ATOM     25  C   UNL     1      34.480 -19.302 -22.656  0.00  0.00    +0.036 C 
ATOM     26  C   UNL     1      35.217 -17.723 -20.981  0.00  0.00    +0.036 C 
ATOM     27  C   UNL     1      34.820 -19.013 -21.335  0.00  0.00    +0.134 C 
BRANCH  27  28
ATOM     28  O   UNL     1      34.763 -19.991 -20.389  0.00  0.00    -0.506 OA
ATOM     29  H   UNL     1      34.625 -20.882 -20.644  0.00  0.00    +0.292 HD
ENDBRANCH  27  28
ENDBRANCH  21  22
ENDBRANCH   5  21
BRANCH   8  30
ATOM     30  C   UNL     1      32.419 -13.036 -20.849  0.00  0.00    +0.088 C 
BRANCH  30  31
ATOM     31  C   UNL     1      31.885 -11.955 -19.956  0.00  0.00    -0.015 C 
ATOM     32  C   UNL     1      32.486 -11.720 -18.724  0.00  0.00    -0.004 C 
ATOM     33  C   UNL     1      30.796 -11.196 -20.370  0.00  0.00    -0.004 C 
ATOM     34  C   UNL     1      31.990 -10.714 -17.895  0.00  0.00    -0.000 C 
ATOM     35  C   UNL     1      30.300 -10.190 -19.540  0.00  0.00    -0.000 C 
ATOM     36  C   UNL     1      30.897  -9.949 -18.303  0.00  0.00    -0.000 C 
ENDBRANCH  30  31
ENDBRANCH   8  30
TORSDOF 8
ENDMDL
MODEL 7
REMARK VINA RESULT:      -9.3      9.650     14.124
REMARK  Name = 5287994
REMARK  8 active torsions:
REMARK  status: ('A' for Active; 'I' for Inactive)
REMARK    1  A    between atoms: C_5  and  O_19
REMARK    2  A    between atoms: C_5  and  C_21
REMARK    3  A    between atoms: C_8  and  C_30
REMARK    4  A    between atoms: C_10  and  C_11
REMARK    5  A    between atoms: C_16  and  O_17
REMARK    6  A    between atoms: C_21  and  C_22
REMARK    7  A    between atoms: C_27  and  O_28
REMARK    8  A    between atoms: C_30  and  C_31
REMARK                            x       y       z     vdW  Elec       q    Type
REMARK                         _______ _______ _______ _____ _____    ______ ____
ROOT
ATOM      1  O   UNL     1      35.788  -9.101 -24.856  0.00  0.00    -0.270 OA
ATOM      2  N   UNL     1      34.088 -10.285 -23.780  0.00  0.00    -0.232 N 
ATOM      3  N   UNL     1      32.773  -8.618 -22.999  0.00  0.00    -0.222 NA
ATOM      4  N   UNL     1      32.462 -12.223 -22.672  0.00  0.00    -0.406 NA
ATOM      5  C   UNL     1      33.906  -7.993 -23.747  0.00  0.00    +0.249 C 
ATOM      6  C   UNL     1      32.999  -9.886 -23.099  0.00  0.00    +0.162 C 
ATOM      7  C   UNL     1      34.745  -9.178 -24.226  0.00  0.00    +0.278 C 
ATOM      8  C   UNL     1      32.154 -10.969 -22.519  0.00  0.00    +0.144 C 
ATOM      9  C   UNL     1      34.409 -11.599 -23.936  0.00  0.00    +0.159 C 
ATOM     10  C   UNL     1      33.603 -12.534 -23.395  0.00  0.00    +0.129 C 
ENDROOT
BRANCH  10  11
ATOM     11  C   UNL     1      33.941 -13.967 -23.543  0.00  0.00    +0.027 C 
ATOM     12  C   UNL     1      33.554 -14.661 -24.690  0.00  0.00    +0.005 C 
ATOM     13  C   UNL     1      34.647 -14.626 -22.537  0.00  0.00    +0.005 C 
ATOM     14  C   UNL     1      33.872 -16.012 -24.829  0.00  0.00    +0.037 C 
ATOM     15  C   UNL     1      34.967 -15.977 -22.676  0.00  0.00    +0.037 C 
ATOM     16  C   UNL     1      34.578 -16.670 -23.822  0.00  0.00    +0.134 C 
BRANCH  16  17
ATOM     17  O   UNL     1      34.890 -17.987 -23.960  0.00  0.00    -0.506 OA
ATOM     18  H   UNL     1      35.751 -18.240 -24.230  0.00  0.00    +0.292 HD
ENDBRANCH  16  17
ENDBRANCH  10  11
BRANCH   5  19
ATOM     19  O   UNL     1      34.761  -7.145 -22.994  0.00  0.00    -0.361 OA
ATOM     20  H   UNL     1      35.488  -7.668 -22.621  0.00  0.00    +0.213 HD
ENDBRANCH   5  19
BRANCH   5  21
ATOM     21  C   UNL     1      33.335  -7.224 -24.932  0.00  0.00    +0.086 C 
BRANCH  21  22
ATOM     22  C   UNL     1      34.421  -6.603 -25.769  0.00  0.00    -0.017 C 
ATOM     23  C   UNL     1      34.531  -6.945 -27.110  0.00  0.00    -0.001 C 
ATOM     24  C   UNL     1      35.297  -5.695 -25.189  0.00  0.00    -0.001 C 
ATOM     25  C   UNL     1      35.536  -6.368 -27.886  0.00  0.00    +0.036 C 
ATOM     26  C   UNL     1      36.302  -5.118 -25.966  0.00  0.00    +0.036 C 
ATOM     27  C   UNL     1      36.421  -5.455 -27.314  0.00  0.00    +0.134 C 
BRANCH  27  28
ATOM     28  O   UNL     1      37.403  -4.893 -28.071  0.00  0.00    -0.506 OA
ATOM     29  H   UNL     1      37.671  -4.010 -27.911  0.00  0.00    +0.292 HD
ENDBRANCH  27  28
ENDBRANCH  21  22
ENDBRANCH   5  21
BRANCH   8  30
ATOM     30  C   UNL     1      30.934 -10.562 -21.750  0.00  0.00    +0.088 C 
BRANCH  30  31
ATOM     31  C   UNL     1      31.294 -10.136 -20.357  0.00  0.00    -0.015 C 
ATOM     32  C   UNL     1      31.411 -11.092 -19.354  0.00  0.00    -0.004 C 
ATOM     33  C   UNL     1      31.510  -8.791 -20.083  0.00  0.00    -0.004 C 
ATOM     34  C   UNL     1      31.747 -10.695 -18.059  0.00  0.00    -0.000 C 
ATOM     35  C   UNL     1      31.845  -8.394 -18.788  0.00  0.00    -0.000 C 
ATOM     36  C   UNL     1      31.964  -9.347 -17.777  0.00  0.00    -0.000 C 
ENDBRANCH  30  31
ENDBRANCH   8  30
TORSDOF 8
ENDMDL
MODEL 8
REMARK VINA RESULT:      -8.8     13.514     18.491
REMARK  Name = 5287994
REMARK  8 active torsions:
REMARK  status: ('A' for Active; 'I' for Inactive)
REMARK    1  A    between atoms: C_5  and  O_19
REMARK    2  A    between atoms: C_5  and  C_21
REMARK    3  A    between atoms: C_8  and  C_30
REMARK    4  A    between atoms: C_10  and  C_11
REMARK    5  A    between atoms: C_16  and  O_17
REMARK    6  A    between atoms: C_21  and  C_22
REMARK    7  A    between atoms: C_27  and  O_28
REMARK    8  A    between atoms: C_30  and  C_31
REMARK                            x       y       z     vdW  Elec       q    Type
REMARK                         _______ _______ _______ _____ _____    ______ ____
ROOT
ATOM      1  O   UNL     1      30.486  -3.173 -21.976  0.00  0.00    -0.270 OA
ATOM      2  N   UNL     1      31.275  -5.156 -22.921  0.00  0.00    -0.232 N 
ATOM      3  N   UNL     1      31.569  -4.564 -25.085  0.00  0.00    -0.222 NA
ATOM      4  N   UNL     1      32.091  -7.747 -23.414  0.00  0.00    -0.406 NA
ATOM      5  C   UNL     1      31.084  -3.359 -24.344  0.00  0.00    +0.249 C 
ATOM      6  C   UNL     1      31.630  -5.481 -24.177  0.00  0.00    +0.162 C 
ATOM      7  C   UNL     1      30.901  -3.846 -22.906  0.00  0.00    +0.278 C 
ATOM      8  C   UNL     1      32.062  -6.892 -24.393  0.00  0.00    +0.144 C 
ATOM      9  C   UNL     1      31.305  -6.055 -21.900  0.00  0.00    +0.159 C 
ATOM     10  C   UNL     1      31.711  -7.315 -22.154  0.00  0.00    +0.129 C 
ENDROOT
BRANCH  10  11
ATOM     11  C   UNL     1      31.738  -8.311 -21.059  0.00  0.00    +0.027 C 
ATOM     12  C   UNL     1      31.948  -7.896 -19.743  0.00  0.00    +0.005 C 
ATOM     13  C   UNL     1      31.555  -9.665 -21.341  0.00  0.00    +0.005 C 
ATOM     14  C   UNL     1      31.974  -8.835 -18.711  0.00  0.00    +0.037 C 
ATOM     15  C   UNL     1      31.581 -10.603 -20.309  0.00  0.00    +0.037 C 
ATOM     16  C   UNL     1      31.791 -10.188 -18.995  0.00  0.00    +0.134 C 
BRANCH  16  17
ATOM     17  O   UNL     1      31.815 -11.103 -17.988  0.00  0.00    -0.506 OA
ATOM     18  H   UNL     1      32.034 -10.836 -17.116  0.00  0.00    +0.292 HD
ENDBRANCH  16  17
ENDBRANCH  10  11
BRANCH   5  19
ATOM     19  O   UNL     1      29.841  -2.821 -24.772  0.00  0.00    -0.361 OA
ATOM     20  H   UNL     1      29.611  -3.188 -25.640  0.00  0.00    +0.213 HD
ENDBRANCH   5  19
BRANCH   5  21
ATOM     21  C   UNL     1      32.161  -2.284 -24.416  0.00  0.00    +0.086 C 
BRANCH  21  22
ATOM     22  C   UNL     1      32.767  -2.193 -25.790  0.00  0.00    -0.017 C 
ATOM     23  C   UNL     1      34.124  -2.435 -25.957  0.00  0.00    -0.001 C 
ATOM     24  C   UNL     1      31.961  -1.869 -26.873  0.00  0.00    -0.001 C 
ATOM     25  C   UNL     1      34.686  -2.352 -27.231  0.00  0.00    +0.036 C 
ATOM     26  C   UNL     1      32.523  -1.786 -28.147  0.00  0.00    +0.036 C 
ATOM     27  C   UNL     1      33.885  -2.027 -28.325  0.00  0.00    +0.134 C 
BRANCH  27  28
ATOM     28  O   UNL     1      34.434  -1.945 -29.569  0.00  0.00    -0.506 OA
ATOM     29  H   UNL     1      34.935  -2.661 -29.908  0.00  0.00    +0.292 HD
ENDBRANCH  27  28
ENDBRANCH  21  22
ENDBRANCH   5  21
BRANCH   8  30
ATOM     30  C   UNL     1      32.461  -7.293 -25.780  0.00  0.00    +0.088 C 
BRANCH  30  31
ATOM     31  C   UNL     1      33.786  -6.696 -26.152  0.00  0.00    -0.015 C 
ATOM     32  C   UNL     1      34.646  -6.253 -25.153  0.00  0.00    -0.004 C 
ATOM     33  C   UNL     1      34.143  -6.592 -27.492  0.00  0.00    -0.004 C 
ATOM     34  C   UNL     1      35.879  -5.699 -25.499  0.00  0.00    -0.000 C 
ATOM     35  C   UNL     1      35.375  -6.038 -27.838  0.00  0.00    -0.000 C 
ATOM     36  C   UNL     1      36.243  -5.591 -26.841  0.00  0.00    -0.000 C 
ENDBRANCH  30  31
ENDBRANCH   8  30
TORSDOF 8
ENDMDL
MODEL 9
REMARK VINA RESULT:      -8.6     10.429     16.654
REMARK  Name = 5287994
REMARK  8 active torsions:
REMARK  status: ('A' for Active; 'I' for Inactive)
REMARK    1  A    between atoms: C_5  and  O_19
REMARK    2  A    between atoms: C_5  and  C_21
REMARK    3  A    between atoms: C_8  and  C_30
REMARK    4  A    between atoms: C_10  and  C_11
REMARK    5  A    between atoms: C_16  and  O_17
REMARK    6  A    between atoms: C_21  and  C_22
REMARK    7  A    between atoms: C_27  and  O_28
REMARK    8  A    between atoms: C_30  and  C_31
REMARK                            x       y       z     vdW  Elec       q    Type
REMARK                         _______ _______ _______ _____ _____    ______ ____
ROOT
ATOM      1  O   UNL     1      31.081 -10.680 -20.882  0.00  0.00    -0.270 OA
ATOM      2  N   UNL     1      32.277  -9.175 -22.206  0.00  0.00    -0.232 N 
ATOM      3  N   UNL     1      33.767 -10.532 -23.235  0.00  0.00    -0.222 NA
ATOM      4  N   UNL     1      33.303  -6.936 -23.453  0.00  0.00    -0.406 NA
ATOM      5  C   UNL     1      32.902 -11.383 -22.362  0.00  0.00    +0.249 C 
ATOM      6  C   UNL     1      33.309  -9.338 -23.052  0.00  0.00    +0.162 C 
ATOM      7  C   UNL     1      31.940 -10.395 -21.700  0.00  0.00    +0.278 C 
ATOM      8  C   UNL     1      33.829  -8.099 -23.700  0.00  0.00    +0.144 C 
ATOM      9  C   UNL     1      31.731  -7.955 -21.948  0.00  0.00    +0.159 C 
ATOM     10  C   UNL     1      32.238  -6.872 -22.569  0.00  0.00    +0.129 C 
ENDROOT
BRANCH  10  11
ATOM     11  C   UNL     1      31.666  -5.535 -22.293  0.00  0.00    +0.027 C 
ATOM     12  C   UNL     1      30.606  -5.401 -21.395  0.00  0.00    +0.005 C 
ATOM     13  C   UNL     1      32.184  -4.408 -22.930  0.00  0.00    +0.005 C 
ATOM     14  C   UNL     1      30.066  -4.141 -21.136  0.00  0.00    +0.037 C 
ATOM     15  C   UNL     1      31.645  -3.148 -22.670  0.00  0.00    +0.037 C 
ATOM     16  C   UNL     1      30.586  -3.014 -21.774  0.00  0.00    +0.134 C 
BRANCH  16  17
ATOM     17  O   UNL     1      30.060  -1.786 -21.519  0.00  0.00    -0.506 OA
ATOM     18  H   UNL     1      29.195  -1.575 -21.810  0.00  0.00    +0.292 HD
ENDBRANCH  16  17
ENDBRANCH  10  11
BRANCH   5  19
ATOM     19  O   UNL     1      33.564 -12.090 -21.323  0.00  0.00    -0.361 OA
ATOM     20  H   UNL     1      33.954 -12.903 -21.683  0.00  0.00    +0.213 HD
ENDBRANCH   5  19
BRANCH   5  21
ATOM     21  C   UNL     1      32.141 -12.364 -23.246  0.00  0.00    +0.086 C 
BRANCH  21  22
ATOM     22  C   UNL     1      32.950 -13.600 -23.531  0.00  0.00    -0.017 C 
ATOM     23  C   UNL     1      33.051 -14.066 -24.835  0.00  0.00    -0.001 C 
ATOM     24  C   UNL     1      33.587 -14.257 -22.487  0.00  0.00    -0.001 C 
ATOM     25  C   UNL     1      33.802 -15.211 -25.100  0.00  0.00    +0.036 C 
ATOM     26  C   UNL     1      34.339 -15.402 -22.752  0.00  0.00    +0.036 C 
ATOM     27  C   UNL     1      34.445 -15.879 -24.058  0.00  0.00    +0.134 C 
BRANCH  27  28
ATOM     28  O   UNL     1      35.178 -16.997 -24.317  0.00  0.00    -0.506 OA
ATOM     29  H   UNL     1      35.019 -17.491 -25.097  0.00  0.00    +0.292 HD
ENDBRANCH  27  28
ENDBRANCH  21  22
ENDBRANCH   5  21
BRANCH   8  30
ATOM     30  C   UNL     1      34.982  -8.240 -24.646  0.00  0.00    +0.088 C 
BRANCH  30  31
ATOM     31  C   UNL     1      35.022  -7.098 -25.618  0.00  0.00    -0.015 C 
ATOM     32  C   UNL     1      35.783  -5.971 -25.326  0.00  0.00    -0.004 C 
ATOM     33  C   UNL     1      34.299  -7.178 -26.803  0.00  0.00    -0.004 C 
ATOM     34  C   UNL     1      35.820  -4.911 -26.232  0.00  0.00    -0.000 C 
ATOM     35  C   UNL     1      34.336  -6.117 -27.708  0.00  0.00    -0.000 C 
ATOM     36  C   UNL     1      35.097  -4.983 -27.422  0.00  0.00    -0.000 C 
ENDBRANCH  30  31
ENDBRANCH   8  30
TORSDOF 8
ENDMDL
