MODEL 1
REMARK VINA RESULT:     -11.9      0.000      0.000
REMARK  Name = 5288527
REMARK  4 active torsions:
REMARK  status: ('A' for Active; 'I' for Inactive)
REMARK    1  A    between atoms: N_1  and  C_18
REMARK    2  A    between atoms: C_4  and  C_11
REMARK    3  A    between atoms: C_19  and  S_24
REMARK    4  A    between atoms: S_24  and  N_27
REMARK                            x       y       z     vdW  Elec       q    Type
REMARK                         _______ _______ _______ _____ _____    ______ ____
ROOT
ATOM      1  N   UNL     1      32.570 -24.817 -12.771  0.00  0.00    -0.247 N 
ATOM      2  N   UNL     1      34.348 -23.988 -14.057  0.00  0.00    -0.336 NA
ATOM      3  N   UNL     1      34.754 -25.127 -11.973  0.00  0.00    -0.170 NA
ATOM      4  C   UNL     1      35.681 -23.834 -14.184  0.00  0.00    +0.161 C 
ATOM      5  C   UNL     1      33.959 -24.635 -12.942  0.00  0.00    +0.149 C 
ATOM      6  C   UNL     1      36.602 -24.290 -13.268  0.00  0.00    +0.056 C 
ATOM      7  C   UNL     1      36.075 -24.936 -12.168  0.00  0.00    +0.114 C 
ATOM      8  H   UNL     1      32.332 -25.295 -11.943  0.00  0.00    +0.165 HD
ENDROOT
BRANCH   4  11
ATOM      9  N   UNL     1      35.306 -22.942 -16.487  0.00  0.00    -0.246 N 
ATOM     10  N   UNL     1      37.279 -21.988 -16.935  0.00  0.00    -0.227 NA
ATOM     11  C   UNL     1      36.093 -23.139 -15.381  0.00  0.00    +0.107 C 
ATOM     12  C   UNL     1      36.075 -22.234 -17.407  0.00  0.00    +0.139 C 
ATOM     13  C   UNL     1      37.296 -22.545 -15.681  0.00  0.00    +0.118 C 
ATOM     14  C   UNL     1      33.992 -23.337 -16.721  0.00  0.00    +0.071 C 
ATOM     15  C   UNL     1      35.458 -21.910 -18.651  0.00  0.00    +0.035 C 
ATOM     16  C   UNL     1      33.419 -23.028 -17.895  0.00  0.00    +0.017 C 
ATOM     17  C   UNL     1      34.187 -22.290 -18.886  0.00  0.00    +0.004 C 
ENDBRANCH   4  11
BRANCH   1  18
ATOM     18  C   UNL     1      31.458 -24.451 -13.552  0.00  0.00    +0.058 C 
ATOM     19  C   UNL     1      29.252 -23.723 -15.102  0.00  0.00    +0.122 C 
ATOM     20  C   UNL     1      30.475 -25.395 -13.859  0.00  0.00    +0.017 C 
ATOM     21  C   UNL     1      31.333 -23.142 -14.023  0.00  0.00    +0.017 C 
ATOM     22  C   UNL     1      29.374 -25.031 -14.633  0.00  0.00    +0.021 C 
ATOM     23  C   UNL     1      30.232 -22.779 -14.797  0.00  0.00    +0.021 C 
BRANCH  19  24
ATOM     24  S   UNL     1      27.873 -23.268 -16.072  0.00  0.00    +0.057 S 
ATOM     25  O   UNL     1      26.722 -23.123 -15.193  0.00  0.00    -0.153 OA
ATOM     26  O   UNL     1      28.262 -22.167 -16.941  0.00  0.00    -0.153 OA
BRANCH  24  27
ATOM     27  N   UNL     1      27.667 -24.672 -17.025  0.00  0.00    -0.203 NA
ATOM     28  H   UNL     1      28.096 -25.467 -16.554  0.00  0.00    +0.144 HD
ATOM     29  H   UNL     1      28.109 -24.534 -17.934  0.00  0.00    +0.144 HD
ENDBRANCH  24  27
ENDBRANCH  19  24
ENDBRANCH   1  18
TORSDOF 4
ENDMDL
MODEL 2
REMARK VINA RESULT:     -10.8      4.236      6.652
REMARK  Name = 5288527
REMARK  4 active torsions:
REMARK  status: ('A' for Active; 'I' for Inactive)
REMARK    1  A    between atoms: N_1  and  C_18
REMARK    2  A    between atoms: C_4  and  C_11
REMARK    3  A    between atoms: C_19  and  S_24
REMARK    4  A    between atoms: S_24  and  N_27
REMARK                            x       y       z     vdW  Elec       q    Type
REMARK                         _______ _______ _______ _____ _____    ______ ____
ROOT
ATOM      1  N   UNL     1      32.436 -22.599 -17.975  0.00  0.00    -0.247 N 
ATOM      2  N   UNL     1      33.970 -23.241 -16.321  0.00  0.00    -0.336 NA
ATOM      3  N   UNL     1      31.670 -23.952 -16.219  0.00  0.00    -0.170 NA
ATOM      4  C   UNL     1      34.188 -23.922 -15.178  0.00  0.00    +0.161 C 
ATOM      5  C   UNL     1      32.706 -23.298 -16.779  0.00  0.00    +0.149 C 
ATOM      6  C   UNL     1      33.218 -24.631 -14.505  0.00  0.00    +0.056 C 
ATOM      7  C   UNL     1      31.963 -24.611 -15.078  0.00  0.00    +0.114 C 
ATOM      8  H   UNL     1      31.500 -22.668 -18.273  0.00  0.00    +0.165 HD
ENDROOT
BRANCH   4  11
ATOM      9  N   UNL     1      36.383 -24.933 -14.550  0.00  0.00    -0.246 N 
ATOM     10  N   UNL     1      37.540 -23.139 -13.883  0.00  0.00    -0.227 NA
ATOM     11  C   UNL     1      35.545 -23.857 -14.690  0.00  0.00    +0.107 C 
ATOM     12  C   UNL     1      37.589 -24.443 -14.054  0.00  0.00    +0.139 C 
ATOM     13  C   UNL     1      36.278 -22.770 -14.275  0.00  0.00    +0.118 C 
ATOM     14  C   UNL     1      36.152 -26.278 -14.825  0.00  0.00    +0.071 C 
ATOM     15  C   UNL     1      38.627 -25.393 -13.825  0.00  0.00    +0.035 C 
ATOM     16  C   UNL     1      37.135 -27.166 -14.607  0.00  0.00    +0.017 C 
ATOM     17  C   UNL     1      38.411 -26.696 -14.089  0.00  0.00    +0.004 C 
ENDBRANCH   4  11
BRANCH   1  18
ATOM     18  C   UNL     1      33.244 -21.821 -18.827  0.00  0.00    +0.058 C 
ATOM     19  C   UNL     1      34.844 -20.278 -20.516  0.00  0.00    +0.122 C 
ATOM     20  C   UNL     1      34.630 -21.989 -18.824  0.00  0.00    +0.017 C 
ATOM     21  C   UNL     1      32.660 -20.880 -19.678  0.00  0.00    +0.017 C 
ATOM     22  C   UNL     1      35.429 -21.218 -19.667  0.00  0.00    +0.021 C 
ATOM     23  C   UNL     1      33.459 -20.109 -20.521  0.00  0.00    +0.021 C 
BRANCH  19  24
ATOM     24  S   UNL     1      35.844 -19.312 -21.572  0.00  0.00    +0.057 S 
ATOM     25  O   UNL     1      37.236 -19.507 -21.190  0.00  0.00    -0.153 OA
ATOM     26  O   UNL     1      35.432 -19.552 -22.948  0.00  0.00    -0.153 OA
BRANCH  24  27
ATOM     27  N   UNL     1      35.364 -17.735 -21.124  0.00  0.00    -0.203 NA
ATOM     28  H   UNL     1      36.096 -17.072 -21.379  0.00  0.00    +0.144 HD
ATOM     29  H   UNL     1      35.210 -17.700 -20.115  0.00  0.00    +0.144 HD
ENDBRANCH  24  27
ENDBRANCH  19  24
ENDBRANCH   1  18
TORSDOF 4
ENDMDL
MODEL 3
REMARK VINA RESULT:     -10.7      4.278      6.947
REMARK  Name = 5288527
REMARK  4 active torsions:
REMARK  status: ('A' for Active; 'I' for Inactive)
REMARK    1  A    between atoms: N_1  and  C_18
REMARK    2  A    between atoms: C_4  and  C_11
REMARK    3  A    between atoms: C_19  and  S_24
REMARK    4  A    between atoms: S_24  and  N_27
REMARK                            x       y       z     vdW  Elec       q    Type
REMARK                         _______ _______ _______ _____ _____    ______ ____
ROOT
ATOM      1  N   UNL     1      32.677 -22.555 -18.223  0.00  0.00    -0.247 N 
ATOM      2  N   UNL     1      34.073 -23.079 -16.412  0.00  0.00    -0.336 NA
ATOM      3  N   UNL     1      31.829 -23.948 -16.536  0.00  0.00    -0.170 NA
ATOM      4  C   UNL     1      34.218 -23.736 -15.244  0.00  0.00    +0.161 C 
ATOM      5  C   UNL     1      32.869 -23.227 -16.996  0.00  0.00    +0.149 C 
ATOM      6  C   UNL     1      33.235 -24.507 -14.664  0.00  0.00    +0.056 C 
ATOM      7  C   UNL     1      32.047 -24.577 -15.363  0.00  0.00    +0.114 C 
ATOM      8  H   UNL     1      31.783 -22.691 -18.614  0.00  0.00    +0.165 HD
ENDROOT
BRANCH   4  11
ATOM      9  N   UNL     1      35.781 -23.814 -13.297  0.00  0.00    -0.246 N 
ATOM     10  N   UNL     1      37.703 -23.147 -14.227  0.00  0.00    -0.227 NA
ATOM     11  C   UNL     1      35.510 -23.574 -14.621  0.00  0.00    +0.107 C 
ATOM     12  C   UNL     1      37.133 -23.539 -13.106  0.00  0.00    +0.139 C 
ATOM     13  C   UNL     1      36.705 -23.168 -15.167  0.00  0.00    +0.118 C 
ATOM     14  C   UNL     1      34.931 -24.246 -12.283  0.00  0.00    +0.071 C 
ATOM     15  C   UNL     1      37.649 -23.719 -11.790  0.00  0.00    +0.035 C 
ATOM     16  C   UNL     1      35.425 -24.413 -11.046  0.00  0.00    +0.017 C 
ATOM     17  C   UNL     1      36.833 -24.136 -10.803  0.00  0.00    +0.004 C 
ENDBRANCH   4  11
BRANCH   1  18
ATOM     18  C   UNL     1      33.513 -21.728 -18.997  0.00  0.00    +0.058 C 
ATOM     19  C   UNL     1      35.169 -20.088 -20.535  0.00  0.00    +0.122 C 
ATOM     20  C   UNL     1      34.900 -21.862 -18.917  0.00  0.00    +0.017 C 
ATOM     21  C   UNL     1      32.956 -20.772 -19.850  0.00  0.00    +0.017 C 
ATOM     22  C   UNL     1      35.727 -21.043 -19.684  0.00  0.00    +0.021 C 
ATOM     23  C   UNL     1      33.783 -19.953 -20.617  0.00  0.00    +0.021 C 
BRANCH  19  24
ATOM     24  S   UNL     1      36.204 -19.062 -21.495  0.00  0.00    +0.057 S 
ATOM     25  O   UNL     1      37.556 -19.143 -20.960  0.00  0.00    -0.153 OA
ATOM     26  O   UNL     1      35.966 -19.350 -22.902  0.00  0.00    -0.153 OA
BRANCH  24  27
ATOM     27  N   UNL     1      35.560 -17.520 -21.135  0.00  0.00    -0.203 NA
ATOM     28  H   UNL     1      35.710 -16.896 -21.927  0.00  0.00    +0.144 HD
ATOM     29  H   UNL     1      36.026 -17.141 -20.310  0.00  0.00    +0.144 HD
ENDBRANCH  24  27
ENDBRANCH  19  24
ENDBRANCH   1  18
TORSDOF 4
ENDMDL
MODEL 4
REMARK VINA RESULT:     -10.2      9.318     12.461
REMARK  Name = 5288527
REMARK  4 active torsions:
REMARK  status: ('A' for Active; 'I' for Inactive)
REMARK    1  A    between atoms: N_1  and  C_18
REMARK    2  A    between atoms: C_4  and  C_11
REMARK    3  A    between atoms: C_19  and  S_24
REMARK    4  A    between atoms: S_24  and  N_27
REMARK                            x       y       z     vdW  Elec       q    Type
REMARK                         _______ _______ _______ _____ _____    ______ ____
ROOT
ATOM      1  N   UNL     1      34.607 -17.137 -24.466  0.00  0.00    -0.247 N 
ATOM      2  N   UNL     1      33.681 -15.311 -23.322  0.00  0.00    -0.336 NA
ATOM      3  N   UNL     1      33.931 -15.272 -25.718  0.00  0.00    -0.170 NA
ATOM      4  C   UNL     1      33.149 -14.075 -23.399  0.00  0.00    +0.161 C 
ATOM      5  C   UNL     1      34.045 -15.843 -24.504  0.00  0.00    +0.149 C 
ATOM      6  C   UNL     1      32.976 -13.381 -24.576  0.00  0.00    +0.056 C 
ATOM      7  C   UNL     1      33.390 -14.036 -25.717  0.00  0.00    +0.114 C 
ATOM      8  H   UNL     1      34.858 -17.486 -25.352  0.00  0.00    +0.165 HD
ENDROOT
BRANCH   4  11
ATOM      9  N   UNL     1      32.358 -12.211 -21.937  0.00  0.00    -0.246 N 
ATOM     10  N   UNL     1      32.281 -13.203 -19.933  0.00  0.00    -0.227 NA
ATOM     11  C   UNL     1      32.761 -13.508 -22.129  0.00  0.00    +0.107 C 
ATOM     12  C   UNL     1      32.076 -12.074 -20.580  0.00  0.00    +0.139 C 
ATOM     13  C   UNL     1      32.704 -14.094 -20.886  0.00  0.00    +0.118 C 
ATOM     14  C   UNL     1      32.230 -11.176 -22.859  0.00  0.00    +0.071 C 
ATOM     15  C   UNL     1      31.633 -10.792 -20.138  0.00  0.00    +0.035 C 
ATOM     16  C   UNL     1      31.813  -9.973 -22.435  0.00  0.00    +0.017 C 
ATOM     17  C   UNL     1      31.508  -9.787 -21.025  0.00  0.00    +0.004 C 
ENDBRANCH   4  11
BRANCH   1  18
ATOM     18  C   UNL     1      34.877 -18.028 -23.410  0.00  0.00    +0.058 C 
ATOM     19  C   UNL     1      35.414 -19.796 -21.316  0.00  0.00    +0.122 C 
ATOM     20  C   UNL     1      35.868 -17.725 -22.474  0.00  0.00    +0.017 C 
ATOM     21  C   UNL     1      34.156 -19.219 -23.296  0.00  0.00    +0.017 C 
ATOM     22  C   UNL     1      36.136 -18.608 -21.429  0.00  0.00    +0.021 C 
ATOM     23  C   UNL     1      34.424 -20.101 -22.251  0.00  0.00    +0.021 C 
BRANCH  19  24
ATOM     24  S   UNL     1      35.749 -20.902 -20.008  0.00  0.00    +0.057 S 
ATOM     25  O   UNL     1      36.065 -22.205 -20.578  0.00  0.00    -0.153 OA
ATOM     26  O   UNL     1      36.687 -20.267 -19.093  0.00  0.00    -0.153 OA
BRANCH  24  27
ATOM     27  N   UNL     1      34.218 -20.988 -19.252  0.00  0.00    -0.203 NA
ATOM     28  H   UNL     1      33.489 -20.822 -19.944  0.00  0.00    +0.144 HD
ATOM     29  H   UNL     1      34.161 -20.279 -18.520  0.00  0.00    +0.144 HD
ENDBRANCH  24  27
ENDBRANCH  19  24
ENDBRANCH   1  18
TORSDOF 4
ENDMDL
MODEL 5
REMARK VINA RESULT:     -10.0     13.119     15.407
REMARK  Name = 5288527
REMARK  4 active torsions:
REMARK  status: ('A' for Active; 'I' for Inactive)
REMARK    1  A    between atoms: N_1  and  C_18
REMARK    2  A    between atoms: C_4  and  C_11
REMARK    3  A    between atoms: C_19  and  S_24
REMARK    4  A    between atoms: S_24  and  N_27
REMARK                            x       y       z     vdW  Elec       q    Type
REMARK                         _______ _______ _______ _____ _____    ______ ____
ROOT
ATOM      1  N   UNL     1      32.472 -12.552 -20.267  0.00  0.00    -0.247 N 
ATOM      2  N   UNL     1      32.192 -10.430 -21.227  0.00  0.00    -0.336 NA
ATOM      3  N   UNL     1      31.852 -10.775 -18.867  0.00  0.00    -0.170 NA
ATOM      4  C   UNL     1      31.887  -9.130 -21.039  0.00  0.00    +0.161 C 
ATOM      5  C   UNL     1      32.156 -11.184 -20.113  0.00  0.00    +0.149 C 
ATOM      6  C   UNL     1      31.558  -8.583 -19.819  0.00  0.00    +0.056 C 
ATOM      7  C   UNL     1      31.557  -9.463 -18.756  0.00  0.00    +0.114 C 
ATOM      8  H   UNL     1      32.433 -13.065 -19.428  0.00  0.00    +0.165 HD
ENDROOT
BRANCH   4  11
ATOM      9  N   UNL     1      33.061  -7.779 -22.781  0.00  0.00    -0.246 N 
ATOM     10  N   UNL     1      31.365  -7.169 -24.106  0.00  0.00    -0.227 NA
ATOM     11  C   UNL     1      31.926  -8.325 -22.237  0.00  0.00    +0.107 C 
ATOM     12  C   UNL     1      32.666  -7.083 -23.920  0.00  0.00    +0.139 C 
ATOM     13  C   UNL     1      30.902  -7.937 -23.068  0.00  0.00    +0.118 C 
ATOM     14  C   UNL     1      34.380  -7.858 -22.343  0.00  0.00    +0.071 C 
ATOM     15  C   UNL     1      33.690  -6.423 -24.662  0.00  0.00    +0.035 C 
ATOM     16  C   UNL     1      35.338  -7.234 -23.047  0.00  0.00    +0.017 C 
ATOM     17  C   UNL     1      34.969  -6.494 -24.244  0.00  0.00    +0.004 C 
ENDBRANCH   4  11
BRANCH   1  18
ATOM     18  C   UNL     1      32.832 -13.326 -21.387  0.00  0.00    +0.058 C 
ATOM     19  C   UNL     1      33.545 -14.861 -23.608  0.00  0.00    +0.122 C 
ATOM     20  C   UNL     1      33.772 -14.350 -21.257  0.00  0.00    +0.017 C 
ATOM     21  C   UNL     1      32.249 -13.072 -22.630  0.00  0.00    +0.017 C 
ATOM     22  C   UNL     1      34.128 -15.117 -22.366  0.00  0.00    +0.021 C 
ATOM     23  C   UNL     1      32.605 -13.839 -23.739  0.00  0.00    +0.021 C 
BRANCH  19  24
ATOM     24  S   UNL     1      33.991 -15.820 -24.997  0.00  0.00    +0.057 S 
ATOM     25  O   UNL     1      33.740 -15.034 -26.196  0.00  0.00    -0.153 OA
ATOM     26  O   UNL     1      35.313 -16.384 -24.765  0.00  0.00    -0.153 OA
BRANCH  24  27
ATOM     27  N   UNL     1      32.836 -17.077 -24.910  0.00  0.00    -0.203 NA
ATOM     28  H   UNL     1      32.295 -16.982 -24.051  0.00  0.00    +0.144 HD
ATOM     29  H   UNL     1      33.315 -17.979 -24.913  0.00  0.00    +0.144 HD
ENDBRANCH  24  27
ENDBRANCH  19  24
ENDBRANCH   1  18
TORSDOF 4
ENDMDL
MODEL 6
REMARK VINA RESULT:      -9.6      3.943      7.197
REMARK  Name = 5288527
REMARK  4 active torsions:
REMARK  status: ('A' for Active; 'I' for Inactive)
REMARK    1  A    between atoms: N_1  and  C_18
REMARK    2  A    between atoms: C_4  and  C_11
REMARK    3  A    between atoms: C_19  and  S_24
REMARK    4  A    between atoms: S_24  and  N_27
REMARK                            x       y       z     vdW  Elec       q    Type
REMARK                         _______ _______ _______ _____ _____    ______ ____
ROOT
ATOM      1  N   UNL     1      36.462 -22.401 -17.310  0.00  0.00    -0.247 N 
ATOM      2  N   UNL     1      34.300 -22.975 -16.604  0.00  0.00    -0.336 NA
ATOM      3  N   UNL     1      36.241 -23.793 -15.435  0.00  0.00    -0.170 NA
ATOM      4  C   UNL     1      33.536 -23.645 -15.719  0.00  0.00    +0.161 C 
ATOM      5  C   UNL     1      35.626 -23.090 -16.405  0.00  0.00    +0.149 C 
ATOM      6  C   UNL     1      34.037 -24.400 -14.682  0.00  0.00    +0.056 C 
ATOM      7  C   UNL     1      35.413 -24.438 -14.587  0.00  0.00    +0.114 C 
ATOM      8  H   UNL     1      37.423 -22.514 -17.127  0.00  0.00    +0.165 HD
ENDROOT
BRANCH   4  11
ATOM      9  N   UNL     1      31.151 -24.243 -15.282  0.00  0.00    -0.246 N 
ATOM     10  N   UNL     1      30.072 -22.886 -16.696  0.00  0.00    -0.227 NA
ATOM     11  C   UNL     1      32.114 -23.519 -15.937  0.00  0.00    +0.107 C 
ATOM     12  C   UNL     1      29.921 -23.821 -15.780  0.00  0.00    +0.139 C 
ATOM     13  C   UNL     1      31.427 -22.695 -16.797  0.00  0.00    +0.118 C 
ATOM     14  C   UNL     1      31.290 -25.223 -14.303  0.00  0.00    +0.071 C 
ATOM     15  C   UNL     1      28.757 -24.442 -15.241  0.00  0.00    +0.035 C 
ATOM     16  C   UNL     1      30.189 -25.803 -13.800  0.00  0.00    +0.017 C 
ATOM     17  C   UNL     1      28.884 -25.391 -14.293  0.00  0.00    +0.004 C 
ENDBRANCH   4  11
BRANCH   1  18
ATOM     18  C   UNL     1      36.192 -21.584 -18.424  0.00  0.00    +0.058 C 
ATOM     19  C   UNL     1      35.656 -19.961 -20.633  0.00  0.00    +0.122 C 
ATOM     20  C   UNL     1      34.980 -21.709 -19.107  0.00  0.00    +0.017 C 
ATOM     21  C   UNL     1      37.134 -20.645 -18.849  0.00  0.00    +0.017 C 
ATOM     22  C   UNL     1      34.713 -20.899 -20.210  0.00  0.00    +0.021 C 
ATOM     23  C   UNL     1      36.867 -19.835 -19.952  0.00  0.00    +0.021 C 
BRANCH  19  24
ATOM     24  S   UNL     1      35.321 -18.947 -22.014  0.00  0.00    +0.057 S 
ATOM     25  O   UNL     1      34.632 -19.749 -23.015  0.00  0.00    -0.153 OA
ATOM     26  O   UNL     1      34.723 -17.706 -21.543  0.00  0.00    -0.153 OA
BRANCH  24  27
ATOM     27  N   UNL     1      36.905 -18.617 -22.567  0.00  0.00    -0.203 NA
ATOM     28  H   UNL     1      37.578 -18.897 -21.854  0.00  0.00    +0.144 HD
ATOM     29  H   UNL     1      36.999 -17.618 -22.752  0.00  0.00    +0.144 HD
ENDBRANCH  24  27
ENDBRANCH  19  24
ENDBRANCH   1  18
TORSDOF 4
ENDMDL
MODEL 7
REMARK VINA RESULT:      -9.5     14.073     16.731
REMARK  Name = 5288527
REMARK  4 active torsions:
REMARK  status: ('A' for Active; 'I' for Inactive)
REMARK    1  A    between atoms: N_1  and  C_18
REMARK    2  A    between atoms: C_4  and  C_11
REMARK    3  A    between atoms: C_19  and  S_24
REMARK    4  A    between atoms: S_24  and  N_27
REMARK                            x       y       z     vdW  Elec       q    Type
REMARK                         _______ _______ _______ _____ _____    ______ ____
ROOT
ATOM      1  N   UNL     1      32.306  -8.297 -22.085  0.00  0.00    -0.247 N 
ATOM      2  N   UNL     1      32.617 -10.593 -22.454  0.00  0.00    -0.336 NA
ATOM      3  N   UNL     1      31.320  -9.805 -20.582  0.00  0.00    -0.170 NA
ATOM      4  C   UNL     1      32.368 -11.852 -22.043  0.00  0.00    +0.161 C 
ATOM      5  C   UNL     1      32.070  -9.631 -21.687  0.00  0.00    +0.149 C 
ATOM      6  C   UNL     1      31.618 -12.168 -20.932  0.00  0.00    +0.056 C 
ATOM      7  C   UNL     1      31.113 -11.091 -20.232  0.00  0.00    +0.114 C 
ATOM      8  H   UNL     1      31.887  -7.628 -21.496  0.00  0.00    +0.165 HD
ENDROOT
BRANCH   4  11
ATOM      9  N   UNL     1      33.642 -13.971 -22.394  0.00  0.00    -0.246 N 
ATOM     10  N   UNL     1      33.646 -14.138 -24.625  0.00  0.00    -0.227 NA
ATOM     11  C   UNL     1      32.958 -12.880 -22.867  0.00  0.00    +0.107 C 
ATOM     12  C   UNL     1      34.042 -14.709 -23.506  0.00  0.00    +0.139 C 
ATOM     13  C   UNL     1      32.974 -13.007 -24.236  0.00  0.00    +0.118 C 
ATOM     14  C   UNL     1      33.924 -14.341 -21.082  0.00  0.00    +0.071 C 
ATOM     15  C   UNL     1      34.779 -15.903 -23.258  0.00  0.00    +0.035 C 
ATOM     16  C   UNL     1      34.619 -15.467 -20.857  0.00  0.00    +0.017 C 
ATOM     17  C   UNL     1      35.057 -16.267 -21.991  0.00  0.00    +0.004 C 
ENDBRANCH   4  11
BRANCH   1  18
ATOM     18  C   UNL     1      33.023  -7.736 -23.159  0.00  0.00    +0.058 C 
ATOM     19  C   UNL     1      34.444  -6.623 -25.289  0.00  0.00    +0.122 C 
ATOM     20  C   UNL     1      34.372  -7.408 -23.006  0.00  0.00    +0.017 C 
ATOM     21  C   UNL     1      32.387  -7.506 -24.381  0.00  0.00    +0.017 C 
ATOM     22  C   UNL     1      35.081  -6.852 -24.069  0.00  0.00    +0.021 C 
ATOM     23  C   UNL     1      33.097  -6.950 -25.444  0.00  0.00    +0.021 C 
BRANCH  19  24
ATOM     24  S   UNL     1      35.332  -5.926 -26.621  0.00  0.00    +0.057 S 
ATOM     25  O   UNL     1      36.299  -4.980 -26.083  0.00  0.00    -0.153 OA
ATOM     26  O   UNL     1      35.780  -7.002 -27.493  0.00  0.00    -0.153 OA
BRANCH  24  27
ATOM     27  N   UNL     1      34.095  -5.056 -27.418  0.00  0.00    -0.203 NA
ATOM     28  H   UNL     1      34.285  -4.057 -27.349  0.00  0.00    +0.144 HD
ATOM     29  H   UNL     1      33.197  -5.263 -26.979  0.00  0.00    +0.144 HD
ENDBRANCH  24  27
ENDBRANCH  19  24
ENDBRANCH   1  18
TORSDOF 4
ENDMDL
MODEL 8
REMARK VINA RESULT:      -9.4     13.382     15.586
REMARK  Name = 5288527
REMARK  4 active torsions:
REMARK  status: ('A' for Active; 'I' for Inactive)
REMARK    1  A    between atoms: N_1  and  C_18
REMARK    2  A    between atoms: C_4  and  C_11
REMARK    3  A    between atoms: C_19  and  S_24
REMARK    4  A    between atoms: S_24  and  N_27
REMARK                            x       y       z     vdW  Elec       q    Type
REMARK                         _______ _______ _______ _____ _____    ______ ____
ROOT
ATOM      1  N   UNL     1      32.562 -12.667 -20.177  0.00  0.00    -0.247 N 
ATOM      2  N   UNL     1      32.058 -10.572 -21.104  0.00  0.00    -0.336 NA
ATOM      3  N   UNL     1      31.911 -10.940 -18.728  0.00  0.00    -0.170 NA
ATOM      4  C   UNL     1      31.670  -9.299 -20.889  0.00  0.00    +0.161 C 
ATOM      5  C   UNL     1      32.157 -11.327 -19.994  0.00  0.00    +0.149 C 
ATOM      6  C   UNL     1      31.388  -8.778 -19.646  0.00  0.00    +0.056 C 
ATOM      7  C   UNL     1      31.527  -9.654 -18.589  0.00  0.00    +0.114 C 
ATOM      8  H   UNL     1      32.621 -13.181 -19.339  0.00  0.00    +0.165 HD
ENDROOT
BRANCH   4  11
ATOM      9  N   UNL     1      31.730  -7.132 -22.129  0.00  0.00    -0.246 N 
ATOM     10  N   UNL     1      31.282  -7.789 -24.220  0.00  0.00    -0.227 NA
ATOM     11  C   UNL     1      31.565  -8.493 -22.082  0.00  0.00    +0.107 C 
ATOM     12  C   UNL     1      31.548  -6.750 -23.456  0.00  0.00    +0.139 C 
ATOM     13  C   UNL     1      31.291  -8.870 -23.376  0.00  0.00    +0.118 C 
ATOM     14  C   UNL     1      32.024  -6.239 -21.103  0.00  0.00    +0.071 C 
ATOM     15  C   UNL     1      31.674  -5.361 -23.752  0.00  0.00    +0.035 C 
ATOM     16  C   UNL     1      32.140  -4.932 -21.390  0.00  0.00    +0.017 C 
ATOM     17  C   UNL     1      31.957  -4.491 -22.764  0.00  0.00    +0.004 C 
ENDBRANCH   4  11
BRANCH   1  18
ATOM     18  C   UNL     1      32.899 -13.412 -21.323  0.00  0.00    +0.058 C 
ATOM     19  C   UNL     1      33.569 -14.891 -23.594  0.00  0.00    +0.122 C 
ATOM     20  C   UNL     1      32.279 -13.140 -22.544  0.00  0.00    +0.017 C 
ATOM     21  C   UNL     1      33.856 -14.426 -21.241  0.00  0.00    +0.017 C 
ATOM     22  C   UNL     1      32.613 -13.879 -23.678  0.00  0.00    +0.021 C 
ATOM     23  C   UNL     1      34.191 -15.165 -22.376  0.00  0.00    +0.021 C 
BRANCH  19  24
ATOM     24  S   UNL     1      33.988 -15.817 -25.014  0.00  0.00    +0.057 S 
ATOM     25  O   UNL     1      33.700 -15.009 -26.190  0.00  0.00    -0.153 OA
ATOM     26  O   UNL     1      35.320 -16.374 -24.828  0.00  0.00    -0.153 OA
BRANCH  24  27
ATOM     27  N   UNL     1      32.847 -17.086 -24.924  0.00  0.00    -0.203 NA
ATOM     28  H   UNL     1      33.201 -17.898 -25.428  0.00  0.00    +0.144 HD
ATOM     29  H   UNL     1      31.967 -16.782 -25.343  0.00  0.00    +0.144 HD
ENDBRANCH  24  27
ENDBRANCH  19  24
ENDBRANCH   1  18
TORSDOF 4
ENDMDL
