MODEL 1
REMARK VINA RESULT:     -11.1      0.000      0.000
REMARK  Name = 447359
REMARK  5 active torsions:
REMARK  status: ('A' for Active; 'I' for Inactive)
REMARK    1  A    between atoms: N_2  and  S_8
REMARK    2  A    between atoms: N_3  and  C_21
REMARK    3  A    between atoms: S_8  and  C_13
REMARK    4  A    between atoms: C_21  and  C_22
REMARK    5  A    between atoms: C_25  and  C_30
REMARK                            x       y       z     vdW  Elec       q    Type
REMARK                         _______ _______ _______ _____ _____    ______ ____
ROOT
ATOM      1  O   UNL     1      36.149 -17.730 -20.258  0.00  0.00    -0.273 OA
ATOM      2  N   UNL     1      34.839 -17.338 -23.610  0.00  0.00    -0.144 NA
ATOM      3  N   UNL     1      35.477 -19.352 -21.772  0.00  0.00    -0.273 N 
ATOM      4  C   UNL     1      34.124 -18.629 -23.712  0.00  0.00    +0.118 C 
ATOM      5  C   UNL     1      35.033 -19.686 -23.122  0.00  0.00    +0.113 C 
ATOM      6  C   UNL     1      35.052 -16.949 -22.203  0.00  0.00    +0.181 C 
ATOM      7  C   UNL     1      35.631 -18.038 -21.336  0.00  0.00    +0.244 C 
ENDROOT
BRANCH   2   8
ATOM      8  S   UNL     1      34.286 -16.094 -24.648  0.00  0.00    +0.069 S 
ATOM      9  O   UNL     1      33.138 -16.584 -25.382  0.00  0.00    -0.152 OA
ATOM     10  O   UNL     1      35.421 -15.490 -25.313  0.00  0.00    -0.152 OA
BRANCH   8  13
ATOM     11 CL   UNL     1      31.504  -9.135 -21.401  0.00  0.00    -0.082 Cl
ATOM     12  S   UNL     1      33.475 -13.301 -24.417  0.00  0.00    -0.067 S 
ATOM     13  C   UNL     1      33.642 -14.781 -23.617  0.00  0.00    +0.152 C 
ATOM     14  C   UNL     1      33.264 -14.751 -22.318  0.00  0.00    +0.027 C 
ATOM     15  C   UNL     1      32.805 -13.450 -21.924  0.00  0.00    +0.008 C 
ATOM     16  C   UNL     1      32.868 -12.547 -22.990  0.00  0.00    +0.032 C 
ATOM     17  C   UNL     1      32.324 -12.981 -20.678  0.00  0.00    +0.001 C 
ATOM     18  C   UNL     1      32.468 -11.204 -22.843  0.00  0.00    +0.018 C 
ATOM     19  C   UNL     1      31.926 -11.650 -20.528  0.00  0.00    +0.011 C 
ATOM     20  C   UNL     1      31.998 -10.773 -21.601  0.00  0.00    +0.058 C 
ENDBRANCH   8  13
ENDBRANCH   2   8
BRANCH   3  21
ATOM     21  C   UNL     1      35.984 -20.456 -20.969  0.00  0.00    +0.120 C 
BRANCH  21  22
ATOM     22  C   UNL     1      34.890 -20.983 -20.093  0.00  0.00    -0.002 C 
ATOM     23  C   UNL     1      35.205 -21.789 -19.004  0.00  0.00    +0.000 C 
ATOM     24  C   UNL     1      33.564 -20.664 -20.375  0.00  0.00    -0.003 C 
ATOM     25  C   UNL     1      34.186 -22.281 -18.188  0.00  0.00    +0.030 C 
ATOM     26  C   UNL     1      32.546 -21.156 -19.559  0.00  0.00    -0.000 C 
ATOM     27  C   UNL     1      32.856 -21.965 -18.466  0.00  0.00    +0.003 C 
BRANCH  25  30
ATOM     28  N   UNL     1      33.538 -23.910 -16.429  0.00  0.00    -0.343 N 
ATOM     29  N   UNL     1      35.744 -23.150 -16.578  0.00  0.00    -0.285 NA
ATOM     30  C   UNL     1      34.509 -23.124 -17.047  0.00  0.00    +0.117 C 
ATOM     31  H   UNL     1      33.779 -24.473 -15.658  0.00  0.00    +0.144 HD
ATOM     32  H   UNL     1      32.613 -23.902 -16.762  0.00  0.00    +0.144 HD
ATOM     33  H   UNL     1      35.964 -23.720 -15.806  0.00  0.00    +0.188 HD
ENDBRANCH  25  30
ENDBRANCH  21  22
ENDBRANCH   3  21
TORSDOF 5
ENDMDL
MODEL 2
REMARK VINA RESULT:     -10.9      3.462      5.417
REMARK  Name = 447359
REMARK  5 active torsions:
REMARK  status: ('A' for Active; 'I' for Inactive)
REMARK    1  A    between atoms: N_2  and  S_8
REMARK    2  A    between atoms: N_3  and  C_21
REMARK    3  A    between atoms: S_8  and  C_13
REMARK    4  A    between atoms: C_21  and  C_22
REMARK    5  A    between atoms: C_25  and  C_30
REMARK                            x       y       z     vdW  Elec       q    Type
REMARK                         _______ _______ _______ _____ _____    ______ ____
ROOT
ATOM      1  O   UNL     1      34.883 -15.317 -20.369  0.00  0.00    -0.273 OA
ATOM      2  N   UNL     1      32.714 -12.739 -21.693  0.00  0.00    -0.144 NA
ATOM      3  N   UNL     1      34.423 -14.774 -22.575  0.00  0.00    -0.273 N 
ATOM      4  C   UNL     1      32.462 -13.334 -23.024  0.00  0.00    +0.118 C 
ATOM      5  C   UNL     1      33.787 -13.868 -23.527  0.00  0.00    +0.113 C 
ATOM      6  C   UNL     1      33.136 -13.761 -20.715  0.00  0.00    +0.181 C 
ATOM      7  C   UNL     1      34.240 -14.666 -21.199  0.00  0.00    +0.244 C 
ENDROOT
BRANCH   2   8
ATOM      8  S   UNL     1      31.538 -11.625 -21.139  0.00  0.00    +0.069 S 
ATOM      9  O   UNL     1      31.626 -11.543 -19.695  0.00  0.00    -0.152 OA
ATOM     10  O   UNL     1      30.286 -11.879 -21.818  0.00  0.00    -0.152 OA
BRANCH   8  13
ATOM     11 CL   UNL     1      34.391  -5.108 -25.152  0.00  0.00    -0.082 Cl
ATOM     12  S   UNL     1      32.827 -10.017 -23.204  0.00  0.00    -0.067 S 
ATOM     13  C   UNL     1      32.021 -10.002 -21.718  0.00  0.00    +0.152 C 
ATOM     14  C   UNL     1      31.862  -8.766 -21.190  0.00  0.00    +0.027 C 
ATOM     15  C   UNL     1      32.423  -7.748 -22.031  0.00  0.00    +0.008 C 
ATOM     16  C   UNL     1      32.993  -8.300 -23.183  0.00  0.00    +0.032 C 
ATOM     17  C   UNL     1      32.478  -6.344 -21.865  0.00  0.00    +0.001 C 
ATOM     18  C   UNL     1      33.607  -7.493 -24.160  0.00  0.00    +0.018 C 
ATOM     19  C   UNL     1      33.086  -5.540 -22.833  0.00  0.00    +0.011 C 
ATOM     20  C   UNL     1      33.645  -6.111 -23.967  0.00  0.00    +0.058 C 
ENDBRANCH   8  13
ENDBRANCH   2   8
BRANCH   3  21
ATOM     21  C   UNL     1      35.451 -15.654 -23.113  0.00  0.00    +0.120 C 
BRANCH  21  22
ATOM     22  C   UNL     1      34.948 -17.065 -23.122  0.00  0.00    -0.002 C 
ATOM     23  C   UNL     1      35.101 -17.859 -21.989  0.00  0.00    +0.000 C 
ATOM     24  C   UNL     1      34.335 -17.574 -24.263  0.00  0.00    -0.003 C 
ATOM     25  C   UNL     1      34.634 -19.174 -21.997  0.00  0.00    +0.030 C 
ATOM     26  C   UNL     1      33.869 -18.888 -24.270  0.00  0.00    -0.000 C 
ATOM     27  C   UNL     1      34.018 -19.689 -23.138  0.00  0.00    +0.003 C 
BRANCH  25  30
ATOM     28  N   UNL     1      36.019 -20.132 -20.173  0.00  0.00    -0.343 N 
ATOM     29  N   UNL     1      33.750 -20.671 -20.338  0.00  0.00    -0.285 NA
ATOM     30  C   UNL     1      34.789 -20.009 -20.816  0.00  0.00    +0.117 C 
ATOM     31  H   UNL     1      36.102 -20.703 -19.375  0.00  0.00    +0.144 HD
ATOM     32  H   UNL     1      36.805 -19.650 -20.516  0.00  0.00    +0.144 HD
ATOM     33  H   UNL     1      33.854 -21.237 -19.538  0.00  0.00    +0.188 HD
ENDBRANCH  25  30
ENDBRANCH  21  22
ENDBRANCH   3  21
TORSDOF 5
ENDMDL
MODEL 3
REMARK VINA RESULT:     -10.9      2.443      4.131
REMARK  Name = 447359
REMARK  5 active torsions:
REMARK  status: ('A' for Active; 'I' for Inactive)
REMARK    1  A    between atoms: N_2  and  S_8
REMARK    2  A    between atoms: N_3  and  C_21
REMARK    3  A    between atoms: S_8  and  C_13
REMARK    4  A    between atoms: C_21  and  C_22
REMARK    5  A    between atoms: C_25  and  C_30
REMARK                            x       y       z     vdW  Elec       q    Type
REMARK                         _______ _______ _______ _____ _____    ______ ____
ROOT
ATOM      1  O   UNL     1      32.155 -20.885 -19.525  0.00  0.00    -0.273 OA
ATOM      2  N   UNL     1      35.553 -20.066 -20.465  0.00  0.00    -0.144 NA
ATOM      3  N   UNL     1      34.124 -22.011 -19.046  0.00  0.00    -0.273 N 
ATOM      4  C   UNL     1      36.137 -21.421 -20.355  0.00  0.00    +0.118 C 
ATOM      5  C   UNL     1      35.583 -22.041 -19.090  0.00  0.00    +0.113 C 
ATOM      6  C   UNL     1      34.091 -20.122 -20.650  0.00  0.00    +0.181 C 
ATOM      7  C   UNL     1      33.374 -21.020 -19.674  0.00  0.00    +0.244 C 
ENDROOT
BRANCH   2   8
ATOM      8  S   UNL     1      36.388 -18.974 -21.484  0.00  0.00    +0.069 S 
ATOM      9  O   UNL     1      36.275 -19.441 -22.851  0.00  0.00    -0.152 OA
ATOM     10  O   UNL     1      37.667 -18.650 -20.888  0.00  0.00    -0.152 OA
BRANCH   8  13
ATOM     11 CL   UNL     1      32.571 -11.934 -23.094  0.00  0.00    -0.082 Cl
ATOM     12  S   UNL     1      35.300 -16.718 -22.980  0.00  0.00    -0.067 S 
ATOM     13  C   UNL     1      35.495 -17.423 -21.456  0.00  0.00    +0.152 C 
ATOM     14  C   UNL     1      34.948 -16.711 -20.444  0.00  0.00    +0.027 C 
ATOM     15  C   UNL     1      34.322 -15.508 -20.915  0.00  0.00    +0.008 C 
ATOM     16  C   UNL     1      34.442 -15.384 -22.302  0.00  0.00    +0.032 C 
ATOM     17  C   UNL     1      33.639 -14.489 -20.209  0.00  0.00    +0.001 C 
ATOM     18  C   UNL     1      33.904 -14.280 -22.993  0.00  0.00    +0.018 C 
ATOM     19  C   UNL     1      33.104 -13.393 -20.890  0.00  0.00    +0.011 C 
ATOM     20  C   UNL     1      33.237 -13.291 -22.267  0.00  0.00    +0.058 C 
ENDBRANCH   8  13
ENDBRANCH   2   8
BRANCH   3  21
ATOM     21  C   UNL     1      33.489 -22.934 -18.115  0.00  0.00    +0.120 C 
BRANCH  21  22
ATOM     22  C   UNL     1      34.307 -23.027 -16.864  0.00  0.00    -0.002 C 
ATOM     23  C   UNL     1      33.761 -23.605 -15.723  0.00  0.00    +0.000 C 
ATOM     24  C   UNL     1      35.608 -22.532 -16.851  0.00  0.00    -0.003 C 
ATOM     25  C   UNL     1      34.522 -23.691 -14.557  0.00  0.00    +0.030 C 
ATOM     26  C   UNL     1      36.369 -22.617 -15.685  0.00  0.00    -0.000 C 
ATOM     27  C   UNL     1      35.827 -23.196 -14.538  0.00  0.00    +0.003 C 
BRANCH  25  30
ATOM     28  N   UNL     1      33.000 -25.304 -13.441  0.00  0.00    -0.343 N 
ATOM     29  N   UNL     1      34.349 -23.882 -12.168  0.00  0.00    -0.285 NA
ATOM     30  C   UNL     1      33.957 -24.295 -13.360  0.00  0.00    +0.117 C 
ATOM     31  H   UNL     1      32.631 -25.699 -12.618  0.00  0.00    +0.144 HD
ATOM     32  H   UNL     1      32.693 -25.622 -14.320  0.00  0.00    +0.144 HD
ATOM     33  H   UNL     1      33.968 -24.290 -11.356  0.00  0.00    +0.188 HD
ENDBRANCH  25  30
ENDBRANCH  21  22
ENDBRANCH   3  21
TORSDOF 5
ENDMDL
MODEL 4
REMARK VINA RESULT:     -10.5      6.655      9.292
REMARK  Name = 447359
REMARK  5 active torsions:
REMARK  status: ('A' for Active; 'I' for Inactive)
REMARK    1  A    between atoms: N_2  and  S_8
REMARK    2  A    between atoms: N_3  and  C_21
REMARK    3  A    between atoms: S_8  and  C_13
REMARK    4  A    between atoms: C_21  and  C_22
REMARK    5  A    between atoms: C_25  and  C_30
REMARK                            x       y       z     vdW  Elec       q    Type
REMARK                         _______ _______ _______ _____ _____    ______ ____
ROOT
ATOM      1  O   UNL     1      31.916 -11.332 -18.647  0.00  0.00    -0.273 OA
ATOM      2  N   UNL     1      32.235  -8.603 -21.004  0.00  0.00    -0.144 NA
ATOM      3  N   UNL     1      31.425 -11.281 -20.912  0.00  0.00    -0.273 N 
ATOM      4  C   UNL     1      31.252  -9.070 -22.006  0.00  0.00    +0.118 C 
ATOM      5  C   UNL     1      31.471 -10.558 -22.180  0.00  0.00    +0.113 C 
ATOM      6  C   UNL     1      31.985  -9.205 -19.680  0.00  0.00    +0.181 C 
ATOM      7  C   UNL     1      31.798 -10.701 -19.703  0.00  0.00    +0.244 C 
ENDROOT
BRANCH   2   8
ATOM      8  S   UNL     1      32.560  -6.922 -21.004  0.00  0.00    +0.069 S 
ATOM      9  O   UNL     1      33.647  -6.663 -20.082  0.00  0.00    -0.152 OA
ATOM     10  O   UNL     1      31.309  -6.197 -20.937  0.00  0.00    -0.152 OA
BRANCH   8  13
ATOM     11 CL   UNL     1      33.978  -4.268 -28.597  0.00  0.00    -0.082 Cl
ATOM     12  S   UNL     1      32.132  -5.653 -23.596  0.00  0.00    -0.067 S 
ATOM     13  C   UNL     1      33.216  -6.501 -22.615  0.00  0.00    +0.152 C 
ATOM     14  C   UNL     1      34.417  -6.735 -23.193  0.00  0.00    +0.027 C 
ATOM     15  C   UNL     1      34.484  -6.197 -24.522  0.00  0.00    +0.008 C 
ATOM     16  C   UNL     1      33.285  -5.571 -24.876  0.00  0.00    +0.032 C 
ATOM     17  C   UNL     1      35.535  -6.214 -25.470  0.00  0.00    +0.001 C 
ATOM     18  C   UNL     1      33.113  -4.968 -26.137  0.00  0.00    +0.018 C 
ATOM     19  C   UNL     1      35.368  -5.616 -26.722  0.00  0.00    +0.011 C 
ATOM     20  C   UNL     1      34.169  -5.001 -27.050  0.00  0.00    +0.058 C 
ENDBRANCH   8  13
ENDBRANCH   2   8
BRANCH   3  21
ATOM     21  C   UNL     1      31.198 -12.717 -20.999  0.00  0.00    +0.120 C 
BRANCH  21  22
ATOM     22  C   UNL     1      32.378 -13.374 -21.646  0.00  0.00    -0.002 C 
ATOM     23  C   UNL     1      32.337 -13.688 -23.001  0.00  0.00    +0.000 C 
ATOM     24  C   UNL     1      33.507 -13.669 -20.887  0.00  0.00    -0.003 C 
ATOM     25  C   UNL     1      33.436 -14.301 -23.604  0.00  0.00    +0.030 C 
ATOM     26  C   UNL     1      34.605 -14.282 -21.490  0.00  0.00    -0.000 C 
ATOM     27  C   UNL     1      34.570 -14.599 -22.848  0.00  0.00    +0.003 C 
BRANCH  25  30
ATOM     28  N   UNL     1      33.368 -13.636 -25.995  0.00  0.00    -0.343 N 
ATOM     29  N   UNL     1      33.393 -15.896 -25.400  0.00  0.00    -0.285 NA
ATOM     30  C   UNL     1      33.400 -14.630 -25.020  0.00  0.00    +0.117 C 
ATOM     31  H   UNL     1      33.344 -13.881 -26.948  0.00  0.00    +0.144 HD
ATOM     32  H   UNL     1      33.370 -12.688 -25.732  0.00  0.00    +0.144 HD
ATOM     33  H   UNL     1      33.368 -16.121 -26.359  0.00  0.00    +0.188 HD
ENDBRANCH  25  30
ENDBRANCH  21  22
ENDBRANCH   3  21
TORSDOF 5
ENDMDL
MODEL 5
REMARK VINA RESULT:     -10.5      4.366      9.724
REMARK  Name = 447359
REMARK  5 active torsions:
REMARK  status: ('A' for Active; 'I' for Inactive)
REMARK    1  A    between atoms: N_2  and  S_8
REMARK    2  A    between atoms: N_3  and  C_21
REMARK    3  A    between atoms: S_8  and  C_13
REMARK    4  A    between atoms: C_21  and  C_22
REMARK    5  A    between atoms: C_25  and  C_30
REMARK                            x       y       z     vdW  Elec       q    Type
REMARK                         _______ _______ _______ _____ _____    ______ ____
ROOT
ATOM      1  O   UNL     1      33.293 -13.745 -20.346  0.00  0.00    -0.273 OA
ATOM      2  N   UNL     1      33.540 -15.206 -23.649  0.00  0.00    -0.144 NA
ATOM      3  N   UNL     1      32.478 -12.955 -22.367  0.00  0.00    -0.273 N 
ATOM      4  C   UNL     1      33.359 -13.971 -24.443  0.00  0.00    +0.118 C 
ATOM      5  C   UNL     1      32.242 -13.185 -23.789  0.00  0.00    +0.113 C 
ATOM      6  C   UNL     1      34.004 -14.905 -22.281  0.00  0.00    +0.181 C 
ATOM      7  C   UNL     1      33.209 -13.836 -21.575  0.00  0.00    +0.244 C 
ENDROOT
BRANCH   2   8
ATOM      8  S   UNL     1      34.350 -16.490 -24.440  0.00  0.00    +0.069 S 
ATOM      9  O   UNL     1      35.552 -15.966 -25.056  0.00  0.00    -0.152 OA
ATOM     10  O   UNL     1      33.386 -17.272 -25.184  0.00  0.00    -0.152 OA
BRANCH   8  13
ATOM     11 CL   UNL     1      35.506 -22.453 -18.980  0.00  0.00    -0.082 Cl
ATOM     12  S   UNL     1      33.870 -18.883 -22.842  0.00  0.00    -0.067 S 
ATOM     13  C   UNL     1      34.936 -17.615 -23.178  0.00  0.00    +0.152 C 
ATOM     14  C   UNL     1      36.072 -17.640 -22.444  0.00  0.00    +0.027 C 
ATOM     15  C   UNL     1      36.101 -18.755 -21.541  0.00  0.00    +0.008 C 
ATOM     16  C   UNL     1      34.941 -19.528 -21.655  0.00  0.00    +0.032 C 
ATOM     17  C   UNL     1      37.083 -19.157 -20.605  0.00  0.00    +0.001 C 
ATOM     18  C   UNL     1      34.742 -20.679 -20.866  0.00  0.00    +0.018 C 
ATOM     19  C   UNL     1      36.890 -20.298 -19.821  0.00  0.00    +0.011 C 
ATOM     20  C   UNL     1      35.730 -21.049 -19.952  0.00  0.00    +0.058 C 
ENDBRANCH   8  13
ENDBRANCH   2   8
BRANCH   3  21
ATOM     21  C   UNL     1      31.712 -11.878 -21.754  0.00  0.00    +0.120 C 
BRANCH  21  22
ATOM     22  C   UNL     1      32.047 -10.580 -22.421  0.00  0.00    -0.002 C 
ATOM     23  C   UNL     1      33.377 -10.255 -22.669  0.00  0.00    +0.000 C 
ATOM     24  C   UNL     1      31.027  -9.707 -22.788  0.00  0.00    -0.003 C 
ATOM     25  C   UNL     1      33.690  -9.045 -23.290  0.00  0.00    +0.030 C 
ATOM     26  C   UNL     1      31.340  -8.498 -23.408  0.00  0.00    -0.000 C 
ATOM     27  C   UNL     1      32.671  -8.166 -23.659  0.00  0.00    +0.003 C 
BRANCH  25  30
ATOM     28  N   UNL     1      35.540  -7.393 -23.402  0.00  0.00    -0.343 N 
ATOM     29  N   UNL     1      35.926  -9.633 -23.945  0.00  0.00    -0.285 NA
ATOM     30  C   UNL     1      35.078  -8.699 -23.553  0.00  0.00    +0.117 C 
ATOM     31  H   UNL     1      36.484  -7.181 -23.586  0.00  0.00    +0.144 HD
ATOM     32  H   UNL     1      34.924  -6.683 -23.114  0.00  0.00    +0.144 HD
ATOM     33  H   UNL     1      36.866  -9.401 -24.123  0.00  0.00    +0.188 HD
ENDBRANCH  25  30
ENDBRANCH  21  22
ENDBRANCH   3  21
TORSDOF 5
ENDMDL
MODEL 6
REMARK VINA RESULT:     -10.5      4.437      9.769
REMARK  Name = 447359
REMARK  5 active torsions:
REMARK  status: ('A' for Active; 'I' for Inactive)
REMARK    1  A    between atoms: N_2  and  S_8
REMARK    2  A    between atoms: N_3  and  C_21
REMARK    3  A    between atoms: S_8  and  C_13
REMARK    4  A    between atoms: C_21  and  C_22
REMARK    5  A    between atoms: C_25  and  C_30
REMARK                            x       y       z     vdW  Elec       q    Type
REMARK                         _______ _______ _______ _____ _____    ______ ____
ROOT
ATOM      1  O   UNL     1      33.361 -13.675 -20.501  0.00  0.00    -0.273 OA
ATOM      2  N   UNL     1      33.540 -15.276 -23.743  0.00  0.00    -0.144 NA
ATOM      3  N   UNL     1      32.498 -12.975 -22.535  0.00  0.00    -0.273 N 
ATOM      4  C   UNL     1      33.336 -14.077 -24.584  0.00  0.00    +0.118 C 
ATOM      5  C   UNL     1      32.231 -13.267 -23.940  0.00  0.00    +0.113 C 
ATOM      6  C   UNL     1      34.033 -14.915 -22.400  0.00  0.00    +0.181 C 
ATOM      7  C   UNL     1      33.250 -13.819 -21.723  0.00  0.00    +0.244 C 
ENDROOT
BRANCH   2   8
ATOM      8  S   UNL     1      34.337 -16.590 -24.496  0.00  0.00    +0.069 S 
ATOM      9  O   UNL     1      35.538 -16.095 -25.136  0.00  0.00    -0.152 OA
ATOM     10  O   UNL     1      33.363 -17.391 -25.208  0.00  0.00    -0.152 OA
BRANCH   8  13
ATOM     11 CL   UNL     1      35.513 -22.407 -18.883  0.00  0.00    -0.082 Cl
ATOM     12  S   UNL     1      33.872 -18.952 -22.847  0.00  0.00    -0.067 S 
ATOM     13  C   UNL     1      34.924 -17.677 -23.201  0.00  0.00    +0.152 C 
ATOM     14  C   UNL     1      36.052 -17.669 -22.453  0.00  0.00    +0.027 C 
ATOM     15  C   UNL     1      36.086 -18.762 -21.524  0.00  0.00    +0.008 C 
ATOM     16  C   UNL     1      34.939 -19.554 -21.633  0.00  0.00    +0.032 C 
ATOM     17  C   UNL     1      37.063 -19.127 -20.568  0.00  0.00    +0.001 C 
ATOM     18  C   UNL     1      34.747 -20.689 -20.820  0.00  0.00    +0.018 C 
ATOM     19  C   UNL     1      36.877 -20.252 -19.760  0.00  0.00    +0.011 C 
ATOM     20  C   UNL     1      35.729 -21.023 -19.886  0.00  0.00    +0.058 C 
ENDBRANCH   8  13
ENDBRANCH   2   8
BRANCH   3  21
ATOM     21  C   UNL     1      31.742 -11.876 -21.951  0.00  0.00    +0.120 C 
BRANCH  21  22
ATOM     22  C   UNL     1      32.474 -10.588 -22.176  0.00  0.00    -0.002 C 
ATOM     23  C   UNL     1      32.317  -9.538 -21.276  0.00  0.00    +0.000 C 
ATOM     24  C   UNL     1      33.305 -10.449 -23.284  0.00  0.00    -0.003 C 
ATOM     25  C   UNL     1      32.997  -8.339 -21.486  0.00  0.00    +0.030 C 
ATOM     26  C   UNL     1      33.984  -9.250 -23.494  0.00  0.00    -0.000 C 
ATOM     27  C   UNL     1      33.831  -8.194 -22.595  0.00  0.00    +0.003 C 
BRANCH  25  30
ATOM     28  N   UNL     1      32.423  -5.977 -20.975  0.00  0.00    -0.343 N 
ATOM     29  N   UNL     1      33.091  -7.425 -19.265  0.00  0.00    -0.285 NA
ATOM     30  C   UNL     1      32.838  -7.238 -20.549  0.00  0.00    +0.117 C 
ATOM     31  H   UNL     1      32.322  -5.246 -20.324  0.00  0.00    +0.144 HD
ATOM     32  H   UNL     1      32.233  -5.818 -21.927  0.00  0.00    +0.144 HD
ATOM     33  H   UNL     1      32.984  -6.680 -18.629  0.00  0.00    +0.188 HD
ENDBRANCH  25  30
ENDBRANCH  21  22
ENDBRANCH   3  21
TORSDOF 5
ENDMDL
MODEL 7
REMARK VINA RESULT:     -10.4      5.239     10.131
REMARK  Name = 447359
REMARK  5 active torsions:
REMARK  status: ('A' for Active; 'I' for Inactive)
REMARK    1  A    between atoms: N_2  and  S_8
REMARK    2  A    between atoms: N_3  and  C_21
REMARK    3  A    between atoms: S_8  and  C_13
REMARK    4  A    between atoms: C_21  and  C_22
REMARK    5  A    between atoms: C_25  and  C_30
REMARK                            x       y       z     vdW  Elec       q    Type
REMARK                         _______ _______ _______ _____ _____    ______ ____
ROOT
ATOM      1  O   UNL     1      33.447 -19.458 -22.090  0.00  0.00    -0.273 OA
ATOM      2  N   UNL     1      34.316 -21.863 -19.527  0.00  0.00    -0.144 NA
ATOM      3  N   UNL     1      35.458 -19.756 -20.975  0.00  0.00    -0.273 N 
ATOM      4  C   UNL     1      35.443 -21.125 -18.916  0.00  0.00    +0.118 C 
ATOM      5  C   UNL     1      36.262 -20.549 -20.051  0.00  0.00    +0.113 C 
ATOM      6  C   UNL     1      33.411 -20.956 -20.259  0.00  0.00    +0.181 C 
ATOM      7  C   UNL     1      34.108 -20.011 -21.205  0.00  0.00    +0.244 C 
ENDROOT
BRANCH   2   8
ATOM      8  S   UNL     1      33.552 -23.022 -18.526  0.00  0.00    +0.069 S 
ATOM      9  O   UNL     1      33.685 -24.325 -19.147  0.00  0.00    -0.152 OA
ATOM     10  O   UNL     1      32.271 -22.506 -18.094  0.00  0.00    -0.152 OA
BRANCH   8  13
ATOM     11 CL   UNL     1      36.360 -24.041 -10.924  0.00  0.00    -0.082 Cl
ATOM     12  S   UNL     1      33.600 -23.628 -15.673  0.00  0.00    -0.067 S 
ATOM     13  C   UNL     1      34.503 -23.137 -17.015  0.00  0.00    +0.152 C 
ATOM     14  C   UNL     1      35.809 -22.906 -16.746  0.00  0.00    +0.027 C 
ATOM     15  C   UNL     1      36.119 -23.136 -15.363  0.00  0.00    +0.008 C 
ATOM     16  C   UNL     1      34.986 -23.540 -14.651  0.00  0.00    +0.032 C 
ATOM     17  C   UNL     1      37.343 -23.016 -14.662  0.00  0.00    +0.001 C 
ATOM     18  C   UNL     1      35.046 -23.825 -13.272  0.00  0.00    +0.018 C 
ATOM     19  C   UNL     1      37.406 -23.298 -13.295  0.00  0.00    +0.011 C 
ATOM     20  C   UNL     1      36.268 -23.697 -12.610  0.00  0.00    +0.058 C 
ENDBRANCH   8  13
ENDBRANCH   2   8
BRANCH   3  21
ATOM     21  C   UNL     1      36.186 -18.829 -21.831  0.00  0.00    +0.120 C 
BRANCH  21  22
ATOM     22  C   UNL     1      35.477 -17.510 -21.860  0.00  0.00    -0.002 C 
ATOM     23  C   UNL     1      35.031 -16.993 -23.072  0.00  0.00    +0.000 C 
ATOM     24  C   UNL     1      35.271 -16.810 -20.675  0.00  0.00    -0.003 C 
ATOM     25  C   UNL     1      34.372 -15.763 -23.099  0.00  0.00    +0.030 C 
ATOM     26  C   UNL     1      34.612 -15.581 -20.703  0.00  0.00    -0.000 C 
ATOM     27  C   UNL     1      34.163 -15.057 -21.914  0.00  0.00    +0.003 C 
BRANCH  25  30
ATOM     28  N   UNL     1      33.564 -13.871 -24.490  0.00  0.00    -0.343 N 
ATOM     29  N   UNL     1      33.787 -16.005 -25.418  0.00  0.00    -0.285 NA
ATOM     30  C   UNL     1      33.902 -15.217 -24.363  0.00  0.00    +0.117 C 
ATOM     31  H   UNL     1      33.249 -13.522 -25.354  0.00  0.00    +0.144 HD
ATOM     32  H   UNL     1      33.640 -13.269 -23.715  0.00  0.00    +0.144 HD
ATOM     33  H   UNL     1      33.470 -15.636 -26.274  0.00  0.00    +0.188 HD
ENDBRANCH  25  30
ENDBRANCH  21  22
ENDBRANCH   3  21
TORSDOF 5
ENDMDL
MODEL 8
REMARK VINA RESULT:     -10.4      7.045     13.023
REMARK  Name = 447359
REMARK  5 active torsions:
REMARK  status: ('A' for Active; 'I' for Inactive)
REMARK    1  A    between atoms: N_2  and  S_8
REMARK    2  A    between atoms: N_3  and  C_21
REMARK    3  A    between atoms: S_8  and  C_13
REMARK    4  A    between atoms: C_21  and  C_22
REMARK    5  A    between atoms: C_25  and  C_30
REMARK                            x       y       z     vdW  Elec       q    Type
REMARK                         _______ _______ _______ _____ _____    ______ ____
ROOT
ATOM      1  O   UNL     1      31.274  -7.832 -24.276  0.00  0.00    -0.273 OA
ATOM      2  N   UNL     1      32.029  -9.602 -21.211  0.00  0.00    -0.144 NA
ATOM      3  N   UNL     1      32.679  -7.223 -22.536  0.00  0.00    -0.273 N 
ATOM      4  C   UNL     1      32.461  -8.445 -20.397  0.00  0.00    +0.118 C 
ATOM      5  C   UNL     1      33.335  -7.583 -21.283  0.00  0.00    +0.113 C 
ATOM      6  C   UNL     1      31.173  -9.182 -22.336  0.00  0.00    +0.181 C 
ATOM      7  C   UNL     1      31.728  -8.037 -23.147  0.00  0.00    +0.244 C 
ENDROOT
BRANCH   2   8
ATOM      8  S   UNL     1      31.484 -10.969 -20.336  0.00  0.00    +0.069 S 
ATOM      9  O   UNL     1      30.104 -11.224 -20.693  0.00  0.00    -0.152 OA
ATOM     10  O   UNL     1      31.910 -10.851 -18.958  0.00  0.00    -0.152 OA
BRANCH   8  13
ATOM     11 CL   UNL     1      34.987 -16.934 -24.679  0.00  0.00    -0.082 Cl
ATOM     12  S   UNL     1      32.278 -12.603 -22.618  0.00  0.00    -0.067 S 
ATOM     13  C   UNL     1      32.383 -12.391 -20.945  0.00  0.00    +0.152 C 
ATOM     14  C   UNL     1      33.131 -13.327 -20.316  0.00  0.00    +0.027 C 
ATOM     15  C   UNL     1      33.665 -14.291 -21.236  0.00  0.00    +0.008 C 
ATOM     16  C   UNL     1      33.270 -14.012 -22.548  0.00  0.00    +0.032 C 
ATOM     17  C   UNL     1      34.487 -15.421 -21.011  0.00  0.00    +0.001 C 
ATOM     18  C   UNL     1      33.673 -14.823 -23.627  0.00  0.00    +0.018 C 
ATOM     19  C   UNL     1      34.889 -16.228 -22.079  0.00  0.00    +0.011 C 
ATOM     20  C   UNL     1      34.484 -15.930 -23.372  0.00  0.00    +0.058 C 
ENDBRANCH   8  13
ENDBRANCH   2   8
BRANCH   3  21
ATOM     21  C   UNL     1      33.234  -6.081 -23.249  0.00  0.00    +0.120 C 
BRANCH  21  22
ATOM     22  C   UNL     1      32.399  -4.867 -22.980  0.00  0.00    -0.002 C 
ATOM     23  C   UNL     1      31.736  -4.238 -24.030  0.00  0.00    +0.000 C 
ATOM     24  C   UNL     1      32.293  -4.374 -21.683  0.00  0.00    -0.003 C 
ATOM     25  C   UNL     1      30.959  -3.107 -23.780  0.00  0.00    +0.030 C 
ATOM     26  C   UNL     1      31.516  -3.243 -21.434  0.00  0.00    -0.000 C 
ATOM     27  C   UNL     1      30.850  -2.609 -22.482  0.00  0.00    +0.003 C 
BRANCH  25  30
ATOM     28  N   UNL     1      28.877  -2.313 -24.875  0.00  0.00    -0.343 N 
ATOM     29  N   UNL     1      30.952  -1.960 -25.892  0.00  0.00    -0.285 NA
ATOM     30  C   UNL     1      30.264  -2.445 -24.873  0.00  0.00    +0.117 C 
ATOM     31  H   UNL     1      28.427  -1.861 -25.625  0.00  0.00    +0.144 HD
ATOM     32  H   UNL     1      28.347  -2.671 -24.127  0.00  0.00    +0.144 HD
ATOM     33  H   UNL     1      30.483  -1.511 -26.633  0.00  0.00    +0.188 HD
ENDBRANCH  25  30
ENDBRANCH  21  22
ENDBRANCH   3  21
TORSDOF 5
ENDMDL
MODEL 9
REMARK VINA RESULT:     -10.2      5.957      9.146
REMARK  Name = 447359
REMARK  5 active torsions:
REMARK  status: ('A' for Active; 'I' for Inactive)
REMARK    1  A    between atoms: N_2  and  S_8
REMARK    2  A    between atoms: N_3  and  C_21
REMARK    3  A    between atoms: S_8  and  C_13
REMARK    4  A    between atoms: C_21  and  C_22
REMARK    5  A    between atoms: C_25  and  C_30
REMARK                            x       y       z     vdW  Elec       q    Type
REMARK                         _______ _______ _______ _____ _____    ______ ____
ROOT
ATOM      1  O   UNL     1      32.396 -11.066 -23.752  0.00  0.00    -0.273 OA
ATOM      2  N   UNL     1      31.915  -8.521 -21.223  0.00  0.00    -0.144 NA
ATOM      3  N   UNL     1      31.603 -11.280 -21.584  0.00  0.00    -0.273 N 
ATOM      4  C   UNL     1      31.973  -9.393 -20.029  0.00  0.00    +0.118 C 
ATOM      5  C   UNL     1      31.169 -10.635 -20.349  0.00  0.00    +0.113 C 
ATOM      6  C   UNL     1      32.581  -9.147 -22.381  0.00  0.00    +0.181 C 
ATOM      7  C   UNL     1      32.164 -10.572 -22.644  0.00  0.00    +0.244 C 
ENDROOT
BRANCH   2   8
ATOM      8  S   UNL     1      32.283  -6.870 -20.960  0.00  0.00    +0.069 S 
ATOM      9  O   UNL     1      33.350  -6.786 -19.984  0.00  0.00    -0.152 OA
ATOM     10  O   UNL     1      31.050  -6.126 -20.814  0.00  0.00    -0.152 OA
BRANCH   8  13
ATOM     11 CL   UNL     1      36.820  -5.101 -27.518  0.00  0.00    -0.082 Cl
ATOM     12  S   UNL     1      34.472  -6.942 -22.888  0.00  0.00    -0.067 S 
ATOM     13  C   UNL     1      32.996  -6.231 -22.472  0.00  0.00    +0.152 C 
ATOM     14  C   UNL     1      32.574  -5.285 -23.343  0.00  0.00    +0.027 C 
ATOM     15  C   UNL     1      33.496  -5.110 -24.430  0.00  0.00    +0.008 C 
ATOM     16  C   UNL     1      34.595  -5.966 -24.304  0.00  0.00    +0.032 C 
ATOM     17  C   UNL     1      33.449  -4.242 -25.546  0.00  0.00    +0.001 C 
ATOM     18  C   UNL     1      35.635  -5.974 -25.254  0.00  0.00    +0.018 C 
ATOM     19  C   UNL     1      34.478  -4.247 -26.491  0.00  0.00    +0.011 C 
ATOM     20  C   UNL     1      35.559  -5.105 -26.344  0.00  0.00    +0.058 C 
ENDBRANCH   8  13
ENDBRANCH   2   8
BRANCH   3  21
ATOM     21  C   UNL     1      31.206 -12.670 -21.759  0.00  0.00    +0.120 C 
BRANCH  21  22
ATOM     22  C   UNL     1      32.427 -13.532 -21.860  0.00  0.00    -0.002 C 
ATOM     23  C   UNL     1      32.708 -14.194 -23.050  0.00  0.00    +0.000 C 
ATOM     24  C   UNL     1      33.271 -13.666 -20.761  0.00  0.00    -0.003 C 
ATOM     25  C   UNL     1      33.844 -14.998 -23.144  0.00  0.00    +0.030 C 
ATOM     26  C   UNL     1      34.407 -14.469 -20.855  0.00  0.00    -0.000 C 
ATOM     27  C   UNL     1      34.694 -15.136 -22.046  0.00  0.00    +0.003 C 
BRANCH  25  30
ATOM     28  N   UNL     1      35.227 -16.565 -24.486  0.00  0.00    -0.343 N 
ATOM     29  N   UNL     1      33.382 -15.499 -25.449  0.00  0.00    -0.285 NA
ATOM     30  C   UNL     1      34.144 -15.693 -24.386  0.00  0.00    +0.117 C 
ATOM     31  H   UNL     1      35.411 -17.025 -25.337  0.00  0.00    +0.144 HD
ATOM     32  H   UNL     1      35.807 -16.720 -23.707  0.00  0.00    +0.144 HD
ATOM     33  H   UNL     1      33.583 -15.969 -26.291  0.00  0.00    +0.188 HD
ENDBRANCH  25  30
ENDBRANCH  21  22
ENDBRANCH   3  21
TORSDOF 5
ENDMDL
