MODEL 1
REMARK VINA RESULT:     -11.3      0.000      0.000
REMARK  Name = 444698
REMARK  5 active torsions:
REMARK  status: ('A' for Active; 'I' for Inactive)
REMARK    1  A    between atoms: S_1  and  N_4
REMARK    2  A    between atoms: S_1  and  C_18
REMARK    3  A    between atoms: C_5  and  C_15
REMARK    4  A    between atoms: C_15  and  O_16
REMARK    5  A    between atoms: C_21  and  C_24
REMARK                            x       y       z     vdW  Elec       q    Type
REMARK                         _______ _______ _______ _____ _____    ______ ____
ROOT
ATOM      1  S   UNL     1      35.912 -19.147 -22.420  0.00  0.00    +0.064 S 
ATOM      2  O   UNL     1      37.274 -18.849 -22.026  0.00  0.00    -0.153 OA
ATOM      3  O   UNL     1      35.611 -19.940 -23.594  0.00  0.00    -0.153 OA
ENDROOT
BRANCH   1   4
ATOM      4  N   UNL     1      35.032 -17.683 -22.490  0.00  0.00    -0.141 NA
ATOM      5  C   UNL     1      34.983 -16.989 -23.810  0.00  0.00    +0.182 C 
ATOM      6  C   UNL     1      34.993 -15.461 -23.732  0.00  0.00    +0.055 C 
ATOM      7  C   UNL     1      35.088 -16.825 -21.274  0.00  0.00    +0.122 C 
ATOM      8  C   UNL     1      34.164 -14.928 -22.595  0.00  0.00    -0.023 C 
ATOM      9  C   UNL     1      34.210 -15.609 -21.371  0.00  0.00    -0.008 C 
ATOM     10  C   UNL     1      33.404 -13.760 -22.716  0.00  0.00    -0.004 C 
ATOM     11  C   UNL     1      33.497 -15.120 -20.274  0.00  0.00    -0.003 C 
ATOM     12  C   UNL     1      32.682 -13.285 -21.621  0.00  0.00    -0.000 C 
ATOM     13  C   UNL     1      32.729 -13.963 -20.403  0.00  0.00    -0.000 C 
BRANCH   5  15
ATOM     14  O   UNL     1      33.244 -18.606 -24.263  0.00  0.00    -0.249 OA
ATOM     15  C   UNL     1      33.713 -17.489 -24.429  0.00  0.00    +0.330 C 
BRANCH  15  16
ATOM     16  O   UNL     1      33.150 -16.532 -25.205  0.00  0.00    -0.479 OA
ATOM     17  H   UNL     1      33.120 -15.644 -24.907  0.00  0.00    +0.295 HD
ENDBRANCH  15  16
ENDBRANCH   5  15
ENDBRANCH   1   4
BRANCH   1  18
ATOM     18  C   UNL     1      35.245 -20.112 -21.068  0.00  0.00    +0.122 C 
ATOM     19  C   UNL     1      33.881 -20.185 -20.926  0.00  0.00    +0.020 C 
ATOM     20  C   UNL     1      36.123 -20.744 -20.221  0.00  0.00    +0.020 C 
ATOM     21  C   UNL     1      34.223 -21.592 -18.993  0.00  0.00    +0.000 C 
ATOM     22  C   UNL     1      33.362 -20.936 -19.872  0.00  0.00    +0.001 C 
ATOM     23  C   UNL     1      35.604 -21.495 -19.167  0.00  0.00    +0.001 C 
BRANCH  21  24
ATOM     24  C   UNL     1      33.685 -22.371 -17.900  0.00  0.00    +0.000 C 
ATOM     25  C   UNL     1      32.305 -22.442 -17.706  0.00  0.00    +0.000 C 
ATOM     26  C   UNL     1      34.546 -23.052 -17.039  0.00  0.00    +0.000 C 
ATOM     27  C   UNL     1      31.787 -23.194 -16.651  0.00  0.00    +0.000 C 
ATOM     28  C   UNL     1      34.028 -23.804 -15.984  0.00  0.00    +0.000 C 
ATOM     29  C   UNL     1      32.647 -23.875 -15.790  0.00  0.00    +0.000 C 
ENDBRANCH  21  24
ENDBRANCH   1  18
TORSDOF 5
ENDMDL
MODEL 2
REMARK VINA RESULT:     -11.2      5.588      9.604
REMARK  Name = 444698
REMARK  5 active torsions:
REMARK  status: ('A' for Active; 'I' for Inactive)
REMARK    1  A    between atoms: S_1  and  N_4
REMARK    2  A    between atoms: S_1  and  C_18
REMARK    3  A    between atoms: C_5  and  C_15
REMARK    4  A    between atoms: C_15  and  O_16
REMARK    5  A    between atoms: C_21  and  C_24
REMARK                            x       y       z     vdW  Elec       q    Type
REMARK                         _______ _______ _______ _____ _____    ______ ____
ROOT
ATOM      1  S   UNL     1      35.012 -23.876 -15.291  0.00  0.00    +0.064 S 
ATOM      2  O   UNL     1      35.462 -25.198 -15.678  0.00  0.00    -0.153 OA
ATOM      3  O   UNL     1      35.657 -23.129 -14.231  0.00  0.00    -0.153 OA
ENDROOT
BRANCH   1   4
ATOM      4  N   UNL     1      33.330 -23.937 -14.993  0.00  0.00    -0.141 NA
ATOM      5  C   UNL     1      32.872 -24.845 -13.903  0.00  0.00    +0.182 C 
ATOM      6  C   UNL     1      31.529 -25.533 -14.162  0.00  0.00    +0.055 C 
ATOM      7  C   UNL     1      32.448 -23.810 -16.187  0.00  0.00    +0.122 C 
ATOM      8  C   UNL     1      30.529 -24.630 -14.828  0.00  0.00    -0.023 C 
ATOM      9  C   UNL     1      30.987 -23.770 -15.837  0.00  0.00    -0.008 C 
ATOM     10  C   UNL     1      29.168 -24.665 -14.507  0.00  0.00    -0.004 C 
ATOM     11  C   UNL     1      30.084 -22.951 -16.518  0.00  0.00    -0.003 C 
ATOM     12  C   UNL     1      28.273 -23.834 -15.181  0.00  0.00    -0.000 C 
ATOM     13  C   UNL     1      28.729 -22.979 -16.184  0.00  0.00    -0.000 C 
BRANCH   5  15
ATOM     14  O   UNL     1      31.802 -23.334 -12.349  0.00  0.00    -0.249 OA
ATOM     15  C   UNL     1      32.796 -23.952 -12.703  0.00  0.00    +0.330 C 
BRANCH  15  16
ATOM     16  O   UNL     1      33.987 -23.916 -12.056  0.00  0.00    -0.479 OA
ATOM     17  H   UNL     1      34.128 -23.293 -11.370  0.00  0.00    +0.295 HD
ENDBRANCH  15  16
ENDBRANCH   5  15
ENDBRANCH   1   4
BRANCH   1  18
ATOM     18  C   UNL     1      35.266 -22.863 -16.745  0.00  0.00    +0.122 C 
ATOM     19  C   UNL     1      36.462 -22.203 -16.882  0.00  0.00    +0.020 C 
ATOM     20  C   UNL     1      34.254 -22.784 -17.671  0.00  0.00    +0.020 C 
ATOM     21  C   UNL     1      35.653 -21.310 -18.976  0.00  0.00    +0.000 C 
ATOM     22  C   UNL     1      36.658 -21.413 -18.015  0.00  0.00    +0.001 C 
ATOM     23  C   UNL     1      34.451 -21.995 -18.804  0.00  0.00    +0.001 C 
BRANCH  21  24
ATOM     24  C   UNL     1      35.858 -20.491 -20.151  0.00  0.00    +0.000 C 
ATOM     25  C   UNL     1      34.855 -20.390 -21.115  0.00  0.00    +0.000 C 
ATOM     26  C   UNL     1      37.060 -19.803 -20.320  0.00  0.00    +0.000 C 
ATOM     27  C   UNL     1      35.054 -19.600 -22.248  0.00  0.00    +0.000 C 
ATOM     28  C   UNL     1      37.258 -19.013 -21.452  0.00  0.00    +0.000 C 
ATOM     29  C   UNL     1      36.254 -18.911 -22.417  0.00  0.00    +0.000 C 
ENDBRANCH  21  24
ENDBRANCH   1  18
TORSDOF 5
ENDMDL
MODEL 3
REMARK VINA RESULT:     -10.4      5.813      8.808
REMARK  Name = 444698
REMARK  5 active torsions:
REMARK  status: ('A' for Active; 'I' for Inactive)
REMARK    1  A    between atoms: S_1  and  N_4
REMARK    2  A    between atoms: S_1  and  C_18
REMARK    3  A    between atoms: C_5  and  C_15
REMARK    4  A    between atoms: C_15  and  O_16
REMARK    5  A    between atoms: C_21  and  C_24
REMARK                            x       y       z     vdW  Elec       q    Type
REMARK                         _______ _______ _______ _____ _____    ______ ____
ROOT
ATOM      1  S   UNL     1      31.184 -10.917 -20.914  0.00  0.00    +0.064 S 
ATOM      2  O   UNL     1      29.998 -11.052 -21.735  0.00  0.00    -0.153 OA
ATOM      3  O   UNL     1      31.112 -10.863 -19.469  0.00  0.00    -0.153 OA
ENDROOT
BRANCH   1   4
ATOM      4  N   UNL     1      32.092  -9.584 -21.482  0.00  0.00    -0.141 NA
ATOM      5  C   UNL     1      31.629  -8.228 -21.067  0.00  0.00    +0.182 C 
ATOM      6  C   UNL     1      31.813  -7.136 -22.124  0.00  0.00    +0.055 C 
ATOM      7  C   UNL     1      32.666  -9.717 -22.851  0.00  0.00    +0.122 C 
ATOM      8  C   UNL     1      33.108  -7.266 -22.879  0.00  0.00    -0.023 C 
ATOM      9  C   UNL     1      33.533  -8.553 -23.239  0.00  0.00    -0.008 C 
ATOM     10  C   UNL     1      33.855  -6.150 -23.267  0.00  0.00    -0.004 C 
ATOM     11  C   UNL     1      34.702  -8.716 -23.986  0.00  0.00    -0.003 C 
ATOM     12  C   UNL     1      35.030  -6.320 -24.000  0.00  0.00    -0.000 C 
ATOM     13  C   UNL     1      35.452  -7.601 -24.359  0.00  0.00    -0.000 C 
BRANCH   5  15
ATOM     14  O   UNL     1      33.537  -7.399 -19.837  0.00  0.00    -0.249 OA
ATOM     15  C   UNL     1      32.437  -7.934 -19.841  0.00  0.00    +0.330 C 
BRANCH  15  16
ATOM     16  O   UNL     1      31.786  -8.346 -18.727  0.00  0.00    -0.479 OA
ATOM     17  H   UNL     1      32.256  -8.783 -18.044  0.00  0.00    +0.295 HD
ENDBRANCH  15  16
ENDBRANCH   5  15
ENDBRANCH   1   4
BRANCH   1  18
ATOM     18  C   UNL     1      32.138 -12.396 -21.242  0.00  0.00    +0.122 C 
ATOM     19  C   UNL     1      32.526 -12.652 -22.534  0.00  0.00    +0.020 C 
ATOM     20  C   UNL     1      32.446 -13.221 -20.187  0.00  0.00    +0.020 C 
ATOM     21  C   UNL     1      33.600 -14.665 -21.743  0.00  0.00    +0.000 C 
ATOM     22  C   UNL     1      33.268 -13.805 -22.788  0.00  0.00    +0.001 C 
ATOM     23  C   UNL     1      33.189 -14.374 -20.442  0.00  0.00    +0.001 C 
BRANCH  21  24
ATOM     24  C   UNL     1      34.370 -15.861 -22.007  0.00  0.00    +0.000 C 
ATOM     25  C   UNL     1      34.547 -16.302 -23.319  0.00  0.00    +0.000 C 
ATOM     26  C   UNL     1      34.936 -16.574 -20.950  0.00  0.00    +0.000 C 
ATOM     27  C   UNL     1      35.290 -17.456 -23.572  0.00  0.00    +0.000 C 
ATOM     28  C   UNL     1      35.679 -17.727 -21.203  0.00  0.00    +0.000 C 
ATOM     29  C   UNL     1      35.856 -18.168 -22.515  0.00  0.00    +0.000 C 
ENDBRANCH  21  24
ENDBRANCH   1  18
TORSDOF 5
ENDMDL
MODEL 4
REMARK VINA RESULT:     -10.2      6.611      9.636
REMARK  Name = 444698
REMARK  5 active torsions:
REMARK  status: ('A' for Active; 'I' for Inactive)
REMARK    1  A    between atoms: S_1  and  N_4
REMARK    2  A    between atoms: S_1  and  C_18
REMARK    3  A    between atoms: C_5  and  C_15
REMARK    4  A    between atoms: C_15  and  O_16
REMARK    5  A    between atoms: C_21  and  C_24
REMARK                            x       y       z     vdW  Elec       q    Type
REMARK                         _______ _______ _______ _____ _____    ______ ____
ROOT
ATOM      1  S   UNL     1      31.470 -10.286 -20.162  0.00  0.00    +0.064 S 
ATOM      2  O   UNL     1      30.046 -10.551 -20.133  0.00  0.00    -0.153 OA
ATOM      3  O   UNL     1      32.248 -10.151 -18.947  0.00  0.00    -0.153 OA
ENDROOT
BRANCH   1   4
ATOM      4  N   UNL     1      31.753  -8.930 -21.164  0.00  0.00    -0.141 NA
ATOM      5  C   UNL     1      31.795  -7.597 -20.497  0.00  0.00    +0.182 C 
ATOM      6  C   UNL     1      31.214  -6.448 -21.325  0.00  0.00    +0.055 C 
ATOM      7  C   UNL     1      31.161  -8.989 -22.530  0.00  0.00    +0.122 C 
ATOM      8  C   UNL     1      31.562  -6.545 -22.785  0.00  0.00    -0.023 C 
ATOM      9  C   UNL     1      31.537  -7.812 -23.385  0.00  0.00    -0.008 C 
ATOM     10  C   UNL     1      31.853  -5.414 -23.555  0.00  0.00    -0.004 C 
ATOM     11  C   UNL     1      31.803  -7.942 -24.750  0.00  0.00    -0.003 C 
ATOM     12  C   UNL     1      32.132  -5.552 -24.915  0.00  0.00    -0.000 C 
ATOM     13  C   UNL     1      32.107  -6.813 -25.511  0.00  0.00    -0.000 C 
BRANCH   5  15
ATOM     14  O   UNL     1      34.139  -7.429 -21.061  0.00  0.00    -0.249 OA
ATOM     15  C   UNL     1      33.251  -7.380 -20.221  0.00  0.00    +0.330 C 
BRANCH  15  16
ATOM     16  O   UNL     1      33.457  -7.124 -18.907  0.00  0.00    -0.479 OA
ATOM     17  H   UNL     1      32.735  -6.887 -18.358  0.00  0.00    +0.295 HD
ENDBRANCH  15  16
ENDBRANCH   5  15
ENDBRANCH   1   4
BRANCH   1  18
ATOM     18  C   UNL     1      32.185 -11.713 -20.972  0.00  0.00    +0.122 C 
ATOM     19  C   UNL     1      32.367 -12.859 -20.238  0.00  0.00    +0.020 C 
ATOM     20  C   UNL     1      32.524 -11.610 -22.299  0.00  0.00    +0.020 C 
ATOM     21  C   UNL     1      33.280 -13.902 -22.216  0.00  0.00    +0.000 C 
ATOM     22  C   UNL     1      32.924 -13.971 -20.870  0.00  0.00    +0.001 C 
ATOM     23  C   UNL     1      33.081 -12.722 -22.931  0.00  0.00    +0.001 C 
BRANCH  21  24
ATOM     24  C   UNL     1      33.858 -15.056 -22.871  0.00  0.00    +0.000 C 
ATOM     25  C   UNL     1      33.578 -15.310 -24.213  0.00  0.00    +0.000 C 
ATOM     26  C   UNL     1      34.696 -15.914 -22.158  0.00  0.00    +0.000 C 
ATOM     27  C   UNL     1      34.135 -16.423 -24.843  0.00  0.00    +0.000 C 
ATOM     28  C   UNL     1      35.254 -17.027 -22.788  0.00  0.00    +0.000 C 
ATOM     29  C   UNL     1      34.973 -17.282 -24.132  0.00  0.00    +0.000 C 
ENDBRANCH  21  24
ENDBRANCH   1  18
TORSDOF 5
ENDMDL
MODEL 5
REMARK VINA RESULT:      -9.9      1.958      3.369
REMARK  Name = 444698
REMARK  5 active torsions:
REMARK  status: ('A' for Active; 'I' for Inactive)
REMARK    1  A    between atoms: S_1  and  N_4
REMARK    2  A    between atoms: S_1  and  C_18
REMARK    3  A    between atoms: C_5  and  C_15
REMARK    4  A    between atoms: C_15  and  O_16
REMARK    5  A    between atoms: C_21  and  C_24
REMARK                            x       y       z     vdW  Elec       q    Type
REMARK                         _______ _______ _______ _____ _____    ______ ____
ROOT
ATOM      1  S   UNL     1      35.084 -16.253 -24.218  0.00  0.00    +0.064 S 
ATOM      2  O   UNL     1      36.476 -15.855 -24.148  0.00  0.00    -0.153 OA
ATOM      3  O   UNL     1      34.511 -16.822 -25.420  0.00  0.00    -0.153 OA
ENDROOT
BRANCH   1   4
ATOM      4  N   UNL     1      34.116 -14.943 -23.699  0.00  0.00    -0.141 NA
ATOM      5  C   UNL     1      34.133 -13.716 -24.545  0.00  0.00    +0.182 C 
ATOM      6  C   UNL     1      34.032 -12.400 -23.770  0.00  0.00    +0.055 C 
ATOM      7  C   UNL     1      34.009 -14.751 -22.225  0.00  0.00    +0.122 C 
ATOM      8  C   UNL     1      33.075 -12.476 -22.613  0.00  0.00    -0.023 C 
ATOM      9  C   UNL     1      33.062 -13.648 -21.844  0.00  0.00    -0.008 C 
ATOM     10  C   UNL     1      32.250 -11.402 -22.261  0.00  0.00    -0.004 C 
ATOM     11  C   UNL     1      32.225 -13.742 -20.729  0.00  0.00    -0.003 C 
ATOM     12  C   UNL     1      31.406 -11.507 -21.156  0.00  0.00    -0.000 C 
ATOM     13  C   UNL     1      31.394 -12.674 -20.391  0.00  0.00    -0.000 C 
BRANCH   5  15
ATOM     14  O   UNL     1      32.543 -13.053 -26.241  0.00  0.00    -0.249 OA
ATOM     15  C   UNL     1      32.958 -13.895 -25.458  0.00  0.00    +0.330 C 
BRANCH  15  16
ATOM     16  O   UNL     1      32.410 -15.123 -25.298  0.00  0.00    -0.479 OA
ATOM     17  H   UNL     1      31.967 -15.338 -24.500  0.00  0.00    +0.295 HD
ENDBRANCH  15  16
ENDBRANCH   5  15
ENDBRANCH   1   4
BRANCH   1  18
ATOM     18  C   UNL     1      34.921 -17.559 -23.005  0.00  0.00    +0.122 C 
ATOM     19  C   UNL     1      35.392 -17.334 -21.735  0.00  0.00    +0.020 C 
ATOM     20  C   UNL     1      34.329 -18.738 -23.389  0.00  0.00    +0.020 C 
ATOM     21  C   UNL     1      34.669 -19.562 -21.144  0.00  0.00    +0.000 C 
ATOM     22  C   UNL     1      35.265 -18.352 -20.790  0.00  0.00    +0.001 C 
ATOM     23  C   UNL     1      34.202 -19.755 -22.444  0.00  0.00    +0.001 C 
BRANCH  21  24
ATOM     24  C   UNL     1      34.538 -20.618 -20.163  0.00  0.00    +0.000 C 
ATOM     25  C   UNL     1      35.676 -21.204 -19.611  0.00  0.00    +0.000 C 
ATOM     26  C   UNL     1      33.270 -21.048 -19.770  0.00  0.00    +0.000 C 
ATOM     27  C   UNL     1      35.548 -22.223 -18.666  0.00  0.00    +0.000 C 
ATOM     28  C   UNL     1      33.142 -22.066 -18.824  0.00  0.00    +0.000 C 
ATOM     29  C   UNL     1      34.281 -22.653 -18.272  0.00  0.00    +0.000 C 
ENDBRANCH  21  24
ENDBRANCH   1  18
TORSDOF 5
ENDMDL
MODEL 6
REMARK VINA RESULT:      -9.8      5.668      9.928
REMARK  Name = 444698
REMARK  5 active torsions:
REMARK  status: ('A' for Active; 'I' for Inactive)
REMARK    1  A    between atoms: S_1  and  N_4
REMARK    2  A    between atoms: S_1  and  C_18
REMARK    3  A    between atoms: C_5  and  C_15
REMARK    4  A    between atoms: C_15  and  O_16
REMARK    5  A    between atoms: C_21  and  C_24
REMARK                            x       y       z     vdW  Elec       q    Type
REMARK                         _______ _______ _______ _____ _____    ______ ____
ROOT
ATOM      1  S   UNL     1      36.746 -23.428 -14.893  0.00  0.00    +0.064 S 
ATOM      2  O   UNL     1      37.395 -24.662 -15.288  0.00  0.00    -0.153 OA
ATOM      3  O   UNL     1      37.381 -22.482 -14.000  0.00  0.00    -0.153 OA
ENDROOT
BRANCH   1   4
ATOM      4  N   UNL     1      35.184 -23.797 -14.303  0.00  0.00    -0.141 NA
ATOM      5  C   UNL     1      35.046 -25.045 -13.499  0.00  0.00    +0.182 C 
ATOM      6  C   UNL     1      33.725 -25.792 -13.696  0.00  0.00    +0.055 C 
ATOM      7  C   UNL     1      34.045 -23.431 -15.190  0.00  0.00    +0.122 C 
ATOM      8  C   UNL     1      32.544 -24.869 -13.819  0.00  0.00    -0.023 C 
ATOM      9  C   UNL     1      32.705 -23.691 -14.563  0.00  0.00    -0.008 C 
ATOM     10  C   UNL     1      31.299 -25.179 -13.263  0.00  0.00    -0.004 C 
ATOM     11  C   UNL     1      31.620 -22.830 -14.746  0.00  0.00    -0.003 C 
ATOM     12  C   UNL     1      30.223 -24.308 -13.438  0.00  0.00    -0.000 C 
ATOM     13  C   UNL     1      30.383 -23.136 -14.178  0.00  0.00    -0.000 C 
BRANCH   5  15
ATOM     14  O   UNL     1      34.998 -25.265 -11.093  0.00  0.00    -0.249 OA
ATOM     15  C   UNL     1      35.195 -24.577 -12.084  0.00  0.00    +0.330 C 
BRANCH  15  16
ATOM     16  O   UNL     1      35.578 -23.278 -12.047  0.00  0.00    -0.479 OA
ATOM     17  H   UNL     1      35.971 -22.884 -12.802  0.00  0.00    +0.295 HD
ENDBRANCH  15  16
ENDBRANCH   5  15
ENDBRANCH   1   4
BRANCH   1  18
ATOM     18  C   UNL     1      36.543 -22.510 -16.417  0.00  0.00    +0.122 C 
ATOM     19  C   UNL     1      37.365 -21.434 -16.646  0.00  0.00    +0.020 C 
ATOM     20  C   UNL     1      35.573 -22.916 -17.300  0.00  0.00    +0.020 C 
ATOM     21  C   UNL     1      36.232 -21.103 -18.753  0.00  0.00    +0.000 C 
ATOM     22  C   UNL     1      37.206 -20.719 -17.833  0.00  0.00    +0.001 C 
ATOM     23  C   UNL     1      35.415 -22.201 -18.487  0.00  0.00    +0.001 C 
BRANCH  21  24
ATOM     24  C   UNL     1      36.068 -20.360 -19.985  0.00  0.00    +0.000 C 
ATOM     25  C   UNL     1      34.874 -20.449 -20.700  0.00  0.00    +0.000 C 
ATOM     26  C   UNL     1      37.105 -19.556 -20.456  0.00  0.00    +0.000 C 
ATOM     27  C   UNL     1      34.717 -19.733 -21.887  0.00  0.00    +0.000 C 
ATOM     28  C   UNL     1      36.948 -18.839 -21.643  0.00  0.00    +0.000 C 
ATOM     29  C   UNL     1      35.753 -18.928 -22.359  0.00  0.00    +0.000 C 
ENDBRANCH  21  24
ENDBRANCH   1  18
TORSDOF 5
ENDMDL
MODEL 7
REMARK VINA RESULT:      -9.6      6.444     12.223
REMARK  Name = 444698
REMARK  5 active torsions:
REMARK  status: ('A' for Active; 'I' for Inactive)
REMARK    1  A    between atoms: S_1  and  N_4
REMARK    2  A    between atoms: S_1  and  C_18
REMARK    3  A    between atoms: C_5  and  C_15
REMARK    4  A    between atoms: C_15  and  O_16
REMARK    5  A    between atoms: C_21  and  C_24
REMARK                            x       y       z     vdW  Elec       q    Type
REMARK                         _______ _______ _______ _____ _____    ______ ____
ROOT
ATOM      1  S   UNL     1      31.937 -10.256 -22.045  0.00  0.00    +0.064 S 
ATOM      2  O   UNL     1      32.400  -9.820 -20.744  0.00  0.00    -0.153 OA
ATOM      3  O   UNL     1      30.540 -10.190 -22.422  0.00  0.00    -0.153 OA
ENDROOT
BRANCH   1   4
ATOM      4  N   UNL     1      32.523 -11.837 -22.331  0.00  0.00    -0.141 NA
ATOM      5  C   UNL     1      33.165 -12.535 -21.181  0.00  0.00    +0.182 C 
ATOM      6  C   UNL     1      34.344 -13.437 -21.555  0.00  0.00    +0.055 C 
ATOM      7  C   UNL     1      33.092 -12.091 -23.684  0.00  0.00    +0.122 C 
ATOM      8  C   UNL     1      34.116 -14.195 -22.834  0.00  0.00    -0.023 C 
ATOM      9  C   UNL     1      33.491 -13.524 -23.894  0.00  0.00    -0.008 C 
ATOM     10  C   UNL     1      34.553 -15.513 -23.003  0.00  0.00    -0.004 C 
ATOM     11  C   UNL     1      33.306 -14.173 -25.118  0.00  0.00    -0.003 C 
ATOM     12  C   UNL     1      34.353 -16.161 -24.222  0.00  0.00    -0.000 C 
ATOM     13  C   UNL     1      33.731 -15.492 -25.278  0.00  0.00    -0.000 C 
BRANCH   5  15
ATOM     14  O   UNL     1      32.177 -14.412 -20.023  0.00  0.00    -0.249 OA
ATOM     15  C   UNL     1      32.049 -13.329 -20.576  0.00  0.00    +0.330 C 
BRANCH  15  16
ATOM     16  O   UNL     1      30.866 -12.686 -20.726  0.00  0.00    -0.479 OA
ATOM     17  H   UNL     1      30.782 -11.792 -20.456  0.00  0.00    +0.295 HD
ENDBRANCH  15  16
ENDBRANCH   5  15
ENDBRANCH   1   4
BRANCH   1  18
ATOM     18  C   UNL     1      32.747  -9.163 -23.209  0.00  0.00    +0.122 C 
ATOM     19  C   UNL     1      31.978  -8.521 -24.148  0.00  0.00    +0.020 C 
ATOM     20  C   UNL     1      34.109  -9.007 -23.119  0.00  0.00    +0.020 C 
ATOM     21  C   UNL     1      33.990  -7.487 -24.993  0.00  0.00    +0.000 C 
ATOM     22  C   UNL     1      32.609  -7.670 -25.054  0.00  0.00    +0.001 C 
ATOM     23  C   UNL     1      34.740  -8.155 -24.026  0.00  0.00    +0.001 C 
BRANCH  21  24
ATOM     24  C   UNL     1      34.645  -6.604 -25.933  0.00  0.00    +0.000 C 
ATOM     25  C   UNL     1      35.585  -5.677 -25.483  0.00  0.00    +0.000 C 
ATOM     26  C   UNL     1      34.336  -6.680 -27.292  0.00  0.00    +0.000 C 
ATOM     27  C   UNL     1      36.215  -4.825 -26.391  0.00  0.00    +0.000 C 
ATOM     28  C   UNL     1      34.966  -5.829 -28.200  0.00  0.00    +0.000 C 
ATOM     29  C   UNL     1      35.907  -4.901 -27.749  0.00  0.00    +0.000 C 
ENDBRANCH  21  24
ENDBRANCH   1  18
TORSDOF 5
ENDMDL
MODEL 8
REMARK VINA RESULT:      -9.5      5.284     10.130
REMARK  Name = 444698
REMARK  5 active torsions:
REMARK  status: ('A' for Active; 'I' for Inactive)
REMARK    1  A    between atoms: S_1  and  N_4
REMARK    2  A    between atoms: S_1  and  C_18
REMARK    3  A    between atoms: C_5  and  C_15
REMARK    4  A    between atoms: C_15  and  O_16
REMARK    5  A    between atoms: C_21  and  C_24
REMARK                            x       y       z     vdW  Elec       q    Type
REMARK                         _______ _______ _______ _____ _____    ______ ____
ROOT
ATOM      1  S   UNL     1      32.804 -23.834 -16.354  0.00  0.00    +0.064 S 
ATOM      2  O   UNL     1      31.856 -22.975 -15.676  0.00  0.00    -0.153 OA
ATOM      3  O   UNL     1      32.381 -24.998 -17.105  0.00  0.00    -0.153 OA
ENDROOT
BRANCH   1   4
ATOM      4  N   UNL     1      34.018 -24.293 -15.241  0.00  0.00    -0.141 NA
ATOM      5  C   UNL     1      34.268 -23.368 -14.098  0.00  0.00    +0.182 C 
ATOM      6  C   UNL     1      35.731 -23.275 -13.657  0.00  0.00    +0.055 C 
ATOM      7  C   UNL     1      35.197 -25.003 -15.812  0.00  0.00    +0.122 C 
ATOM      8  C   UNL     1      36.437 -24.603 -13.690  0.00  0.00    -0.023 C 
ATOM      9  C   UNL     1      36.169 -25.464 -14.764  0.00  0.00    -0.008 C 
ATOM     10  C   UNL     1      37.376 -24.968 -12.721  0.00  0.00    -0.004 C 
ATOM     11  C   UNL     1      36.841 -26.685 -14.862  0.00  0.00    -0.003 C 
ATOM     12  C   UNL     1      38.034 -26.194 -12.816  0.00  0.00    -0.000 C 
ATOM     13  C   UNL     1      37.767 -27.051 -13.884  0.00  0.00    -0.000 C 
BRANCH   5  15
ATOM     14  O   UNL     1      33.608 -24.968 -12.411  0.00  0.00    -0.249 OA
ATOM     15  C   UNL     1      33.408 -23.916 -13.001  0.00  0.00    +0.330 C 
BRANCH  15  16
ATOM     16  O   UNL     1      32.368 -23.085 -12.747  0.00  0.00    -0.479 OA
ATOM     17  H   UNL     1      32.351 -22.227 -13.125  0.00  0.00    +0.295 HD
ENDBRANCH  15  16
ENDBRANCH   5  15
ENDBRANCH   1   4
BRANCH   1  18
ATOM     18  C   UNL     1      33.571 -22.785 -17.586  0.00  0.00    +0.122 C 
ATOM     19  C   UNL     1      34.940 -22.673 -17.588  0.00  0.00    +0.020 C 
ATOM     20  C   UNL     1      32.762 -22.132 -18.483  0.00  0.00    +0.020 C 
ATOM     21  C   UNL     1      34.747 -21.177 -19.474  0.00  0.00    +0.000 C 
ATOM     22  C   UNL     1      35.537 -21.855 -18.547  0.00  0.00    +0.001 C 
ATOM     23  C   UNL     1      33.360 -21.314 -19.442  0.00  0.00    +0.001 C 
BRANCH  21  24
ATOM     24  C   UNL     1      35.368 -20.329 -20.469  0.00  0.00    +0.000 C 
ATOM     25  C   UNL     1      34.659 -19.960 -21.613  0.00  0.00    +0.000 C 
ATOM     26  C   UNL     1      36.675 -19.880 -20.284  0.00  0.00    +0.000 C 
ATOM     27  C   UNL     1      35.258 -19.143 -22.572  0.00  0.00    +0.000 C 
ATOM     28  C   UNL     1      37.275 -19.062 -21.242  0.00  0.00    +0.000 C 
ATOM     29  C   UNL     1      36.566 -18.693 -22.387  0.00  0.00    +0.000 C 
ENDBRANCH  21  24
ENDBRANCH   1  18
TORSDOF 5
ENDMDL
MODEL 9
REMARK VINA RESULT:      -9.4      1.481      7.855
REMARK  Name = 444698
REMARK  5 active torsions:
REMARK  status: ('A' for Active; 'I' for Inactive)
REMARK    1  A    between atoms: S_1  and  N_4
REMARK    2  A    between atoms: S_1  and  C_18
REMARK    3  A    between atoms: C_5  and  C_15
REMARK    4  A    between atoms: C_15  and  O_16
REMARK    5  A    between atoms: C_21  and  C_24
REMARK                            x       y       z     vdW  Elec       q    Type
REMARK                         _______ _______ _______ _____ _____    ______ ____
ROOT
ATOM      1  S   UNL     1      36.106 -18.949 -22.146  0.00  0.00    +0.064 S 
ATOM      2  O   UNL     1      35.654 -19.506 -23.405  0.00  0.00    -0.153 OA
ATOM      3  O   UNL     1      37.494 -18.608 -21.914  0.00  0.00    -0.153 OA
ENDROOT
BRANCH   1   4
ATOM      4  N   UNL     1      35.554 -19.953 -20.876  0.00  0.00    -0.141 NA
ATOM      5  C   UNL     1      36.544 -20.899 -20.287  0.00  0.00    +0.182 C 
ATOM      6  C   UNL     1      35.964 -22.248 -19.854  0.00  0.00    +0.055 C 
ATOM      7  C   UNL     1      34.143 -20.420 -20.976  0.00  0.00    +0.122 C 
ATOM      8  C   UNL     1      34.606 -22.122 -19.219  0.00  0.00    -0.023 C 
ATOM      9  C   UNL     1      33.700 -21.210 -19.778  0.00  0.00    -0.008 C 
ATOM     10  C   UNL     1      34.217 -22.918 -18.137  0.00  0.00    -0.004 C 
ATOM     11  C   UNL     1      32.410 -21.098 -19.252  0.00  0.00    -0.003 C 
ATOM     12  C   UNL     1      32.933 -22.792 -17.606  0.00  0.00    -0.000 C 
ATOM     13  C   UNL     1      32.031 -21.884 -18.163  0.00  0.00    -0.000 C 
BRANCH   5  15
ATOM     14  O   UNL     1      37.082 -20.544 -17.958  0.00  0.00    -0.249 OA
ATOM     15  C   UNL     1      37.101 -20.151 -19.116  0.00  0.00    +0.330 C 
BRANCH  15  16
ATOM     16  O   UNL     1      37.631 -18.968 -19.510  0.00  0.00    -0.479 OA
ATOM     17  H   UNL     1      37.078 -18.217 -19.608  0.00  0.00    +0.295 HD
ENDBRANCH  15  16
ENDBRANCH   5  15
ENDBRANCH   1   4
BRANCH   1  18
ATOM     18  C   UNL     1      35.250 -17.383 -22.005  0.00  0.00    +0.122 C 
ATOM     19  C   UNL     1      35.020 -16.874 -20.751  0.00  0.00    +0.020 C 
ATOM     20  C   UNL     1      34.856 -16.748 -23.158  0.00  0.00    +0.020 C 
ATOM     21  C   UNL     1      33.938 -14.981 -21.791  0.00  0.00    +0.000 C 
ATOM     22  C   UNL     1      34.352 -15.654 -20.642  0.00  0.00    +0.001 C 
ATOM     23  C   UNL     1      34.188 -15.528 -23.049  0.00  0.00    +0.001 C 
BRANCH  21  24
ATOM     24  C   UNL     1      33.245 -13.716 -21.677  0.00  0.00    +0.000 C 
ATOM     25  C   UNL     1      32.560 -13.397 -20.505  0.00  0.00    +0.000 C 
ATOM     26  C   UNL     1      33.264 -12.813 -22.741  0.00  0.00    +0.000 C 
ATOM     27  C   UNL     1      31.892 -12.177 -20.397  0.00  0.00    +0.000 C 
ATOM     28  C   UNL     1      32.598 -11.593 -22.633  0.00  0.00    +0.000 C 
ATOM     29  C   UNL     1      31.911 -11.274 -21.460  0.00  0.00    +0.000 C 
ENDBRANCH  21  24
ENDBRANCH   1  18
TORSDOF 5
ENDMDL
