MODEL 1
REMARK VINA RESULT:     -11.4      0.000      0.000
REMARK  Name = 11963557
REMARK  4 active torsions:
REMARK  status: ('A' for Active; 'I' for Inactive)
REMARK    1  A    between atoms: C_11  and  C_19
REMARK    2  A    between atoms: C_13  and  C_30
REMARK    3  A    between atoms: C_16  and  N_22
REMARK    4  A    between atoms: C_30  and  C_32
REMARK                            x       y       z     vdW  Elec       q    Type
REMARK                         _______ _______ _______ _____ _____    ______ ____
ROOT
ATOM      1  O   UNL     1      35.685 -22.434 -20.709  0.00  0.00    -0.270 OA
ATOM      2  O   UNL     1      34.486 -14.118 -20.379  0.00  0.00    -0.274 OA
ATOM      3  N   UNL     1      34.746 -15.937 -21.695  0.00  0.00    -0.233 N 
ATOM      4  N   UNL     1      35.318 -20.234 -19.978  0.00  0.00    -0.264 N 
ATOM      5  N   UNL     1      35.194 -19.121 -23.301  0.00  0.00    -0.273 N 
ATOM      6  N   UNL     1      35.327 -20.152 -22.399  0.00  0.00    -0.157 NA
ATOM      7  C   UNL     1      35.039 -18.110 -21.254  0.00  0.00    +0.067 A 
ATOM      8  C   UNL     1      35.032 -17.968 -22.621  0.00  0.00    +0.093 A 
ATOM      9  C   UNL     1      35.233 -19.532 -21.173  0.00  0.00    +0.157 A 
ATOM     10  C   UNL     1      34.870 -16.902 -20.654  0.00  0.00    +0.076 C 
ATOM     11  C   UNL     1      35.532 -21.607 -19.795  0.00  0.00    +0.251 C 
ATOM     12  C   UNL     1      34.856 -16.668 -22.894  0.00  0.00    +0.091 C 
ATOM     13  C   UNL     1      34.558 -14.565 -21.514  0.00  0.00    +0.238 C 
ATOM     14  H   UNL     1      35.215 -19.702 -19.156  0.00  0.00    +0.157 HD
ATOM     15  H   UNL     1      35.214 -19.210 -24.280  0.00  0.00    +0.189 HD
ENDROOT
BRANCH  11  19
ATOM     16  C   UNL     1      35.737 -22.937 -15.740  0.00  0.00    +0.048 C 
ATOM     17  C   UNL     1      34.580 -23.149 -16.516  0.00  0.00    +0.015 C 
ATOM     18  C   UNL     1      36.825 -22.273 -16.342  0.00  0.00    +0.015 C 
ATOM     19  C   UNL     1      35.602 -22.059 -18.416  0.00  0.00    +0.054 C 
ATOM     20  C   UNL     1      34.513 -22.714 -17.840  0.00  0.00    +0.006 C 
ATOM     21  C   UNL     1      36.758 -21.839 -17.666  0.00  0.00    +0.006 C 
BRANCH  16  22
ATOM     22  N   UNL     1      35.805 -23.373 -14.413  0.00  0.00    -0.312 N 
ATOM     23  N   UNL     1      35.984 -24.503 -11.796  0.00  0.00    +0.388 N 
ATOM     24  C   UNL     1      34.760 -24.286 -13.932  0.00  0.00    +0.068 C 
ATOM     25  C   UNL     1      37.110 -23.500 -13.755  0.00  0.00    +0.068 C 
ATOM     26  C   UNL     1      34.673 -24.244 -12.405  0.00  0.00    -0.056 C 
ATOM     27  C   UNL     1      36.947 -23.486 -12.233  0.00  0.00    -0.056 C 
ATOM     28  C   UNL     1      35.878 -24.516 -10.336  0.00  0.00    -0.101 C 
ATOM     29  H   UNL     1      36.312 -25.420 -12.098  0.00  0.00    -0.080 HD
ENDBRANCH  16  22
ENDBRANCH  11  19
BRANCH  13  30
ATOM     30  C   UNL     1      34.458 -13.755 -22.770  0.00  0.00    +0.119 C 
BRANCH  30  32
ATOM     31  S   UNL     1      33.521 -11.215 -23.305  0.00  0.00    -0.090 S 
ATOM     32  C   UNL     1      33.352 -12.757 -22.602  0.00  0.00    +0.016 C 
ATOM     33  C   UNL     1      32.173 -12.918 -21.932  0.00  0.00    +0.003 C 
ATOM     34  C   UNL     1      31.374 -11.740 -21.993  0.00  0.00    +0.007 C 
ATOM     35  C   UNL     1      31.988 -10.736 -22.710  0.00  0.00    +0.035 C 
ENDBRANCH  30  32
ENDBRANCH  13  30
TORSDOF 4
ENDMDL
MODEL 2
REMARK VINA RESULT:     -11.3      2.294      4.243
REMARK  Name = 11963557
REMARK  4 active torsions:
REMARK  status: ('A' for Active; 'I' for Inactive)
REMARK    1  A    between atoms: C_11  and  C_19
REMARK    2  A    between atoms: C_13  and  C_30
REMARK    3  A    between atoms: C_16  and  N_22
REMARK    4  A    between atoms: C_30  and  C_32
REMARK                            x       y       z     vdW  Elec       q    Type
REMARK                         _______ _______ _______ _____ _____    ______ ____
ROOT
ATOM      1  O   UNL     1      35.267 -19.034 -23.933  0.00  0.00    -0.270 OA
ATOM      2  O   UNL     1      32.422 -11.577 -21.290  0.00  0.00    -0.274 OA
ATOM      3  N   UNL     1      33.052 -12.838 -23.056  0.00  0.00    -0.233 N 
ATOM      4  N   UNL     1      34.460 -17.263 -22.623  0.00  0.00    -0.264 N 
ATOM      5  N   UNL     1      34.143 -15.256 -25.481  0.00  0.00    -0.273 N 
ATOM      6  N   UNL     1      34.473 -16.464 -24.910  0.00  0.00    -0.157 NA
ATOM      7  C   UNL     1      33.772 -14.948 -23.245  0.00  0.00    +0.067 A 
ATOM      8  C   UNL     1      33.748 -14.410 -24.509  0.00  0.00    +0.093 A 
ATOM      9  C   UNL     1      34.246 -16.266 -23.566  0.00  0.00    +0.157 A 
ATOM     10  C   UNL     1      33.358 -14.028 -22.333  0.00  0.00    +0.076 C 
ATOM     11  C   UNL     1      34.944 -18.561 -22.831  0.00  0.00    +0.251 C 
ATOM     12  C   UNL     1      33.317 -13.145 -24.405  0.00  0.00    +0.091 C 
ATOM     13  C   UNL     1      32.591 -11.644 -22.499  0.00  0.00    +0.238 C 
ATOM     14  H   UNL     1      34.245 -17.028 -21.691  0.00  0.00    +0.157 HD
ATOM     15  H   UNL     1      34.189 -15.044 -26.441  0.00  0.00    +0.189 HD
ENDROOT
BRANCH  11  19
ATOM     16  C   UNL     1      35.377 -20.970 -19.330  0.00  0.00    +0.048 C 
ATOM     17  C   UNL     1      36.476 -20.272 -19.871  0.00  0.00    +0.015 C 
ATOM     18  C   UNL     1      34.132 -20.850 -19.978  0.00  0.00    +0.015 C 
ATOM     19  C   UNL     1      35.092 -19.381 -21.640  0.00  0.00    +0.054 C 
ATOM     20  C   UNL     1      36.334 -19.485 -21.015  0.00  0.00    +0.006 C 
ATOM     21  C   UNL     1      33.991 -20.063 -21.122  0.00  0.00    +0.006 C 
BRANCH  16  22
ATOM     22  N   UNL     1      35.519 -21.758 -18.183  0.00  0.00    -0.312 N 
ATOM     23  N   UNL     1      35.841 -23.572 -16.000  0.00  0.00    +0.388 N 
ATOM     24  C   UNL     1      34.501 -22.785 -17.922  0.00  0.00    +0.068 C 
ATOM     25  C   UNL     1      36.857 -22.044 -17.657  0.00  0.00    +0.068 C 
ATOM     26  C   UNL     1      34.499 -23.174 -16.442  0.00  0.00    -0.056 C 
ATOM     27  C   UNL     1      36.779 -22.458 -16.185  0.00  0.00    -0.056 C 
ATOM     28  C   UNL     1      35.817 -23.994 -14.599  0.00  0.00    -0.101 C 
ATOM     29  H   UNL     1      36.153 -24.363 -16.564  0.00  0.00    -0.080 HD
ENDBRANCH  16  22
ENDBRANCH  11  19
BRANCH  13  30
ATOM     30  C   UNL     1      32.341 -10.532 -23.470  0.00  0.00    +0.119 C 
BRANCH  30  32
ATOM     31  S   UNL     1      32.769  -8.121 -22.195  0.00  0.00    -0.090 S 
ATOM     32  C   UNL     1      33.296  -9.417 -23.167  0.00  0.00    +0.016 C 
ATOM     33  C   UNL     1      34.591  -9.287 -23.583  0.00  0.00    +0.003 C 
ATOM     34  C   UNL     1      35.178  -8.085 -23.090  0.00  0.00    +0.007 C 
ATOM     35  C   UNL     1      34.297  -7.358 -22.320  0.00  0.00    +0.035 C 
ENDBRANCH  30  32
ENDBRANCH  13  30
TORSDOF 4
ENDMDL
MODEL 3
REMARK VINA RESULT:     -10.0      1.470      2.456
REMARK  Name = 11963557
REMARK  4 active torsions:
REMARK  status: ('A' for Active; 'I' for Inactive)
REMARK    1  A    between atoms: C_11  and  C_19
REMARK    2  A    between atoms: C_13  and  C_30
REMARK    3  A    between atoms: C_16  and  N_22
REMARK    4  A    between atoms: C_30  and  C_32
REMARK                            x       y       z     vdW  Elec       q    Type
REMARK                         _______ _______ _______ _____ _____    ______ ____
ROOT
ATOM      1  O   UNL     1      35.298 -20.767 -22.757  0.00  0.00    -0.270 OA
ATOM      2  O   UNL     1      33.841 -12.671 -21.017  0.00  0.00    -0.274 OA
ATOM      3  N   UNL     1      34.135 -14.232 -22.624  0.00  0.00    -0.233 N 
ATOM      4  N   UNL     1      34.874 -18.735 -21.661  0.00  0.00    -0.264 N 
ATOM      5  N   UNL     1      34.655 -17.084 -24.747  0.00  0.00    -0.273 N 
ATOM      6  N   UNL     1      34.837 -18.247 -24.034  0.00  0.00    -0.157 NA
ATOM      7  C   UNL     1      34.505 -16.437 -22.558  0.00  0.00    +0.067 A 
ATOM      8  C   UNL     1      34.469 -16.069 -23.882  0.00  0.00    +0.093 A 
ATOM      9  C   UNL     1      34.745 -17.846 -22.720  0.00  0.00    +0.157 A 
ATOM     10  C   UNL     1      34.308 -15.354 -21.761  0.00  0.00    +0.076 C 
ATOM     11  C   UNL     1      35.135 -20.111 -21.715  0.00  0.00    +0.251 C 
ATOM     12  C   UNL     1      34.247 -14.748 -23.930  0.00  0.00    +0.091 C 
ATOM     13  C   UNL     1      33.906 -12.918 -22.212  0.00  0.00    +0.238 C 
ATOM     14  H   UNL     1      34.768 -18.352 -20.761  0.00  0.00    +0.157 HD
ATOM     15  H   UNL     1      34.660 -17.007 -25.728  0.00  0.00    +0.189 HD
ENDROOT
BRANCH  11  19
ATOM     16  C   UNL     1      35.455 -22.095 -17.945  0.00  0.00    +0.048 C 
ATOM     17  C   UNL     1      34.218 -22.002 -18.614  0.00  0.00    +0.015 C 
ATOM     18  C   UNL     1      36.583 -21.512 -18.557  0.00  0.00    +0.015 C 
ATOM     19  C   UNL     1      35.244 -20.785 -20.432  0.00  0.00    +0.054 C 
ATOM     20  C   UNL     1      34.114 -21.354 -19.845  0.00  0.00    +0.006 C 
ATOM     21  C   UNL     1      36.478 -20.864 -19.787  0.00  0.00    +0.006 C 
BRANCH  16  22
ATOM     22  N   UNL     1      35.560 -22.744 -16.711  0.00  0.00    -0.312 N 
ATOM     23  N   UNL     1      35.728 -23.840 -14.078  0.00  0.00    +0.388 N 
ATOM     24  C   UNL     1      36.673 -22.372 -15.827  0.00  0.00    +0.068 C 
ATOM     25  C   UNL     1      34.350 -23.227 -16.037  0.00  0.00    +0.068 C 
ATOM     26  C   UNL     1      36.948 -23.485 -14.813  0.00  0.00    -0.056 C 
ATOM     27  C   UNL     1      34.700 -24.311 -15.015  0.00  0.00    -0.056 C 
ATOM     28  C   UNL     1      36.014 -24.866 -13.074  0.00  0.00    -0.101 C 
ATOM     29  H   UNL     1      35.380 -23.012 -13.596  0.00  0.00    -0.080 HD
ENDBRANCH  16  22
ENDBRANCH  11  19
BRANCH  13  30
ATOM     30  C   UNL     1      33.758 -11.913 -23.312  0.00  0.00    +0.119 C 
BRANCH  30  32
ATOM     31  S   UNL     1      33.067  -9.245 -23.161  0.00  0.00    -0.090 S 
ATOM     32  C   UNL     1      32.743 -10.894 -22.889  0.00  0.00    +0.016 C 
ATOM     33  C   UNL     1      31.537 -11.115 -22.286  0.00  0.00    +0.003 C 
ATOM     34  C   UNL     1      30.849  -9.892 -22.036  0.00  0.00    +0.007 C 
ATOM     35  C   UNL     1      31.569  -8.797 -22.463  0.00  0.00    +0.035 C 
ENDBRANCH  30  32
ENDBRANCH  13  30
TORSDOF 4
ENDMDL
MODEL 4
REMARK VINA RESULT:      -9.9      4.172     12.109
REMARK  Name = 11963557
REMARK  4 active torsions:
REMARK  status: ('A' for Active; 'I' for Inactive)
REMARK    1  A    between atoms: C_11  and  C_19
REMARK    2  A    between atoms: C_13  and  C_30
REMARK    3  A    between atoms: C_16  and  N_22
REMARK    4  A    between atoms: C_30  and  C_32
REMARK                            x       y       z     vdW  Elec       q    Type
REMARK                         _______ _______ _______ _____ _____    ______ ____
ROOT
ATOM      1  O   UNL     1      32.962 -14.825 -25.359  0.00  0.00    -0.270 OA
ATOM      2  O   UNL     1      36.843 -18.968 -19.157  0.00  0.00    -0.274 OA
ATOM      3  N   UNL     1      35.902 -19.090 -21.208  0.00  0.00    -0.233 N 
ATOM      4  N   UNL     1      34.085 -15.382 -23.375  0.00  0.00    -0.264 N 
ATOM      5  N   UNL     1      34.314 -18.724 -24.411  0.00  0.00    -0.273 N 
ATOM      6  N   UNL     1      33.919 -17.430 -24.659  0.00  0.00    -0.157 NA
ATOM      7  C   UNL     1      34.946 -17.569 -22.541  0.00  0.00    +0.067 A 
ATOM      8  C   UNL     1      34.895 -18.775 -23.196  0.00  0.00    +0.093 A 
ATOM      9  C   UNL     1      34.304 -16.744 -23.528  0.00  0.00    +0.157 A 
ATOM     10  C   UNL     1      35.548 -17.714 -21.330  0.00  0.00    +0.076 C 
ATOM     11  C   UNL     1      33.446 -14.504 -24.261  0.00  0.00    +0.251 C 
ATOM     12  C   UNL     1      35.467 -19.693 -22.404  0.00  0.00    +0.091 C 
ATOM     13  C   UNL     1      36.543 -19.670 -20.111  0.00  0.00    +0.238 C 
ATOM     14  H   UNL     1      34.419 -14.983 -22.540  0.00  0.00    +0.157 HD
ATOM     15  H   UNL     1      34.191 -19.488 -25.020  0.00  0.00    +0.189 HD
ENDROOT
BRANCH  11  19
ATOM     16  C   UNL     1      33.125 -10.448 -22.958  0.00  0.00    +0.048 C 
ATOM     17  C   UNL     1      34.145 -10.847 -23.846  0.00  0.00    +0.015 C 
ATOM     18  C   UNL     1      32.215 -11.428 -22.513  0.00  0.00    +0.015 C 
ATOM     19  C   UNL     1      33.337 -13.124 -23.818  0.00  0.00    +0.054 C 
ATOM     20  C   UNL     1      34.249 -12.172 -24.271  0.00  0.00    +0.006 C 
ATOM     21  C   UNL     1      32.320 -12.752 -22.939  0.00  0.00    +0.006 C 
BRANCH  16  22
ATOM     22  N   UNL     1      33.019  -9.120 -22.532  0.00  0.00    -0.312 N 
ATOM     23  N   UNL     1      32.945  -6.477 -21.452  0.00  0.00    +0.388 N 
ATOM     24  C   UNL     1      32.269  -8.849 -21.299  0.00  0.00    +0.068 C 
ATOM     25  C   UNL     1      34.090  -8.169 -22.844  0.00  0.00    +0.068 C 
ATOM     26  C   UNL     1      31.811  -7.390 -21.260  0.00  0.00    -0.056 C 
ATOM     27  C   UNL     1      33.574  -6.730 -22.754  0.00  0.00    -0.056 C 
ATOM     28  C   UNL     1      32.504  -5.084 -21.358  0.00  0.00    -0.101 C 
ATOM     29  H   UNL     1      33.630  -6.643 -20.716  0.00  0.00    -0.080 HD
ENDBRANCH  16  22
ENDBRANCH  11  19
BRANCH  13  30
ATOM     30  C   UNL     1      36.806 -21.140 -20.220  0.00  0.00    +0.119 C 
BRANCH  30  32
ATOM     31  S   UNL     1      36.588 -22.042 -17.621  0.00  0.00    -0.090 S 
ATOM     32  C   UNL     1      35.971 -21.847 -19.196  0.00  0.00    +0.016 C 
ATOM     33  C   UNL     1      34.726 -22.385 -19.358  0.00  0.00    +0.003 C 
ATOM     34  C   UNL     1      34.254 -22.978 -18.151  0.00  0.00    +0.007 C 
ATOM     35  C   UNL     1      35.168 -22.862 -17.126  0.00  0.00    +0.035 C 
ENDBRANCH  30  32
ENDBRANCH  13  30
TORSDOF 4
ENDMDL
MODEL 5
REMARK VINA RESULT:      -9.9      6.862     11.826
REMARK  Name = 11963557
REMARK  4 active torsions:
REMARK  status: ('A' for Active; 'I' for Inactive)
REMARK    1  A    between atoms: C_11  and  C_19
REMARK    2  A    between atoms: C_13  and  C_30
REMARK    3  A    between atoms: C_16  and  N_22
REMARK    4  A    between atoms: C_30  and  C_32
REMARK                            x       y       z     vdW  Elec       q    Type
REMARK                         _______ _______ _______ _____ _____    ______ ____
ROOT
ATOM      1  O   UNL     1      30.773 -10.056 -21.531  0.00  0.00    -0.270 OA
ATOM      2  O   UNL     1      35.347  -5.115 -26.567  0.00  0.00    -0.274 OA
ATOM      3  N   UNL     1      33.575  -5.265 -25.174  0.00  0.00    -0.233 N 
ATOM      4  N   UNL     1      32.417  -9.214 -22.980  0.00  0.00    -0.264 N 
ATOM      5  N   UNL     1      30.910  -6.048 -22.893  0.00  0.00    -0.273 N 
ATOM      6  N   UNL     1      30.939  -7.360 -22.478  0.00  0.00    -0.157 NA
ATOM      7  C   UNL     1      32.720  -6.944 -23.967  0.00  0.00    +0.067 A 
ATOM      8  C   UNL     1      31.935  -5.838 -23.741  0.00  0.00    +0.093 A 
ATOM      9  C   UNL     1      32.031  -7.888 -23.130  0.00  0.00    +0.157 A 
ATOM     10  C   UNL     1      33.725  -6.640 -24.831  0.00  0.00    +0.076 C 
ATOM     11  C   UNL     1      31.798 -10.212 -22.215  0.00  0.00    +0.251 C 
ATOM     12  C   UNL     1      32.441  -4.827 -24.461  0.00  0.00    +0.091 C 
ATOM     13  C   UNL     1      34.402  -4.547 -26.040  0.00  0.00    +0.238 C 
ATOM     14  H   UNL     1      33.225  -9.486 -23.471  0.00  0.00    +0.157 HD
ATOM     15  H   UNL     1      30.249  -5.374 -22.616  0.00  0.00    +0.189 HD
ENDROOT
BRANCH  11  19
ATOM     16  C   UNL     1      33.613 -14.076 -22.380  0.00  0.00    +0.048 C 
ATOM     17  C   UNL     1      32.726 -13.734 -21.339  0.00  0.00    +0.015 C 
ATOM     18  C   UNL     1      33.884 -13.104 -23.364  0.00  0.00    +0.015 C 
ATOM     19  C   UNL     1      32.416 -11.526 -22.271  0.00  0.00    +0.054 C 
ATOM     20  C   UNL     1      32.133 -12.472 -21.286  0.00  0.00    +0.006 C 
ATOM     21  C   UNL     1      33.291 -11.842 -23.310  0.00  0.00    +0.006 C 
BRANCH  16  22
ATOM     22  N   UNL     1      34.207 -15.341 -22.434  0.00  0.00    -0.312 N 
ATOM     23  N   UNL     1      35.642 -17.804 -22.617  0.00  0.00    +0.388 N 
ATOM     24  C   UNL     1      34.658 -15.836 -23.742  0.00  0.00    +0.068 C 
ATOM     25  C   UNL     1      34.950 -15.846 -21.275  0.00  0.00    +0.068 C 
ATOM     26  C   UNL     1      34.785 -17.361 -23.723  0.00  0.00    -0.056 C 
ATOM     27  C   UNL     1      35.068 -17.371 -21.337  0.00  0.00    -0.056 C 
ATOM     28  C   UNL     1      35.800 -19.259 -22.641  0.00  0.00    -0.101 C 
ATOM     29  H   UNL     1      36.564 -17.383 -22.724  0.00  0.00    -0.080 HD
ENDBRANCH  16  22
ENDBRANCH  11  19
BRANCH  13  30
ATOM     30  C   UNL     1      34.034  -3.110 -26.241  0.00  0.00    +0.119 C 
BRANCH  30  32
ATOM     31  S   UNL     1      31.698  -1.968 -27.168  0.00  0.00    -0.090 S 
ATOM     32  C   UNL     1      33.019  -3.030 -27.341  0.00  0.00    +0.016 C 
ATOM     33  C   UNL     1      33.002  -3.725 -28.517  0.00  0.00    +0.003 C 
ATOM     34  C   UNL     1      31.870  -3.378 -29.310  0.00  0.00    +0.007 C 
ATOM     35  C   UNL     1      31.078  -2.433 -28.695  0.00  0.00    +0.035 C 
ENDBRANCH  30  32
ENDBRANCH  13  30
TORSDOF 4
ENDMDL
MODEL 6
REMARK VINA RESULT:      -9.2      7.059     12.195
REMARK  Name = 11963557
REMARK  4 active torsions:
REMARK  status: ('A' for Active; 'I' for Inactive)
REMARK    1  A    between atoms: C_11  and  C_19
REMARK    2  A    between atoms: C_13  and  C_30
REMARK    3  A    between atoms: C_16  and  N_22
REMARK    4  A    between atoms: C_30  and  C_32
REMARK                            x       y       z     vdW  Elec       q    Type
REMARK                         _______ _______ _______ _____ _____    ______ ____
ROOT
ATOM      1  O   UNL     1      31.349  -9.769 -21.744  0.00  0.00    -0.270 OA
ATOM      2  O   UNL     1      35.051  -5.630 -28.058  0.00  0.00    -0.274 OA
ATOM      3  N   UNL     1      33.606  -5.526 -26.325  0.00  0.00    -0.233 N 
ATOM      4  N   UNL     1      32.699  -9.179 -23.572  0.00  0.00    -0.264 N 
ATOM      5  N   UNL     1      31.439  -5.908 -23.483  0.00  0.00    -0.273 N 
ATOM      6  N   UNL     1      31.475  -7.180 -22.959  0.00  0.00    -0.157 NA
ATOM      7  C   UNL     1      32.925  -7.028 -24.814  0.00  0.00    +0.067 A 
ATOM      8  C   UNL     1      32.273  -5.850 -24.539  0.00  0.00    +0.093 A 
ATOM      9  C   UNL     1      32.371  -7.844 -23.767  0.00  0.00    +0.157 A 
ATOM     10  C   UNL     1      33.742  -6.876 -25.889  0.00  0.00    +0.076 C 
ATOM     11  C   UNL     1      32.196 -10.060 -22.605  0.00  0.00    +0.251 C 
ATOM     12  C   UNL     1      32.676  -4.943 -25.441  0.00  0.00    +0.091 C 
ATOM     13  C   UNL     1      34.274  -4.949 -27.406  0.00  0.00    +0.238 C 
ATOM     14  H   UNL     1      33.368  -9.554 -24.189  0.00  0.00    +0.157 HD
ATOM     15  H   UNL     1      30.893  -5.163 -23.143  0.00  0.00    +0.189 HD
ENDROOT
BRANCH  11  19
ATOM     16  C   UNL     1      33.702 -14.055 -22.764  0.00  0.00    +0.048 C 
ATOM     17  C   UNL     1      34.149 -13.074 -23.672  0.00  0.00    +0.015 C 
ATOM     18  C   UNL     1      32.743 -13.679 -21.802  0.00  0.00    +0.015 C 
ATOM     19  C   UNL     1      32.708 -11.419 -22.659  0.00  0.00    +0.054 C 
ATOM     20  C   UNL     1      33.657 -11.770 -23.620  0.00  0.00    +0.006 C 
ATOM     21  C   UNL     1      32.251 -12.374 -21.751  0.00  0.00    +0.006 C 
BRANCH  16  22
ATOM     22  N   UNL     1      34.195 -15.363 -22.816  0.00  0.00    -0.312 N 
ATOM     23  N   UNL     1      35.419 -17.935 -23.028  0.00  0.00    +0.388 N 
ATOM     24  C   UNL     1      34.427 -15.962 -24.136  0.00  0.00    +0.068 C 
ATOM     25  C   UNL     1      35.053 -15.859 -21.735  0.00  0.00    +0.068 C 
ATOM     26  C   UNL     1      34.451 -17.488 -24.036  0.00  0.00    -0.056 C 
ATOM     27  C   UNL     1      35.058 -17.390 -21.713  0.00  0.00    -0.056 C 
ATOM     28  C   UNL     1      35.473 -19.397 -22.979  0.00  0.00    -0.101 C 
ATOM     29  H   UNL     1      36.345 -17.592 -23.284  0.00  0.00    -0.080 HD
ENDBRANCH  16  22
ENDBRANCH  11  19
BRANCH  13  30
ATOM     30  C   UNL     1      33.960  -3.508 -27.665  0.00  0.00    +0.119 C 
BRANCH  30  32
ATOM     31  S   UNL     1      35.316  -2.459 -29.829  0.00  0.00    -0.090 S 
ATOM     32  C   UNL     1      35.201  -2.837 -28.172  0.00  0.00    +0.016 C 
ATOM     33  C   UNL     1      36.306  -2.471 -27.458  0.00  0.00    +0.003 C 
ATOM     34  C   UNL     1      37.286  -1.857 -28.292  0.00  0.00    +0.007 C 
ATOM     35  C   UNL     1      36.875  -1.787 -29.605  0.00  0.00    +0.035 C 
ENDBRANCH  30  32
ENDBRANCH  13  30
TORSDOF 4
ENDMDL
