MODEL 1
REMARK VINA RESULT:     -12.1      0.000      0.000
REMARK  Name = 6914614
REMARK  7 active torsions:
REMARK  status: ('A' for Active; 'I' for Inactive)
REMARK    1  A    between atoms: O_1  and  C_4
REMARK    2  A    between atoms: O_1  and  C_18
REMARK    3  A    between atoms: C_9  and  C_13
REMARK    4  A    between atoms: C_18  and  C_19
REMARK    5  A    between atoms: C_19  and  N_20
REMARK    6  A    between atoms: C_19  and  C_24
REMARK    7  A    between atoms: C_24  and  C_26
REMARK                            x       y       z     vdW  Elec       q    Type
REMARK                         _______ _______ _______ _____ _____    ______ ____
ROOT
ATOM      1  O   UNL     1      36.594 -22.453 -18.135  0.00  0.00    -0.476 OA
ENDROOT
BRANCH   1   4
ATOM      2  N   UNL     1      34.019 -19.682 -21.137  0.00  0.00    -0.404 NA
ATOM      3  N   UNL     1      33.042 -22.367 -18.864  0.00  0.00    -0.258 NA
ATOM      4  C   UNL     1      35.426 -22.058 -18.709  0.00  0.00    +0.159 C 
ATOM      5  C   UNL     1      35.366 -21.030 -19.658  0.00  0.00    +0.063 C 
ATOM      6  C   UNL     1      34.131 -20.664 -20.220  0.00  0.00    +0.136 C 
ATOM      7  C   UNL     1      36.510 -20.341 -20.079  0.00  0.00    +0.008 C 
ATOM      8  C   UNL     1      34.247 -22.687 -18.351  0.00  0.00    +0.130 C 
ATOM      9  C   UNL     1      35.148 -19.039 -21.516  0.00  0.00    +0.131 C 
ATOM     10  C   UNL     1      36.405 -19.327 -21.022  0.00  0.00    +0.032 C 
ATOM     11  C   UNL     1      33.024 -21.369 -19.780  0.00  0.00    +0.184 C 
BRANCH   9  13
ATOM     12  N   UNL     1      34.578 -15.989 -24.408  0.00  0.00    -0.242 NA
ATOM     13  C   UNL     1      34.954 -18.001 -22.500  0.00  0.00    +0.033 C 
ATOM     14  C   UNL     1      34.509 -18.323 -23.779  0.00  0.00    +0.023 C 
ATOM     15  C   UNL     1      35.211 -16.672 -22.177  0.00  0.00    +0.023 C 
ATOM     16  C   UNL     1      34.338 -17.290 -24.687  0.00  0.00    +0.099 C 
ATOM     17  C   UNL     1      35.009 -15.713 -23.157  0.00  0.00    +0.099 C 
ENDBRANCH   9  13
ENDBRANCH   1   4
BRANCH   1  18
ATOM     18  C   UNL     1      36.793 -22.114 -16.763  0.00  0.00    +0.184 C 
BRANCH  18  19
ATOM     19  C   UNL     1      36.248 -23.196 -15.823  0.00  0.00    -0.017 C 
BRANCH  19  20
ATOM     20  N   UNL     1      37.380 -23.938 -15.257  0.00  0.00    +0.384 N 
ATOM     21  H   UNL     1      37.036 -24.618 -14.578  0.00  0.00    -0.089 HD
ATOM     22  H   UNL     1      38.015 -23.289 -14.795  0.00  0.00    -0.089 HD
ATOM     23  H   UNL     1      37.876 -24.426 -16.004  0.00  0.00    -0.089 HD
ENDBRANCH  19  20
BRANCH  19  24
ATOM     24  C   UNL     1      35.392 -22.648 -14.665  0.00  0.00    +0.009 C 
BRANCH  24  26
ATOM     25  N   UNL     1      33.555 -25.281 -12.926  0.00  0.00    -0.312 N 
ATOM     26  C   UNL     1      34.414 -23.648 -14.115  0.00  0.00    -0.008 C 
ATOM     27  C   UNL     1      33.072 -23.789 -14.513  0.00  0.00    +0.011 C 
ATOM     28  C   UNL     1      32.544 -24.831 -13.746  0.00  0.00    +0.048 C 
ATOM     29  C   UNL     1      34.698 -24.561 -13.147  0.00  0.00    +0.058 C 
ATOM     30  C   UNL     1      32.236 -23.144 -15.446  0.00  0.00    +0.001 C 
ATOM     31  C   UNL     1      31.218 -25.261 -13.866  0.00  0.00    +0.015 C 
ATOM     32  C   UNL     1      30.908 -23.563 -15.578  0.00  0.00    +0.000 C 
ATOM     33  C   UNL     1      30.408 -24.606 -14.799  0.00  0.00    +0.001 C 
ATOM     34  H   UNL     1      33.467 -26.013 -12.275  0.00  0.00    +0.152 HD
ENDBRANCH  24  26
ENDBRANCH  19  24
ENDBRANCH  18  19
ENDBRANCH   1  18
TORSDOF 7
ENDMDL
MODEL 2
REMARK VINA RESULT:     -12.1      2.278      9.954
REMARK  Name = 6914614
REMARK  7 active torsions:
REMARK  status: ('A' for Active; 'I' for Inactive)
REMARK    1  A    between atoms: O_1  and  C_4
REMARK    2  A    between atoms: O_1  and  C_18
REMARK    3  A    between atoms: C_9  and  C_13
REMARK    4  A    between atoms: C_18  and  C_19
REMARK    5  A    between atoms: C_19  and  N_20
REMARK    6  A    between atoms: C_19  and  C_24
REMARK    7  A    between atoms: C_24  and  C_26
REMARK                            x       y       z     vdW  Elec       q    Type
REMARK                         _______ _______ _______ _____ _____    ______ ____
ROOT
ATOM      1  O   UNL     1      35.971 -20.835 -19.515  0.00  0.00    -0.476 OA
ENDROOT
BRANCH   1   4
ATOM      2  N   UNL     1      35.002 -23.770 -15.805  0.00  0.00    -0.404 NA
ATOM      3  N   UNL     1      32.978 -22.690 -18.645  0.00  0.00    -0.258 NA
ATOM      4  C   UNL     1      35.150 -21.660 -18.813  0.00  0.00    +0.159 C 
ATOM      5  C   UNL     1      35.554 -22.295 -17.631  0.00  0.00    +0.063 C 
ATOM      6  C   UNL     1      34.662 -23.137 -16.945  0.00  0.00    +0.136 C 
ATOM      7  C   UNL     1      36.836 -22.118 -17.095  0.00  0.00    +0.008 C 
ATOM      8  C   UNL     1      33.865 -21.890 -19.271  0.00  0.00    +0.130 C 
ATOM      9  C   UNL     1      36.250 -23.574 -15.320  0.00  0.00    +0.131 C 
ATOM     10  C   UNL     1      37.195 -22.767 -15.921  0.00  0.00    +0.032 C 
ATOM     11  C   UNL     1      33.405 -23.285 -17.506  0.00  0.00    +0.184 C 
BRANCH   9  13
ATOM     12  N   UNL     1      37.113 -25.657 -11.727  0.00  0.00    -0.242 NA
ATOM     13  C   UNL     1      36.544 -24.283 -14.097  0.00  0.00    +0.033 C 
ATOM     14  C   UNL     1      36.839 -25.642 -14.130  0.00  0.00    +0.023 C 
ATOM     15  C   UNL     1      36.533 -23.611 -12.878  0.00  0.00    +0.023 C 
ATOM     16  C   UNL     1      37.115 -26.277 -12.929  0.00  0.00    +0.099 C 
ATOM     17  C   UNL     1      36.822 -24.337 -11.733  0.00  0.00    +0.099 C 
ENDBRANCH   9  13
ENDBRANCH   1   4
BRANCH   1  18
ATOM     18  C   UNL     1      35.426 -20.204 -20.673  0.00  0.00    +0.184 C 
BRANCH  18  19
ATOM     19  C   UNL     1      36.129 -18.877 -20.984  0.00  0.00    -0.017 C 
BRANCH  19  20
ATOM     20  N   UNL     1      37.577 -19.115 -21.036  0.00  0.00    +0.384 N 
ATOM     21  H   UNL     1      38.028 -18.355 -21.547  0.00  0.00    -0.089 HD
ATOM     22  H   UNL     1      37.759 -19.999 -21.510  0.00  0.00    -0.089 HD
ATOM     23  H   UNL     1      37.950 -19.154 -20.087  0.00  0.00    -0.089 HD
ENDBRANCH  19  20
BRANCH  19  24
ATOM     24  C   UNL     1      35.691 -18.230 -22.312  0.00  0.00    +0.009 C 
BRANCH  24  26
ATOM     25  N   UNL     1      34.385 -14.997 -21.229  0.00  0.00    -0.312 N 
ATOM     26  C   UNL     1      35.084 -16.866 -22.145  0.00  0.00    -0.008 C 
ATOM     27  C   UNL     1      34.518 -16.087 -23.171  0.00  0.00    +0.011 C 
ATOM     28  C   UNL     1      34.081 -14.905 -22.569  0.00  0.00    +0.048 C 
ATOM     29  C   UNL     1      34.999 -16.192 -20.965  0.00  0.00    +0.058 C 
ATOM     30  C   UNL     1      34.325 -16.253 -24.557  0.00  0.00    +0.001 C 
ATOM     31  C   UNL     1      33.459 -13.876 -23.286  0.00  0.00    +0.015 C 
ATOM     32  C   UNL     1      33.704 -15.233 -25.287  0.00  0.00    +0.000 C 
ATOM     33  C   UNL     1      33.278 -14.063 -24.659  0.00  0.00    +0.001 C 
ATOM     34  H   UNL     1      34.191 -14.303 -20.559  0.00  0.00    +0.152 HD
ENDBRANCH  24  26
ENDBRANCH  19  24
ENDBRANCH  18  19
ENDBRANCH   1  18
TORSDOF 7
ENDMDL
MODEL 3
REMARK VINA RESULT:     -12.0      2.015      8.264
REMARK  Name = 6914614
REMARK  7 active torsions:
REMARK  status: ('A' for Active; 'I' for Inactive)
REMARK    1  A    between atoms: O_1  and  C_4
REMARK    2  A    between atoms: O_1  and  C_18
REMARK    3  A    between atoms: C_9  and  C_13
REMARK    4  A    between atoms: C_18  and  C_19
REMARK    5  A    between atoms: C_19  and  N_20
REMARK    6  A    between atoms: C_19  and  C_24
REMARK    7  A    between atoms: C_24  and  C_26
REMARK                            x       y       z     vdW  Elec       q    Type
REMARK                         _______ _______ _______ _____ _____    ______ ____
ROOT
ATOM      1  O   UNL     1      36.927 -23.618 -15.775  0.00  0.00    -0.476 OA
ENDROOT
BRANCH   1   4
ATOM      2  N   UNL     1      32.416 -24.154 -14.138  0.00  0.00    -0.404 NA
ATOM      3  N   UNL     1      35.656 -24.460 -12.484  0.00  0.00    -0.258 NA
ATOM      4  C   UNL     1      36.024 -23.884 -14.794  0.00  0.00    +0.159 C 
ATOM      5  C   UNL     1      34.642 -23.870 -15.022  0.00  0.00    +0.063 C 
ATOM      6  C   UNL     1      33.753 -24.154 -13.971  0.00  0.00    +0.136 C 
ATOM      7  C   UNL     1      34.100 -23.580 -16.281  0.00  0.00    +0.008 C 
ATOM      8  C   UNL     1      36.473 -24.182 -13.520  0.00  0.00    +0.130 C 
ATOM      9  C   UNL     1      31.932 -23.868 -15.369  0.00  0.00    +0.131 C 
ATOM     10  C   UNL     1      32.724 -23.576 -16.462  0.00  0.00    +0.032 C 
ATOM     11  C   UNL     1      34.327 -24.438 -12.743  0.00  0.00    +0.184 C 
BRANCH   9  13
ATOM     12  N   UNL     1      27.702 -23.922 -15.680  0.00  0.00    -0.242 NA
ATOM     13  C   UNL     1      30.493 -23.886 -15.475  0.00  0.00    +0.033 C 
ATOM     14  C   UNL     1      29.767 -24.962 -14.971  0.00  0.00    +0.023 C 
ATOM     15  C   UNL     1      29.821 -22.829 -16.082  0.00  0.00    +0.023 C 
ATOM     16  C   UNL     1      28.387 -24.931 -15.097  0.00  0.00    +0.099 C 
ATOM     17  C   UNL     1      28.439 -22.894 -16.158  0.00  0.00    +0.099 C 
ENDBRANCH   9  13
ENDBRANCH   1   4
BRANCH   1  18
ATOM     18  C   UNL     1      37.496 -22.309 -15.798  0.00  0.00    +0.184 C 
BRANCH  18  19
ATOM     19  C   UNL     1      36.846 -21.424 -16.868  0.00  0.00    -0.017 C 
BRANCH  19  20
ATOM     20  N   UNL     1      37.616 -20.179 -16.979  0.00  0.00    +0.384 N 
ATOM     21  H   UNL     1      37.349 -19.546 -16.224  0.00  0.00    -0.089 HD
ATOM     22  H   UNL     1      37.423 -19.738 -17.877  0.00  0.00    -0.089 HD
ATOM     23  H   UNL     1      38.612 -20.388 -16.909  0.00  0.00    -0.089 HD
ENDBRANCH  19  20
BRANCH  19  24
ATOM     24  C   UNL     1      36.770 -22.077 -18.262  0.00  0.00    +0.009 C 
BRANCH  24  26
ATOM     25  N   UNL     1      33.865 -20.952 -20.166  0.00  0.00    -0.312 N 
ATOM     26  C   UNL     1      35.762 -21.435 -19.173  0.00  0.00    -0.008 C 
ATOM     27  C   UNL     1      36.030 -20.421 -20.111  0.00  0.00    +0.011 C 
ATOM     28  C   UNL     1      34.813 -20.129 -20.730  0.00  0.00    +0.048 C 
ATOM     29  C   UNL     1      34.439 -21.751 -19.214  0.00  0.00    +0.058 C 
ATOM     30  C   UNL     1      37.181 -19.710 -20.508  0.00  0.00    +0.001 C 
ATOM     31  C   UNL     1      34.688 -19.158 -21.730  0.00  0.00    +0.015 C 
ATOM     32  C   UNL     1      37.071 -18.737 -21.507  0.00  0.00    +0.000 C 
ATOM     33  C   UNL     1      35.843 -18.466 -22.108  0.00  0.00    +0.001 C 
ATOM     34  H   UNL     1      32.912 -20.963 -20.412  0.00  0.00    +0.152 HD
ENDBRANCH  24  26
ENDBRANCH  19  24
ENDBRANCH  18  19
ENDBRANCH   1  18
TORSDOF 7
ENDMDL
MODEL 4
REMARK VINA RESULT:     -12.0      2.095      9.757
REMARK  Name = 6914614
REMARK  7 active torsions:
REMARK  status: ('A' for Active; 'I' for Inactive)
REMARK    1  A    between atoms: O_1  and  C_4
REMARK    2  A    between atoms: O_1  and  C_18
REMARK    3  A    between atoms: C_9  and  C_13
REMARK    4  A    between atoms: C_18  and  C_19
REMARK    5  A    between atoms: C_19  and  N_20
REMARK    6  A    between atoms: C_19  and  C_24
REMARK    7  A    between atoms: C_24  and  C_26
REMARK                            x       y       z     vdW  Elec       q    Type
REMARK                         _______ _______ _______ _____ _____    ______ ____
ROOT
ATOM      1  O   UNL     1      35.478 -21.012 -19.844  0.00  0.00    -0.476 OA
ENDROOT
BRANCH   1   4
ATOM      2  N   UNL     1      35.146 -23.569 -15.760  0.00  0.00    -0.404 NA
ATOM      3  N   UNL     1      32.702 -22.818 -18.366  0.00  0.00    -0.258 NA
ATOM      4  C   UNL     1      34.793 -21.775 -18.951  0.00  0.00    +0.159 C 
ATOM      5  C   UNL     1      35.383 -22.278 -17.785  0.00  0.00    +0.063 C 
ATOM      6  C   UNL     1      34.626 -23.061 -16.896  0.00  0.00    +0.136 C 
ATOM      7  C   UNL     1      36.723 -22.026 -17.463  0.00  0.00    +0.008 C 
ATOM      8  C   UNL     1      33.463 -22.072 -19.191  0.00  0.00    +0.130 C 
ATOM      9  C   UNL     1      36.445 -23.303 -15.486  0.00  0.00    +0.131 C 
ATOM     10  C   UNL     1      37.267 -22.546 -16.296  0.00  0.00    +0.032 C 
ATOM     11  C   UNL     1      33.306 -23.287 -17.249  0.00  0.00    +0.184 C 
BRANCH   9  13
ATOM     12  N   UNL     1      37.882 -24.993 -11.871  0.00  0.00    -0.242 NA
ATOM     13  C   UNL     1      36.934 -23.877 -14.255  0.00  0.00    +0.033 C 
ATOM     14  C   UNL     1      37.997 -24.776 -14.276  0.00  0.00    +0.023 C 
ATOM     15  C   UNL     1      36.346 -23.538 -13.041  0.00  0.00    +0.023 C 
ATOM     16  C   UNL     1      38.430 -25.299 -13.068  0.00  0.00    +0.099 C 
ATOM     17  C   UNL     1      36.852 -24.118 -11.888  0.00  0.00    +0.099 C 
ENDBRANCH   9  13
ENDBRANCH   1   4
BRANCH   1  18
ATOM     18  C   UNL     1      34.710 -20.208 -20.739  0.00  0.00    +0.184 C 
BRANCH  18  19
ATOM     19  C   UNL     1      35.465 -18.940 -21.156  0.00  0.00    -0.017 C 
BRANCH  19  20
ATOM     20  N   UNL     1      36.813 -18.985 -20.577  0.00  0.00    +0.384 N 
ATOM     21  H   UNL     1      36.868 -19.749 -19.902  0.00  0.00    -0.089 HD
ATOM     22  H   UNL     1      37.012 -18.102 -20.108  0.00  0.00    -0.089 HD
ATOM     23  H   UNL     1      37.497 -19.138 -21.319  0.00  0.00    -0.089 HD
ENDBRANCH  19  20
BRANCH  19  24
ATOM     24  C   UNL     1      35.593 -18.759 -22.681  0.00  0.00    +0.009 C 
BRANCH  24  26
ATOM     25  N   UNL     1      34.135 -15.970 -24.532  0.00  0.00    -0.312 N 
ATOM     26  C   UNL     1      34.993 -17.477 -23.187  0.00  0.00    -0.008 C 
ATOM     27  C   UNL     1      34.711 -16.338 -22.409  0.00  0.00    +0.011 C 
ATOM     28  C   UNL     1      34.167 -15.394 -23.282  0.00  0.00    +0.048 C 
ATOM     29  C   UNL     1      34.637 -17.242 -24.479  0.00  0.00    +0.058 C 
ATOM     30  C   UNL     1      34.857 -16.000 -21.049  0.00  0.00    +0.001 C 
ATOM     31  C   UNL     1      33.760 -14.122 -22.861  0.00  0.00    +0.015 C 
ATOM     32  C   UNL     1      34.455 -14.732 -20.614  0.00  0.00    +0.000 C 
ATOM     33  C   UNL     1      33.915 -13.808 -21.508  0.00  0.00    +0.001 C 
ATOM     34  H   UNL     1      33.798 -15.530 -25.345  0.00  0.00    +0.152 HD
ENDBRANCH  24  26
ENDBRANCH  19  24
ENDBRANCH  18  19
ENDBRANCH   1  18
TORSDOF 7
ENDMDL
MODEL 5
REMARK VINA RESULT:     -11.7      1.865      3.538
REMARK  Name = 6914614
REMARK  7 active torsions:
REMARK  status: ('A' for Active; 'I' for Inactive)
REMARK    1  A    between atoms: O_1  and  C_4
REMARK    2  A    between atoms: O_1  and  C_18
REMARK    3  A    between atoms: C_9  and  C_13
REMARK    4  A    between atoms: C_18  and  C_19
REMARK    5  A    between atoms: C_19  and  N_20
REMARK    6  A    between atoms: C_19  and  C_24
REMARK    7  A    between atoms: C_24  and  C_26
REMARK                            x       y       z     vdW  Elec       q    Type
REMARK                         _______ _______ _______ _____ _____    ______ ____
ROOT
ATOM      1  O   UNL     1      34.572 -24.258 -15.645  0.00  0.00    -0.476 OA
ENDROOT
BRANCH   1   4
ATOM      2  N   UNL     1      36.520 -20.969 -18.596  0.00  0.00    -0.404 NA
ATOM      3  N   UNL     1      37.706 -22.442 -15.472  0.00  0.00    -0.258 NA
ATOM      4  C   UNL     1      35.559 -23.394 -16.004  0.00  0.00    +0.159 C 
ATOM      5  C   UNL     1      35.490 -22.616 -17.167  0.00  0.00    +0.063 C 
ATOM      6  C   UNL     1      36.539 -21.739 -17.489  0.00  0.00    +0.136 C 
ATOM      7  C   UNL     1      34.393 -22.679 -18.037  0.00  0.00    +0.008 C 
ATOM      8  C   UNL     1      36.678 -23.270 -15.201  0.00  0.00    +0.130 C 
ATOM      9  C   UNL     1      35.444 -21.059 -19.411  0.00  0.00    +0.131 C 
ATOM     10  C   UNL     1      34.366 -21.890 -19.180  0.00  0.00    +0.032 C 
ATOM     11  C   UNL     1      37.603 -21.705 -16.604  0.00  0.00    +0.184 C 
BRANCH   9  13
ATOM     12  N   UNL     1      35.585 -18.557 -22.833  0.00  0.00    -0.242 NA
ATOM     13  C   UNL     1      35.492 -20.207 -20.575  0.00  0.00    +0.033 C 
ATOM     14  C   UNL     1      34.409 -20.153 -21.448  0.00  0.00    +0.023 C 
ATOM     15  C   UNL     1      36.621 -19.436 -20.833  0.00  0.00    +0.023 C 
ATOM     16  C   UNL     1      34.504 -19.319 -22.551  0.00  0.00    +0.099 C 
ATOM     17  C   UNL     1      36.617 -18.634 -21.964  0.00  0.00    +0.099 C 
ENDBRANCH   9  13
ENDBRANCH   1   4
BRANCH   1  18
ATOM     18  C   UNL     1      34.799 -25.062 -14.488  0.00  0.00    +0.184 C 
BRANCH  18  19
ATOM     19  C   UNL     1      33.948 -24.602 -13.298  0.00  0.00    -0.017 C 
BRANCH  19  20
ATOM     20  N   UNL     1      34.819 -23.912 -12.338  0.00  0.00    +0.384 N 
ATOM     21  H   UNL     1      35.545 -23.403 -12.842  0.00  0.00    -0.089 HD
ATOM     22  H   UNL     1      35.251 -24.597 -11.719  0.00  0.00    -0.089 HD
ATOM     23  H   UNL     1      34.265 -23.257 -11.786  0.00  0.00    -0.089 HD
ENDBRANCH  19  20
BRANCH  19  24
ATOM     24  C   UNL     1      32.795 -23.654 -13.681  0.00  0.00    +0.009 C 
BRANCH  24  26
ATOM     25  N   UNL     1      29.830 -25.784 -13.647  0.00  0.00    -0.312 N 
ATOM     26  C   UNL     1      31.480 -24.355 -13.877  0.00  0.00    -0.008 C 
ATOM     27  C   UNL     1      30.485 -23.992 -14.803  0.00  0.00    +0.011 C 
ATOM     28  C   UNL     1      29.446 -24.912 -14.641  0.00  0.00    +0.048 C 
ATOM     29  C   UNL     1      31.071 -25.449 -13.177  0.00  0.00    +0.058 C 
ATOM     30  C   UNL     1      30.346 -22.976 -15.770  0.00  0.00    +0.001 C 
ATOM     31  C   UNL     1      28.271 -24.866 -15.399  0.00  0.00    +0.015 C 
ATOM     32  C   UNL     1      29.177 -22.918 -16.536  0.00  0.00    +0.000 C 
ATOM     33  C   UNL     1      28.156 -23.850 -16.353  0.00  0.00    +0.001 C 
ATOM     34  H   UNL     1      29.289 -26.540 -13.322  0.00  0.00    +0.152 HD
ENDBRANCH  24  26
ENDBRANCH  19  24
ENDBRANCH  18  19
ENDBRANCH   1  18
TORSDOF 7
ENDMDL
MODEL 6
REMARK VINA RESULT:     -11.6      3.702      6.962
REMARK  Name = 6914614
REMARK  7 active torsions:
REMARK  status: ('A' for Active; 'I' for Inactive)
REMARK    1  A    between atoms: O_1  and  C_4
REMARK    2  A    between atoms: O_1  and  C_18
REMARK    3  A    between atoms: C_9  and  C_13
REMARK    4  A    between atoms: C_18  and  C_19
REMARK    5  A    between atoms: C_19  and  N_20
REMARK    6  A    between atoms: C_19  and  C_24
REMARK    7  A    between atoms: C_24  and  C_26
REMARK                            x       y       z     vdW  Elec       q    Type
REMARK                         _______ _______ _______ _____ _____    ______ ____
ROOT
ATOM      1  O   UNL     1      35.474 -17.244 -23.120  0.00  0.00    -0.476 OA
ENDROOT
BRANCH   1   4
ATOM      2  N   UNL     1      32.723 -13.276 -23.033  0.00  0.00    -0.404 NA
ATOM      3  N   UNL     1      33.523 -15.623 -25.713  0.00  0.00    -0.258 NA
ATOM      4  C   UNL     1      34.652 -16.334 -23.707  0.00  0.00    +0.159 C 
ATOM      5  C   UNL     1      34.112 -15.248 -23.006  0.00  0.00    +0.063 C 
ATOM      6  C   UNL     1      33.268 -14.337 -23.662  0.00  0.00    +0.136 C 
ATOM      7  C   UNL     1      34.387 -15.030 -21.649  0.00  0.00    +0.008 C 
ATOM      8  C   UNL     1      34.329 -16.473 -25.044  0.00  0.00    +0.130 C 
ATOM      9  C   UNL     1      33.013 -13.101 -21.723  0.00  0.00    +0.131 C 
ATOM     10  C   UNL     1      33.829 -13.941 -20.993  0.00  0.00    +0.032 C 
ATOM     11  C   UNL     1      33.021 -14.586 -25.002  0.00  0.00    +0.184 C 
BRANCH   9  13
ATOM     12  N   UNL     1      31.202  -9.707 -19.936  0.00  0.00    -0.242 NA
ATOM     13  C   UNL     1      32.396 -11.946 -21.115  0.00  0.00    +0.033 C 
ATOM     14  C   UNL     1      32.044 -10.848 -21.894  0.00  0.00    +0.023 C 
ATOM     15  C   UNL     1      32.151 -11.923 -19.745  0.00  0.00    +0.023 C 
ATOM     16  C   UNL     1      31.454  -9.765 -21.263  0.00  0.00    +0.099 C 
ATOM     17  C   UNL     1      31.557 -10.790 -19.210  0.00  0.00    +0.099 C 
ENDBRANCH   9  13
ENDBRANCH   1   4
BRANCH   1  18
ATOM     18  C   UNL     1      34.958 -18.561 -22.930  0.00  0.00    +0.184 C 
BRANCH  18  19
ATOM     19  C   UNL     1      35.461 -19.187 -21.623  0.00  0.00    -0.017 C 
BRANCH  19  20
ATOM     20  N   UNL     1      35.620 -18.123 -20.625  0.00  0.00    +0.384 N 
ATOM     21  H   UNL     1      36.246 -18.442 -19.885  0.00  0.00    -0.089 HD
ATOM     22  H   UNL     1      34.711 -17.892 -20.226  0.00  0.00    -0.089 HD
ATOM     23  H   UNL     1      36.017 -17.295 -21.071  0.00  0.00    -0.089 HD
ENDBRANCH  19  20
BRANCH  19  24
ATOM     24  C   UNL     1      34.526 -20.266 -21.043  0.00  0.00    +0.009 C 
BRANCH  24  26
ATOM     25  N   UNL     1      36.583 -21.859 -18.482  0.00  0.00    -0.312 N 
ATOM     26  C   UNL     1      35.120 -21.018 -19.886  0.00  0.00    -0.008 C 
ATOM     27  C   UNL     1      34.401 -21.759 -18.931  0.00  0.00    +0.011 C 
ATOM     28  C   UNL     1      35.348 -22.284 -18.049  0.00  0.00    +0.048 C 
ATOM     29  C   UNL     1      36.450 -21.085 -19.603  0.00  0.00    +0.058 C 
ATOM     30  C   UNL     1      33.038 -22.047 -18.712  0.00  0.00    +0.001 C 
ATOM     31  C   UNL     1      35.000 -23.085 -16.955  0.00  0.00    +0.015 C 
ATOM     32  C   UNL     1      32.675 -22.846 -17.623  0.00  0.00    +0.000 C 
ATOM     33  C   UNL     1      33.643 -23.357 -16.758  0.00  0.00    +0.001 C 
ATOM     34  H   UNL     1      37.439 -22.078 -18.048  0.00  0.00    +0.152 HD
ENDBRANCH  24  26
ENDBRANCH  19  24
ENDBRANCH  18  19
ENDBRANCH   1  18
TORSDOF 7
ENDMDL
MODEL 7
REMARK VINA RESULT:     -11.4      3.238      6.395
REMARK  Name = 6914614
REMARK  7 active torsions:
REMARK  status: ('A' for Active; 'I' for Inactive)
REMARK    1  A    between atoms: O_1  and  C_4
REMARK    2  A    between atoms: O_1  and  C_18
REMARK    3  A    between atoms: C_9  and  C_13
REMARK    4  A    between atoms: C_18  and  C_19
REMARK    5  A    between atoms: C_19  and  N_20
REMARK    6  A    between atoms: C_19  and  C_24
REMARK    7  A    between atoms: C_24  and  C_26
REMARK                            x       y       z     vdW  Elec       q    Type
REMARK                         _______ _______ _______ _____ _____    ______ ____
ROOT
ATOM      1  O   UNL     1      35.500 -17.516 -21.284  0.00  0.00    -0.476 OA
ENDROOT
BRANCH   1   4
ATOM      2  N   UNL     1      33.299 -13.856 -23.538  0.00  0.00    -0.404 NA
ATOM      3  N   UNL     1      34.675 -17.002 -24.778  0.00  0.00    -0.258 NA
ATOM      4  C   UNL     1      35.012 -16.903 -22.395  0.00  0.00    +0.159 C 
ATOM      5  C   UNL     1      34.390 -15.648 -22.348  0.00  0.00    +0.063 C 
ATOM      6  C   UNL     1      33.904 -15.061 -23.528  0.00  0.00    +0.136 C 
ATOM      7  C   UNL     1      34.231 -14.943 -21.148  0.00  0.00    +0.008 C 
ATOM      8  C   UNL     1      35.127 -17.530 -23.622  0.00  0.00    +0.130 C 
ATOM      9  C   UNL     1      33.165 -13.207 -22.358  0.00  0.00    +0.131 C 
ATOM     10  C   UNL     1      33.608 -13.702 -21.148  0.00  0.00    +0.032 C 
ATOM     11  C   UNL     1      34.081 -15.788 -24.693  0.00  0.00    +0.184 C 
BRANCH   9  13
ATOM     12  N   UNL     1      31.233  -9.439 -22.607  0.00  0.00    -0.242 NA
ATOM     13  C   UNL     1      32.508 -11.924 -22.443  0.00  0.00    +0.033 C 
ATOM     14  C   UNL     1      31.375 -11.666 -21.677  0.00  0.00    +0.023 C 
ATOM     15  C   UNL     1      33.002 -10.939 -23.291  0.00  0.00    +0.023 C 
ATOM     16  C   UNL     1      30.781 -10.419 -21.793  0.00  0.00    +0.099 C 
ATOM     17  C   UNL     1      32.335  -9.724 -23.337  0.00  0.00    +0.099 C 
ENDBRANCH   9  13
ENDBRANCH   1   4
BRANCH   1  18
ATOM     18  C   UNL     1      35.919 -18.874 -21.420  0.00  0.00    +0.184 C 
BRANCH  18  19
ATOM     19  C   UNL     1      35.023 -19.829 -20.622  0.00  0.00    -0.017 C 
BRANCH  19  20
ATOM     20  N   UNL     1      33.831 -20.132 -21.423  0.00  0.00    +0.384 N 
ATOM     21  H   UNL     1      33.140 -19.392 -21.298  0.00  0.00    -0.089 HD
ATOM     22  H   UNL     1      33.435 -21.022 -21.120  0.00  0.00    -0.089 HD
ATOM     23  H   UNL     1      34.089 -20.193 -22.408  0.00  0.00    -0.089 HD
ENDBRANCH  19  20
BRANCH  19  24
ATOM     24  C   UNL     1      35.706 -21.156 -20.238  0.00  0.00    +0.009 C 
BRANCH  24  26
ATOM     25  N   UNL     1      33.521 -22.906 -17.894  0.00  0.00    -0.312 N 
ATOM     26  C   UNL     1      35.036 -21.869 -19.098  0.00  0.00    -0.008 C 
ATOM     27  C   UNL     1      35.628 -22.177 -17.859  0.00  0.00    +0.011 C 
ATOM     28  C   UNL     1      34.650 -22.835 -17.110  0.00  0.00    +0.048 C 
ATOM     29  C   UNL     1      33.751 -22.318 -19.109  0.00  0.00    +0.058 C 
ATOM     30  C   UNL     1      36.898 -21.970 -17.283  0.00  0.00    +0.001 C 
ATOM     31  C   UNL     1      34.878 -23.298 -15.809  0.00  0.00    +0.015 C 
ATOM     32  C   UNL     1      37.141 -22.427 -15.983  0.00  0.00    +0.000 C 
ATOM     33  C   UNL     1      36.145 -23.081 -15.258  0.00  0.00    +0.001 C 
ATOM     34  H   UNL     1      32.671 -23.320 -17.621  0.00  0.00    +0.152 HD
ENDBRANCH  24  26
ENDBRANCH  19  24
ENDBRANCH  18  19
ENDBRANCH   1  18
TORSDOF 7
ENDMDL
MODEL 8
REMARK VINA RESULT:     -11.4      5.528     11.652
REMARK  Name = 6914614
REMARK  7 active torsions:
REMARK  status: ('A' for Active; 'I' for Inactive)
REMARK    1  A    between atoms: O_1  and  C_4
REMARK    2  A    between atoms: O_1  and  C_18
REMARK    3  A    between atoms: C_9  and  C_13
REMARK    4  A    between atoms: C_18  and  C_19
REMARK    5  A    between atoms: C_19  and  N_20
REMARK    6  A    between atoms: C_19  and  C_24
REMARK    7  A    between atoms: C_24  and  C_26
REMARK                            x       y       z     vdW  Elec       q    Type
REMARK                         _______ _______ _______ _____ _____    ______ ____
ROOT
ATOM      1  O   UNL     1      33.774 -12.864 -22.870  0.00  0.00    -0.476 OA
ENDROOT
BRANCH   1   4
ATOM      2  N   UNL     1      34.771 -17.589 -22.904  0.00  0.00    -0.404 NA
ATOM      3  N   UNL     1      33.691 -15.311 -25.546  0.00  0.00    -0.258 NA
ATOM      4  C   UNL     1      33.890 -14.068 -23.492  0.00  0.00    +0.159 C 
ATOM      5  C   UNL     1      34.290 -15.227 -22.816  0.00  0.00    +0.063 C 
ATOM      6  C   UNL     1      34.392 -16.445 -23.509  0.00  0.00    +0.136 C 
ATOM      7  C   UNL     1      34.597 -15.220 -21.449  0.00  0.00    +0.008 C 
ATOM      8  C   UNL     1      33.606 -14.164 -24.843  0.00  0.00    +0.130 C 
ATOM      9  C   UNL     1      35.060 -17.540 -21.583  0.00  0.00    +0.131 C 
ATOM     10  C   UNL     1      34.989 -16.393 -20.818  0.00  0.00    +0.032 C 
ATOM     11  C   UNL     1      34.080 -16.411 -24.858  0.00  0.00    +0.184 C 
BRANCH   9  13
ATOM     12  N   UNL     1      36.232 -21.243 -19.878  0.00  0.00    -0.242 NA
ATOM     13  C   UNL     1      35.458 -18.800 -21.002  0.00  0.00    +0.033 C 
ATOM     14  C   UNL     1      36.795 -19.038 -20.695  0.00  0.00    +0.023 C 
ATOM     15  C   UNL     1      34.510 -19.786 -20.748  0.00  0.00    +0.023 C 
ATOM     16  C   UNL     1      37.127 -20.263 -20.139  0.00  0.00    +0.099 C 
ATOM     17  C   UNL     1      34.944 -20.978 -20.189  0.00  0.00    +0.099 C 
ENDBRANCH   9  13
ENDBRANCH   1   4
BRANCH   1  18
ATOM     18  C   UNL     1      32.482 -12.257 -22.861  0.00  0.00    +0.184 C 
BRANCH  18  19
ATOM     19  C   UNL     1      31.720 -12.559 -21.564  0.00  0.00    -0.017 C 
BRANCH  19  20
ATOM     20  N   UNL     1      32.689 -12.677 -20.468  0.00  0.00    +0.384 N 
ATOM     21  H   UNL     1      33.525 -13.158 -20.803  0.00  0.00    -0.089 HD
ATOM     22  H   UNL     1      32.275 -13.209 -19.704  0.00  0.00    -0.089 HD
ATOM     23  H   UNL     1      32.943 -11.746 -20.137  0.00  0.00    -0.089 HD
ENDBRANCH  19  20
BRANCH  19  24
ATOM     24  C   UNL     1      30.679 -11.489 -21.184  0.00  0.00    +0.009 C 
BRANCH  24  26
ATOM     25  N   UNL     1      31.887  -9.148 -18.656  0.00  0.00    -0.312 N 
ATOM     26  C   UNL     1      31.247 -10.360 -20.371  0.00  0.00    -0.008 C 
ATOM     27  C   UNL     1      31.794  -9.170 -20.885  0.00  0.00    +0.011 C 
ATOM     28  C   UNL     1      32.194  -8.415 -19.780  0.00  0.00    +0.048 C 
ATOM     29  C   UNL     1      31.308 -10.337 -19.011  0.00  0.00    +0.058 C 
ATOM     30  C   UNL     1      31.998  -8.643 -22.176  0.00  0.00    +0.001 C 
ATOM     31  C   UNL     1      32.791  -7.155 -19.903  0.00  0.00    +0.015 C 
ATOM     32  C   UNL     1      32.593  -7.384 -22.314  0.00  0.00    +0.000 C 
ATOM     33  C   UNL     1      32.983  -6.652 -21.193  0.00  0.00    +0.001 C 
ATOM     34  H   UNL     1      32.058  -8.859 -17.731  0.00  0.00    +0.152 HD
ENDBRANCH  24  26
ENDBRANCH  19  24
ENDBRANCH  18  19
ENDBRANCH   1  18
TORSDOF 7
ENDMDL
MODEL 9
REMARK VINA RESULT:     -11.1      5.737     13.004
REMARK  Name = 6914614
REMARK  7 active torsions:
REMARK  status: ('A' for Active; 'I' for Inactive)
REMARK    1  A    between atoms: O_1  and  C_4
REMARK    2  A    between atoms: O_1  and  C_18
REMARK    3  A    between atoms: C_9  and  C_13
REMARK    4  A    between atoms: C_18  and  C_19
REMARK    5  A    between atoms: C_19  and  N_20
REMARK    6  A    between atoms: C_19  and  C_24
REMARK    7  A    between atoms: C_24  and  C_26
REMARK                            x       y       z     vdW  Elec       q    Type
REMARK                         _______ _______ _______ _____ _____    ______ ____
ROOT
ATOM      1  O   UNL     1      33.784 -12.527 -22.961  0.00  0.00    -0.476 OA
ENDROOT
BRANCH   1   4
ATOM      2  N   UNL     1      34.670 -17.273 -23.050  0.00  0.00    -0.404 NA
ATOM      3  N   UNL     1      33.592 -14.950 -25.653  0.00  0.00    -0.258 NA
ATOM      4  C   UNL     1      33.860 -13.728 -23.594  0.00  0.00    +0.159 C 
ATOM      5  C   UNL     1      34.245 -14.901 -22.935  0.00  0.00    +0.063 C 
ATOM      6  C   UNL     1      34.305 -16.116 -23.638  0.00  0.00    +0.136 C 
ATOM      7  C   UNL     1      34.579 -14.912 -21.574  0.00  0.00    +0.008 C 
ATOM      8  C   UNL     1      33.547 -13.807 -24.940  0.00  0.00    +0.130 C 
ATOM      9  C   UNL     1      34.985 -17.241 -21.734  0.00  0.00    +0.131 C 
ATOM     10  C   UNL     1      34.956 -16.099 -20.959  0.00  0.00    +0.032 C 
ATOM     11  C   UNL     1      33.968 -16.064 -24.980  0.00  0.00    +0.184 C 
BRANCH   9  13
ATOM     12  N   UNL     1      36.103 -20.983 -20.080  0.00  0.00    -0.242 NA
ATOM     13  C   UNL     1      35.365 -18.515 -21.171  0.00  0.00    +0.033 C 
ATOM     14  C   UNL     1      36.704 -18.796 -20.918  0.00  0.00    +0.023 C 
ATOM     15  C   UNL     1      34.396 -19.469 -20.879  0.00  0.00    +0.023 C 
ATOM     16  C   UNL     1      37.018 -20.033 -20.376  0.00  0.00    +0.099 C 
ATOM     17  C   UNL     1      34.813 -20.676 -20.339  0.00  0.00    +0.099 C 
ENDBRANCH   9  13
ENDBRANCH   1   4
BRANCH   1  18
ATOM     18  C   UNL     1      32.786 -11.613 -23.416  0.00  0.00    +0.184 C 
BRANCH  18  19
ATOM     19  C   UNL     1      31.840 -11.193 -22.283  0.00  0.00    -0.017 C 
BRANCH  19  20
ATOM     20  N   UNL     1      31.925 -12.189 -21.209  0.00  0.00    +0.384 N 
ATOM     21  H   UNL     1      31.189 -12.015 -20.524  0.00  0.00    -0.089 HD
ATOM     22  H   UNL     1      32.835 -12.122 -20.754  0.00  0.00    -0.089 HD
ATOM     23  H   UNL     1      31.810 -13.124 -21.601  0.00  0.00    -0.089 HD
ENDBRANCH  19  20
BRANCH  19  24
ATOM     24  C   UNL     1      32.149  -9.805 -21.690  0.00  0.00    +0.009 C 
BRANCH  24  26
ATOM     25  N   UNL     1      31.371  -7.242 -24.171  0.00  0.00    -0.312 N 
ATOM     26  C   UNL     1      32.112  -8.696 -22.703  0.00  0.00    -0.008 C 
ATOM     27  C   UNL     1      33.222  -7.958 -23.154  0.00  0.00    +0.011 C 
ATOM     28  C   UNL     1      32.730  -7.041 -24.085  0.00  0.00    +0.048 C 
ATOM     29  C   UNL     1      30.988  -8.252 -23.329  0.00  0.00    +0.058 C 
ATOM     30  C   UNL     1      34.604  -7.965 -22.875  0.00  0.00    +0.001 C 
ATOM     31  C   UNL     1      33.552  -6.126 -24.752  0.00  0.00    +0.015 C 
ATOM     32  C   UNL     1      35.438  -7.056 -23.534  0.00  0.00    +0.000 C 
ATOM     33  C   UNL     1      34.919  -6.151 -24.459  0.00  0.00    +0.001 C 
ATOM     34  H   UNL     1      30.762  -6.734 -24.754  0.00  0.00    +0.152 HD
ENDBRANCH  24  26
ENDBRANCH  19  24
ENDBRANCH  18  19
ENDBRANCH   1  18
TORSDOF 7
ENDMDL
