MODEL 1
REMARK VINA RESULT:     -12.0      0.000      0.000
REMARK  Name = 104758
REMARK  11 active torsions:
REMARK  status: ('A' for Active; 'I' for Inactive)
REMARK    1  A    between atoms: C_2  and  N_21
REMARK    2  A    between atoms: C_3  and  C_8
REMARK    3  A    between atoms: N_7  and  CA_10
REMARK    4  A    between atoms: CA_10  and  C_12
REMARK    5  A    between atoms: CA_10  and  CB_15
REMARK    6  A    between atoms: C_12  and  O_13
REMARK    7  A    between atoms: CB_15  and  CG_16
REMARK    8  A    between atoms: CG_16  and  CD_18
REMARK    9  A    between atoms: CD_18  and  OE1_19
REMARK   10  A    between atoms: N_21  and  C_23
REMARK   11  A    between atoms: C_23  and  C_27
REMARK                            x       y       z     vdW  Elec       q    Type
REMARK                         _______ _______ _______ _____ _____    ______ ____
ROOT
ATOM      1  S   UNL     1      35.255 -21.526 -19.480  0.00  0.00    -0.068 S 
ATOM      2  C   UNL     1      34.840 -20.286 -20.585  0.00  0.00    +0.079 C 
ATOM      3  C   UNL     1      33.609 -21.843 -19.134  0.00  0.00    +0.084 C 
ATOM      4  C   UNL     1      33.477 -20.119 -20.687  0.00  0.00    +0.022 C 
ATOM      5  C   UNL     1      32.764 -21.021 -19.846  0.00  0.00    +0.013 C 
ENDROOT
BRANCH   3   8
ATOM      6  O   UNL     1      33.741 -24.034 -18.242  0.00  0.00    -0.270 OA
ATOM      7  N   UNL     1      32.359 -22.540 -17.177  0.00  0.00    -0.293 N 
ATOM      8  C   ACE A   0      33.281 -22.867 -18.195  0.00  0.00    +0.252 C 
ATOM      9  H   UNL     1      32.004 -21.623 -17.150  0.00  0.00    +0.150 HD
BRANCH   7  10
ATOM     10  CA  UNL     1      31.907 -23.477 -16.174  0.00  0.00    +0.172 C 
BRANCH  10  12
ATOM     11  OXT UNL     1      29.701 -22.680 -16.827  0.00  0.00    -0.248 OA
ATOM     12  C   UNL     1      30.396 -23.385 -16.109  0.00  0.00    +0.332 C 
BRANCH  12  13
ATOM     13  O   UNL     1      29.878 -24.219 -15.170  0.00  0.00    -0.479 OA
ATOM     14  H   UNL     1      29.319 -24.926 -15.426  0.00  0.00    +0.295 HD
ENDBRANCH  12  13
ENDBRANCH  10  12
BRANCH  10  15
ATOM     15  CB  UNL     1      32.598 -23.274 -14.821  0.00  0.00    +0.043 C 
BRANCH  15  16
ATOM     16  CG  UNL     1      33.693 -24.290 -14.470  0.00  0.00    +0.112 C 
BRANCH  16  18
ATOM     17  OE2 UNL     1      34.469 -24.650 -12.188  0.00  0.00    -0.250 OA
ATOM     18  CD  UNL     1      33.615 -24.805 -13.049  0.00  0.00    +0.314 C 
BRANCH  18  19
ATOM     19  OE1 UNL     1      32.475 -25.514 -12.837  0.00  0.00    -0.480 OA
ATOM     20  HE1 UNL     1      32.176 -26.125 -13.482  0.00  0.00    +0.295 HD
ENDBRANCH  18  19
ENDBRANCH  16  18
ENDBRANCH  15  16
ENDBRANCH  10  15
ENDBRANCH   7  10
ENDBRANCH   3   8
BRANCH   2  21
ATOM     21  N   UNL     1      35.813 -19.568 -21.269  0.00  0.00    -0.297 N 
ATOM     22  C   UNL     1      37.130 -19.335 -20.672  0.00  0.00    +0.113 C 
BRANCH  21  23
ATOM     23  C   UNL     1      35.582 -19.026 -22.590  0.00  0.00    +0.118 C 
BRANCH  23  27
ATOM     24  O   UNL     1      33.662 -15.512 -25.834  0.00  0.00    -0.209 OA
ATOM     25  N   UNL     1      33.897 -13.601 -22.318  0.00  0.00    -0.290 N 
ATOM     26  N   UNL     1      33.332 -13.588 -24.633  0.00  0.00    -0.322 NA
ATOM     27  C   UNL     1      35.142 -17.603 -22.514  0.00  0.00    -0.002 C 
ATOM     28  C   UNL     1      34.249 -15.628 -23.573  0.00  0.00    +0.108 C 
ATOM     29  C   UNL     1      34.659 -16.961 -23.655  0.00  0.00    +0.011 C 
ATOM     30  C   UNL     1      34.318 -14.932 -22.357  0.00  0.00    +0.062 C 
ATOM     31  C   UNL     1      35.214 -16.916 -21.301  0.00  0.00    -0.001 C 
ATOM     32  C   UNL     1      34.804 -15.584 -21.221  0.00  0.00    +0.015 C 
ATOM     33  C   UNL     1      33.726 -14.908 -24.767  0.00  0.00    +0.207 C 
ATOM     34  C   UNL     1      33.431 -13.014 -23.470  0.00  0.00    +0.174 C 
ATOM     35  C   UNL     1      32.992 -11.573 -23.361  0.00  0.00    +0.085 C 
ATOM     36  H   UNL     1      33.935 -13.091 -21.477  0.00  0.00    +0.154 HD
ENDBRANCH  23  27
ENDBRANCH  21  23
ENDBRANCH   2  21
TORSDOF 11
ENDMDL
MODEL 2
REMARK VINA RESULT:     -11.9      1.592      1.990
REMARK  Name = 104758
REMARK  11 active torsions:
REMARK  status: ('A' for Active; 'I' for Inactive)
REMARK    1  A    between atoms: C_2  and  N_21
REMARK    2  A    between atoms: C_3  and  C_8
REMARK    3  A    between atoms: N_7  and  CA_10
REMARK    4  A    between atoms: CA_10  and  C_12
REMARK    5  A    between atoms: CA_10  and  CB_15
REMARK    6  A    between atoms: C_12  and  O_13
REMARK    7  A    between atoms: CB_15  and  CG_16
REMARK    8  A    between atoms: CG_16  and  CD_18
REMARK    9  A    between atoms: CD_18  and  OE1_19
REMARK   10  A    between atoms: N_21  and  C_23
REMARK   11  A    between atoms: C_23  and  C_27
REMARK                            x       y       z     vdW  Elec       q    Type
REMARK                         _______ _______ _______ _____ _____    ______ ____
ROOT
ATOM      1  S   UNL     1      35.589 -21.561 -19.591  0.00  0.00    -0.068 S 
ATOM      2  C   UNL     1      34.984 -20.310 -20.591  0.00  0.00    +0.079 C 
ATOM      3  C   UNL     1      34.010 -22.009 -19.104  0.00  0.00    +0.084 C 
ATOM      4  C   UNL     1      33.609 -20.236 -20.553  0.00  0.00    +0.022 C 
ATOM      5  C   UNL     1      33.045 -21.221 -19.692  0.00  0.00    +0.013 C 
ENDROOT
BRANCH   3   8
ATOM      6  O   UNL     1      33.743 -24.293 -18.535  0.00  0.00    -0.270 OA
ATOM      7  N   UNL     1      33.765 -22.771 -16.816  0.00  0.00    -0.293 N 
ATOM      8  C   ACE A   0      33.846 -23.091 -18.188  0.00  0.00    +0.252 C 
ATOM      9  H   UNL     1      33.846 -21.825 -16.555  0.00  0.00    +0.150 HD
BRANCH   7  10
ATOM     10  CA  UNL     1      33.569 -23.752 -15.773  0.00  0.00    +0.172 C 
BRANCH  10  12
ATOM     11  OXT UNL     1      31.151 -24.002 -15.638  0.00  0.00    -0.248 OA
ATOM     12  C   UNL     1      32.189 -23.533 -15.190  0.00  0.00    +0.332 C 
BRANCH  12  13
ATOM     13  O   UNL     1      32.229 -22.772 -14.065  0.00  0.00    -0.479 OA
ATOM     14  H   UNL     1      32.976 -22.234 -13.889  0.00  0.00    +0.295 HD
ENDBRANCH  12  13
ENDBRANCH  10  12
BRANCH  10  15
ATOM     15  CB  UNL     1      34.692 -23.737 -14.729  0.00  0.00    +0.043 C 
BRANCH  15  16
ATOM     16  CG  UNL     1      36.048 -24.279 -15.196  0.00  0.00    +0.112 C 
BRANCH  16  18
ATOM     17  OE2 UNL     1      36.753 -22.109 -16.053  0.00  0.00    -0.250 OA
ATOM     18  CD  UNL     1      37.038 -23.200 -15.577  0.00  0.00    +0.314 C 
BRANCH  18  19
ATOM     19  OE1 UNL     1      38.320 -23.599 -15.365  0.00  0.00    -0.480 OA
ATOM     20  HE1 UNL     1      38.870 -23.813 -16.093  0.00  0.00    +0.295 HD
ENDBRANCH  18  19
ENDBRANCH  16  18
ENDBRANCH  15  16
ENDBRANCH  10  15
ENDBRANCH   7  10
ENDBRANCH   3   8
BRANCH   2  21
ATOM     21  N   UNL     1      35.834 -19.497 -21.330  0.00  0.00    -0.297 N 
ATOM     22  C   UNL     1      37.151 -19.122 -20.811  0.00  0.00    +0.113 C 
BRANCH  21  23
ATOM     23  C   UNL     1      35.471 -18.990 -22.635  0.00  0.00    +0.118 C 
BRANCH  23  27
ATOM     24  O   UNL     1      33.616 -15.435 -25.871  0.00  0.00    -0.209 OA
ATOM     25  N   UNL     1      33.909 -13.529 -22.356  0.00  0.00    -0.290 N 
ATOM     26  N   UNL     1      33.334 -13.503 -24.670  0.00  0.00    -0.322 NA
ATOM     27  C   UNL     1      35.064 -17.557 -22.557  0.00  0.00    -0.002 C 
ATOM     28  C   UNL     1      34.209 -15.563 -23.613  0.00  0.00    +0.108 C 
ATOM     29  C   UNL     1      34.589 -16.905 -23.696  0.00  0.00    +0.011 C 
ATOM     30  C   UNL     1      34.300 -14.869 -22.398  0.00  0.00    +0.062 C 
ATOM     31  C   UNL     1      35.156 -16.872 -21.345  0.00  0.00    -0.001 C 
ATOM     32  C   UNL     1      34.776 -15.532 -21.264  0.00  0.00    +0.015 C 
ATOM     33  C   UNL     1      33.698 -14.832 -24.805  0.00  0.00    +0.207 C 
ATOM     34  C   UNL     1      33.451 -12.931 -23.507  0.00  0.00    +0.174 C 
ATOM     35  C   UNL     1      33.046 -11.481 -23.396  0.00  0.00    +0.085 C 
ATOM     36  H   UNL     1      33.963 -13.019 -21.516  0.00  0.00    +0.154 HD
ENDBRANCH  23  27
ENDBRANCH  21  23
ENDBRANCH   2  21
TORSDOF 11
ENDMDL
MODEL 3
REMARK VINA RESULT:     -11.2      3.166      4.422
REMARK  Name = 104758
REMARK  11 active torsions:
REMARK  status: ('A' for Active; 'I' for Inactive)
REMARK    1  A    between atoms: C_2  and  N_21
REMARK    2  A    between atoms: C_3  and  C_8
REMARK    3  A    between atoms: N_7  and  CA_10
REMARK    4  A    between atoms: CA_10  and  C_12
REMARK    5  A    between atoms: CA_10  and  CB_15
REMARK    6  A    between atoms: C_12  and  O_13
REMARK    7  A    between atoms: CB_15  and  CG_16
REMARK    8  A    between atoms: CG_16  and  CD_18
REMARK    9  A    between atoms: CD_18  and  OE1_19
REMARK   10  A    between atoms: N_21  and  C_23
REMARK   11  A    between atoms: C_23  and  C_27
REMARK                            x       y       z     vdW  Elec       q    Type
REMARK                         _______ _______ _______ _____ _____    ______ ____
ROOT
ATOM      1  S   UNL     1      36.380 -21.763 -17.880  0.00  0.00    -0.068 S 
ATOM      2  C   UNL     1      34.897 -21.741 -18.735  0.00  0.00    +0.079 C 
ATOM      3  C   UNL     1      35.767 -22.879 -16.736  0.00  0.00    +0.084 C 
ATOM      4  C   UNL     1      33.956 -22.567 -18.159  0.00  0.00    +0.022 C 
ATOM      5  C   UNL     1      34.461 -23.226 -17.002  0.00  0.00    +0.013 C 
ENDROOT
BRANCH   3   8
ATOM      6  O   UNL     1      37.634 -22.703 -15.289  0.00  0.00    -0.270 OA
ATOM      7  N   UNL     1      36.285 -24.546 -15.053  0.00  0.00    -0.293 N 
ATOM      8  C   ACE A   0      36.613 -23.321 -15.675  0.00  0.00    +0.252 C 
ATOM      9  H   UNL     1      35.482 -25.024 -15.364  0.00  0.00    +0.150 HD
BRANCH   7  10
ATOM     10  CA  UNL     1      37.061 -25.138 -13.988  0.00  0.00    +0.172 C 
BRANCH  10  12
ATOM     11  OXT UNL     1      38.720 -26.914 -14.130  0.00  0.00    -0.248 OA
ATOM     12  C   UNL     1      37.674 -26.416 -14.522  0.00  0.00    +0.332 C 
BRANCH  12  13
ATOM     13  O   UNL     1      36.899 -26.987 -15.481  0.00  0.00    -0.479 OA
ATOM     14  H   UNL     1      35.972 -26.852 -15.477  0.00  0.00    +0.295 HD
ENDBRANCH  12  13
ENDBRANCH  10  12
BRANCH  10  15
ATOM     15  CB  UNL     1      36.249 -25.331 -12.702  0.00  0.00    +0.043 C 
BRANCH  15  16
ATOM     16  CG  UNL     1      35.820 -24.047 -11.982  0.00  0.00    +0.112 C 
BRANCH  16  18
ATOM     17  OE2 UNL     1      37.729 -22.992 -10.894  0.00  0.00    -0.250 OA
ATOM     18  CD  UNL     1      36.714 -23.671 -10.820  0.00  0.00    +0.314 C 
BRANCH  18  19
ATOM     19  OE1 UNL     1      36.277 -24.218  -9.655  0.00  0.00    -0.480 OA
ATOM     20  HE1 UNL     1      36.873 -24.338  -8.941  0.00  0.00    +0.295 HD
ENDBRANCH  18  19
ENDBRANCH  16  18
ENDBRANCH  15  16
ENDBRANCH  10  15
ENDBRANCH   7  10
ENDBRANCH   3   8
BRANCH   2  21
ATOM     21  N   UNL     1      34.725 -20.960 -19.870  0.00  0.00    -0.297 N 
ATOM     22  C   UNL     1      33.386 -20.680 -20.392  0.00  0.00    +0.113 C 
BRANCH  21  23
ATOM     23  C   UNL     1      35.844 -20.384 -20.583  0.00  0.00    +0.118 C 
BRANCH  23  27
ATOM     24  O   UNL     1      34.971 -15.321 -20.983  0.00  0.00    -0.209 OA
ATOM     25  N   UNL     1      34.064 -16.779 -24.606  0.00  0.00    -0.290 N 
ATOM     26  N   UNL     1      34.249 -14.923 -23.122  0.00  0.00    -0.322 NA
ATOM     27  C   UNL     1      35.376 -19.442 -21.641  0.00  0.00    -0.002 C 
ATOM     28  C   UNL     1      34.822 -17.207 -22.359  0.00  0.00    +0.108 C 
ATOM     29  C   UNL     1      35.262 -18.080 -21.361  0.00  0.00    +0.011 C 
ATOM     30  C   UNL     1      34.498 -17.686 -23.636  0.00  0.00    +0.062 C 
ATOM     31  C   UNL     1      35.055 -19.926 -22.911  0.00  0.00    -0.001 C 
ATOM     32  C   UNL     1      34.616 -19.051 -23.906  0.00  0.00    +0.015 C 
ATOM     33  C   UNL     1      34.687 -15.746 -22.099  0.00  0.00    +0.207 C 
ATOM     34  C   UNL     1      33.966 -15.448 -24.278  0.00  0.00    +0.174 C 
ATOM     35  C   UNL     1      33.490 -14.520 -25.370  0.00  0.00    +0.085 C 
ATOM     36  H   UNL     1      33.830 -17.090 -25.510  0.00  0.00    +0.154 HD
ENDBRANCH  23  27
ENDBRANCH  21  23
ENDBRANCH   2  21
TORSDOF 11
ENDMDL
MODEL 4
REMARK VINA RESULT:     -11.2      3.409      4.731
REMARK  Name = 104758
REMARK  11 active torsions:
REMARK  status: ('A' for Active; 'I' for Inactive)
REMARK    1  A    between atoms: C_2  and  N_21
REMARK    2  A    between atoms: C_3  and  C_8
REMARK    3  A    between atoms: N_7  and  CA_10
REMARK    4  A    between atoms: CA_10  and  C_12
REMARK    5  A    between atoms: CA_10  and  CB_15
REMARK    6  A    between atoms: C_12  and  O_13
REMARK    7  A    between atoms: CB_15  and  CG_16
REMARK    8  A    between atoms: CG_16  and  CD_18
REMARK    9  A    between atoms: CD_18  and  OE1_19
REMARK   10  A    between atoms: N_21  and  C_23
REMARK   11  A    between atoms: C_23  and  C_27
REMARK                            x       y       z     vdW  Elec       q    Type
REMARK                         _______ _______ _______ _____ _____    ______ ____
ROOT
ATOM      1  S   UNL     1      34.617 -22.809 -17.482  0.00  0.00    -0.068 S 
ATOM      2  C   UNL     1      35.474 -21.759 -18.528  0.00  0.00    +0.079 C 
ATOM      3  C   UNL     1      35.923 -22.863 -16.377  0.00  0.00    +0.084 C 
ATOM      4  C   UNL     1      36.727 -21.457 -18.044  0.00  0.00    +0.022 C 
ATOM      5  C   UNL     1      36.988 -22.096 -16.797  0.00  0.00    +0.013 C 
ENDROOT
BRANCH   3   8
ATOM      6  O   UNL     1      34.747 -24.242 -14.852  0.00  0.00    -0.270 OA
ATOM      7  N   UNL     1      36.928 -23.731 -14.349  0.00  0.00    -0.293 N 
ATOM      8  C   ACE A   0      35.800 -23.650 -15.193  0.00  0.00    +0.252 C 
ATOM      9  H   UNL     1      37.749 -23.262 -14.625  0.00  0.00    +0.150 HD
BRANCH   7  10
ATOM     10  CA  UNL     1      36.947 -24.463 -13.103  0.00  0.00    +0.172 C 
BRANCH  10  12
ATOM     11  OXT UNL     1      37.240 -22.741 -11.406  0.00  0.00    -0.248 OA
ATOM     12  C   UNL     1      36.506 -23.514 -12.007  0.00  0.00    +0.332 C 
BRANCH  12  13
ATOM     13  O   UNL     1      35.168 -23.587 -11.782  0.00  0.00    -0.479 OA
ATOM     14  H   UNL     1      34.782 -23.091 -11.087  0.00  0.00    +0.295 HD
ENDBRANCH  12  13
ENDBRANCH  10  12
BRANCH  10  15
ATOM     15  CB  UNL     1      38.298 -25.135 -12.832  0.00  0.00    +0.043 C 
BRANCH  15  16
ATOM     16  CG  UNL     1      38.822 -26.055 -13.942  0.00  0.00    +0.112 C 
BRANCH  16  18
ATOM     17  OE2 UNL     1      40.926 -24.826 -13.983  0.00  0.00    -0.250 OA
ATOM     18  CD  UNL     1      40.169 -25.641 -14.492  0.00  0.00    +0.314 C 
BRANCH  18  19
ATOM     19  OE1 UNL     1      40.439 -26.260 -15.672  0.00  0.00    -0.480 OA
ATOM     20  HE1 UNL     1      40.948 -27.047 -15.683  0.00  0.00    +0.295 HD
ENDBRANCH  18  19
ENDBRANCH  16  18
ENDBRANCH  15  16
ENDBRANCH  10  15
ENDBRANCH   7  10
ENDBRANCH   3   8
BRANCH   2  21
ATOM     21  N   UNL     1      34.913 -21.299 -19.713  0.00  0.00    -0.297 N 
ATOM     22  C   UNL     1      33.486 -20.982 -19.794  0.00  0.00    +0.113 C 
BRANCH  21  23
ATOM     23  C   UNL     1      35.701 -21.106 -20.911  0.00  0.00    +0.118 C 
BRANCH  23  27
ATOM     24  O   UNL     1      33.300 -19.325 -25.108  0.00  0.00    -0.209 OA
ATOM     25  N   UNL     1      34.640 -16.033 -23.252  0.00  0.00    -0.290 N 
ATOM     26  N   UNL     1      33.477 -17.040 -25.074  0.00  0.00    -0.322 NA
ATOM     27  C   UNL     1      35.426 -19.774 -21.522  0.00  0.00    -0.002 C 
ATOM     28  C   UNL     1      34.459 -18.436 -23.282  0.00  0.00    +0.108 C 
ATOM     29  C   UNL     1      34.712 -19.689 -22.718  0.00  0.00    +0.011 C 
ATOM     30  C   UNL     1      34.914 -17.267 -22.657  0.00  0.00    +0.062 C 
ATOM     31  C   UNL     1      35.881 -18.613 -20.894  0.00  0.00    -0.001 C 
ATOM     32  C   UNL     1      35.627 -17.362 -21.459  0.00  0.00    +0.015 C 
ATOM     33  C   UNL     1      33.701 -18.304 -24.557  0.00  0.00    +0.207 C 
ATOM     34  C   UNL     1      33.935 -16.004 -24.432  0.00  0.00    +0.174 C 
ATOM     35  C   UNL     1      33.672 -14.641 -25.026  0.00  0.00    +0.085 C 
ATOM     36  H   UNL     1      34.947 -15.197 -22.833  0.00  0.00    +0.154 HD
ENDBRANCH  23  27
ENDBRANCH  21  23
ENDBRANCH   2  21
TORSDOF 11
ENDMDL
MODEL 5
REMARK VINA RESULT:     -11.0      3.536     10.788
REMARK  Name = 104758
REMARK  11 active torsions:
REMARK  status: ('A' for Active; 'I' for Inactive)
REMARK    1  A    between atoms: C_2  and  N_21
REMARK    2  A    between atoms: C_3  and  C_8
REMARK    3  A    between atoms: N_7  and  CA_10
REMARK    4  A    between atoms: CA_10  and  C_12
REMARK    5  A    between atoms: CA_10  and  CB_15
REMARK    6  A    between atoms: C_12  and  O_13
REMARK    7  A    between atoms: CB_15  and  CG_16
REMARK    8  A    between atoms: CG_16  and  CD_18
REMARK    9  A    between atoms: CD_18  and  OE1_19
REMARK   10  A    between atoms: N_21  and  C_23
REMARK   11  A    between atoms: C_23  and  C_27
REMARK                            x       y       z     vdW  Elec       q    Type
REMARK                         _______ _______ _______ _____ _____    ______ ____
ROOT
ATOM      1  S   UNL     1      34.309 -15.822 -23.920  0.00  0.00    -0.068 S 
ATOM      2  C   UNL     1      34.867 -16.731 -22.580  0.00  0.00    +0.079 C 
ATOM      3  C   UNL     1      33.994 -14.459 -22.934  0.00  0.00    +0.084 C 
ATOM      4  C   UNL     1      34.812 -16.009 -21.408  0.00  0.00    +0.022 C 
ATOM      5  C   UNL     1      34.306 -14.693 -21.613  0.00  0.00    +0.013 C 
ENDROOT
BRANCH   3   8
ATOM      6  O   UNL     1      33.363 -13.103 -24.772  0.00  0.00    -0.270 OA
ATOM      7  N   UNL     1      33.068 -12.234 -22.666  0.00  0.00    -0.293 N 
ATOM      8  C   ACE A   0      33.465 -13.276 -23.533  0.00  0.00    +0.252 C 
ATOM      9  H   UNL     1      33.152 -12.380 -21.696  0.00  0.00    +0.150 HD
BRANCH   7  10
ATOM     10  CA  UNL     1      32.544 -10.967 -23.123  0.00  0.00    +0.172 C 
BRANCH  10  12
ATOM     11  OXT UNL     1      33.632  -8.822 -22.746  0.00  0.00    -0.248 OA
ATOM     12  C   UNL     1      33.691  -9.978 -23.144  0.00  0.00    +0.332 C 
BRANCH  12  13
ATOM     13  O   UNL     1      34.832 -10.534 -23.627  0.00  0.00    -0.479 OA
ATOM     14  H   UNL     1      35.308 -11.153 -23.109  0.00  0.00    +0.295 HD
ENDBRANCH  12  13
ENDBRANCH  10  12
BRANCH  10  15
ATOM     15  CB  UNL     1      31.336 -10.497 -22.305  0.00  0.00    +0.043 C 
BRANCH  15  16
ATOM     16  CG  UNL     1      31.178 -11.134 -20.918  0.00  0.00    +0.112 C 
BRANCH  16  18
ATOM     17  OE2 UNL     1      30.895 -10.276 -18.655  0.00  0.00    -0.250 OA
ATOM     18  CD  UNL     1      31.373 -10.162 -19.775  0.00  0.00    +0.314 C 
BRANCH  18  19
ATOM     19  OE1 UNL     1      32.129  -9.096 -20.149  0.00  0.00    -0.480 OA
ATOM     20  HE1 UNL     1      32.669  -9.150 -20.913  0.00  0.00    +0.295 HD
ENDBRANCH  18  19
ENDBRANCH  16  18
ENDBRANCH  15  16
ENDBRANCH  10  15
ENDBRANCH   7  10
ENDBRANCH   3   8
BRANCH   2  21
ATOM     21  N   UNL     1      35.309 -18.039 -22.725  0.00  0.00    -0.297 N 
ATOM     22  C   UNL     1      34.618 -18.970 -23.620  0.00  0.00    +0.113 C 
BRANCH  21  23
ATOM     23  C   UNL     1      36.464 -18.543 -22.013  0.00  0.00    +0.118 C 
BRANCH  23  27
ATOM     24  O   UNL     1      32.072 -20.676 -20.364  0.00  0.00    -0.209 OA
ATOM     25  N   UNL     1      34.927 -22.465 -18.192  0.00  0.00    -0.290 N 
ATOM     26  N   UNL     1      32.623 -22.198 -18.742  0.00  0.00    -0.322 NA
ATOM     27  C   UNL     1      36.065 -19.572 -21.009  0.00  0.00    -0.002 C 
ATOM     28  C   UNL     1      34.356 -20.861 -19.898  0.00  0.00    +0.108 C 
ATOM     29  C   UNL     1      34.719 -19.896 -20.841  0.00  0.00    +0.011 C 
ATOM     30  C   UNL     1      35.331 -21.505 -19.123  0.00  0.00    +0.062 C 
ATOM     31  C   UNL     1      37.041 -20.209 -20.241  0.00  0.00    -0.001 C 
ATOM     32  C   UNL     1      36.677 -21.173 -19.300  0.00  0.00    +0.015 C 
ATOM     33  C   UNL     1      32.930 -21.236 -19.688  0.00  0.00    +0.207 C 
ATOM     34  C   UNL     1      33.588 -22.747 -18.063  0.00  0.00    +0.174 C 
ATOM     35  C   UNL     1      33.216 -23.792 -17.039  0.00  0.00    +0.085 C 
ATOM     36  H   UNL     1      35.592 -22.932 -17.636  0.00  0.00    +0.154 HD
ENDBRANCH  23  27
ENDBRANCH  21  23
ENDBRANCH   2  21
TORSDOF 11
ENDMDL
MODEL 6
REMARK VINA RESULT:     -10.6      3.628     10.759
REMARK  Name = 104758
REMARK  11 active torsions:
REMARK  status: ('A' for Active; 'I' for Inactive)
REMARK    1  A    between atoms: C_2  and  N_21
REMARK    2  A    between atoms: C_3  and  C_8
REMARK    3  A    between atoms: N_7  and  CA_10
REMARK    4  A    between atoms: CA_10  and  C_12
REMARK    5  A    between atoms: CA_10  and  CB_15
REMARK    6  A    between atoms: C_12  and  O_13
REMARK    7  A    between atoms: CB_15  and  CG_16
REMARK    8  A    between atoms: CG_16  and  CD_18
REMARK    9  A    between atoms: CD_18  and  OE1_19
REMARK   10  A    between atoms: N_21  and  C_23
REMARK   11  A    between atoms: C_23  and  C_27
REMARK                            x       y       z     vdW  Elec       q    Type
REMARK                         _______ _______ _______ _____ _____    ______ ____
ROOT
ATOM      1  S   UNL     1      34.634 -15.395 -22.409  0.00  0.00    -0.068 S 
ATOM      2  C   UNL     1      34.535 -16.701 -23.511  0.00  0.00    +0.079 C 
ATOM      3  C   UNL     1      33.840 -14.342 -23.501  0.00  0.00    +0.084 C 
ATOM      4  C   UNL     1      33.910 -16.341 -24.685  0.00  0.00    +0.022 C 
ATOM      5  C   UNL     1      33.507 -14.974 -24.678  0.00  0.00    +0.013 C 
ENDROOT
BRANCH   3   8
ATOM      6  O   UNL     1      34.257 -12.011 -23.566  0.00  0.00    -0.270 OA
ATOM      7  N   UNL     1      32.611 -12.751 -22.146  0.00  0.00    -0.293 N 
ATOM      8  C   ACE A   0      33.609 -12.988 -23.116  0.00  0.00    +0.252 C 
ATOM      9  H   UNL     1      32.109 -13.524 -21.799  0.00  0.00    +0.150 HD
BRANCH   7  10
ATOM     10  CA  UNL     1      32.284 -11.440 -21.634  0.00  0.00    +0.172 C 
BRANCH  10  12
ATOM     11  OXT UNL     1      32.164 -12.553 -19.472  0.00  0.00    -0.248 OA
ATOM     12  C   UNL     1      31.873 -11.602 -20.185  0.00  0.00    +0.332 C 
BRANCH  12  13
ATOM     13  O   UNL     1      31.161 -10.535 -19.738  0.00  0.00    -0.479 OA
ATOM     14  H   UNL     1      31.385 -10.129 -18.924  0.00  0.00    +0.295 HD
ENDBRANCH  12  13
ENDBRANCH  10  12
BRANCH  10  15
ATOM     15  CB  UNL     1      31.245 -10.711 -22.494  0.00  0.00    +0.043 C 
BRANCH  15  16
ATOM     16  CG  UNL     1      31.679  -9.353 -23.060  0.00  0.00    +0.112 C 
BRANCH  16  18
ATOM     17  OE2 UNL     1      32.911  -8.210 -21.295  0.00  0.00    -0.250 OA
ATOM     18  CD  UNL     1      32.900  -8.771 -22.382  0.00  0.00    +0.314 C 
BRANCH  18  19
ATOM     19  OE1 UNL     1      34.012  -8.908 -23.151  0.00  0.00    -0.480 OA
ATOM     20  HE1 UNL     1      34.744  -9.401 -22.834  0.00  0.00    +0.295 HD
ENDBRANCH  18  19
ENDBRANCH  16  18
ENDBRANCH  15  16
ENDBRANCH  10  15
ENDBRANCH   7  10
ENDBRANCH   3   8
BRANCH   2  21
ATOM     21  N   UNL     1      35.045 -17.955 -23.199  0.00  0.00    -0.297 N 
ATOM     22  C   UNL     1      34.476 -19.165 -23.795  0.00  0.00    +0.113 C 
BRANCH  21  23
ATOM     23  C   UNL     1      36.153 -18.127 -22.286  0.00  0.00    +0.118 C 
BRANCH  23  27
ATOM     24  O   UNL     1      31.984 -20.565 -20.488  0.00  0.00    -0.209 OA
ATOM     25  N   UNL     1      35.047 -22.246 -18.524  0.00  0.00    -0.290 N 
ATOM     26  N   UNL     1      32.706 -22.100 -18.947  0.00  0.00    -0.322 NA
ATOM     27  C   UNL     1      35.868 -19.208 -21.298  0.00  0.00    -0.002 C 
ATOM     28  C   UNL     1      34.296 -20.629 -20.144  0.00  0.00    +0.108 C 
ATOM     29  C   UNL     1      34.553 -19.616 -21.072  0.00  0.00    +0.011 C 
ATOM     30  C   UNL     1      35.346 -21.237 -19.441  0.00  0.00    +0.062 C 
ATOM     31  C   UNL     1      36.918 -19.809 -20.601  0.00  0.00    -0.001 C 
ATOM     32  C   UNL     1      36.659 -20.821 -19.676  0.00  0.00    +0.015 C 
ATOM     33  C   UNL     1      32.907 -21.093 -19.875  0.00  0.00    +0.207 C 
ATOM     34  C   UNL     1      33.735 -22.611 -18.336  0.00  0.00    +0.174 C 
ATOM     35  C   UNL     1      33.478 -23.707 -17.330  0.00  0.00    +0.085 C 
ATOM     36  H   UNL     1      35.766 -22.690 -18.018  0.00  0.00    +0.154 HD
ENDBRANCH  23  27
ENDBRANCH  21  23
ENDBRANCH   2  21
TORSDOF 11
ENDMDL
MODEL 7
REMARK VINA RESULT:     -10.5      2.454      3.550
REMARK  Name = 104758
REMARK  11 active torsions:
REMARK  status: ('A' for Active; 'I' for Inactive)
REMARK    1  A    between atoms: C_2  and  N_21
REMARK    2  A    between atoms: C_3  and  C_8
REMARK    3  A    between atoms: N_7  and  CA_10
REMARK    4  A    between atoms: CA_10  and  C_12
REMARK    5  A    between atoms: CA_10  and  CB_15
REMARK    6  A    between atoms: C_12  and  O_13
REMARK    7  A    between atoms: CB_15  and  CG_16
REMARK    8  A    between atoms: CG_16  and  CD_18
REMARK    9  A    between atoms: CD_18  and  OE1_19
REMARK   10  A    between atoms: N_21  and  C_23
REMARK   11  A    between atoms: C_23  and  C_27
REMARK                            x       y       z     vdW  Elec       q    Type
REMARK                         _______ _______ _______ _____ _____    ______ ____
ROOT
ATOM      1  S   UNL     1      34.262 -22.885 -17.788  0.00  0.00    -0.068 S 
ATOM      2  C   UNL     1      35.267 -21.768 -18.609  0.00  0.00    +0.079 C 
ATOM      3  C   UNL     1      35.433 -23.119 -16.561  0.00  0.00    +0.084 C 
ATOM      4  C   UNL     1      36.468 -21.579 -17.960  0.00  0.00    +0.022 C 
ATOM      5  C   UNL     1      36.563 -22.361 -16.774  0.00  0.00    +0.013 C 
ENDROOT
BRANCH   3   8
ATOM      6  O   UNL     1      35.353 -25.260 -15.551  0.00  0.00    -0.270 OA
ATOM      7  N   UNL     1      34.573 -23.483 -14.323  0.00  0.00    -0.293 N 
ATOM      8  C   ACE A   0      35.149 -24.023 -15.494  0.00  0.00    +0.252 C 
ATOM      9  H   UNL     1      34.416 -22.511 -14.289  0.00  0.00    +0.150 HD
BRANCH   7  10
ATOM     10  CA  UNL     1      34.202 -24.275 -13.173  0.00  0.00    +0.172 C 
BRANCH  10  12
ATOM     11  OXT UNL     1      31.890 -24.978 -13.466  0.00  0.00    -0.248 OA
ATOM     12  C   UNL     1      32.699 -24.179 -13.015  0.00  0.00    +0.332 C 
BRANCH  12  13
ATOM     13  O   UNL     1      32.335 -23.103 -12.269  0.00  0.00    -0.479 OA
ATOM     14  H   UNL     1      32.959 -22.691 -11.704  0.00  0.00    +0.295 HD
ENDBRANCH  12  13
ENDBRANCH  10  12
BRANCH  10  15
ATOM     15  CB  UNL     1      34.982 -23.886 -11.911  0.00  0.00    +0.043 C 
BRANCH  15  16
ATOM     16  CG  UNL     1      36.372 -24.519 -11.762  0.00  0.00    +0.112 C 
BRANCH  16  18
ATOM     17  OE2 UNL     1      37.685 -23.257 -13.381  0.00  0.00    -0.250 OA
ATOM     18  CD  UNL     1      37.501 -23.627 -12.230  0.00  0.00    +0.314 C 
BRANCH  18  19
ATOM     19  OE1 UNL     1      38.339 -23.304 -11.209  0.00  0.00    -0.480 OA
ATOM     20  HE1 UNL     1      38.868 -22.532 -11.264  0.00  0.00    +0.295 HD
ENDBRANCH  18  19
ENDBRANCH  16  18
ENDBRANCH  15  16
ENDBRANCH  10  15
ENDBRANCH   7  10
ENDBRANCH   3   8
BRANCH   2  21
ATOM     21  N   UNL     1      34.861 -21.157 -19.789  0.00  0.00    -0.297 N 
ATOM     22  C   UNL     1      33.468 -20.750 -19.981  0.00  0.00    +0.113 C 
BRANCH  21  23
ATOM     23  C   UNL     1      35.782 -20.888 -20.871  0.00  0.00    +0.118 C 
BRANCH  23  27
ATOM     24  O   UNL     1      33.325 -19.334 -25.126  0.00  0.00    -0.209 OA
ATOM     25  N   UNL     1      34.567 -15.938 -23.394  0.00  0.00    -0.290 N 
ATOM     26  N   UNL     1      33.434 -17.045 -25.176  0.00  0.00    -0.322 NA
ATOM     27  C   UNL     1      35.466 -19.587 -21.530  0.00  0.00    -0.002 C 
ATOM     28  C   UNL     1      34.459 -18.345 -23.336  0.00  0.00    +0.108 C 
ATOM     29  C   UNL     1      34.750 -19.568 -22.727  0.00  0.00    +0.011 C 
ATOM     30  C   UNL     1      34.879 -17.140 -22.755  0.00  0.00    +0.062 C 
ATOM     31  C   UNL     1      35.888 -18.392 -20.946  0.00  0.00    -0.001 C 
ATOM     32  C   UNL     1      35.596 -17.170 -21.556  0.00  0.00    +0.015 C 
ATOM     33  C   UNL     1      33.696 -18.282 -24.613  0.00  0.00    +0.207 C 
ATOM     34  C   UNL     1      33.861 -15.973 -24.573  0.00  0.00    +0.174 C 
ATOM     35  C   UNL     1      33.556 -14.641 -25.215  0.00  0.00    +0.085 C 
ATOM     36  H   UNL     1      34.850 -15.078 -23.007  0.00  0.00    +0.154 HD
ENDBRANCH  23  27
ENDBRANCH  21  23
ENDBRANCH   2  21
TORSDOF 11
ENDMDL
MODEL 8
REMARK VINA RESULT:     -10.4      1.812      2.681
REMARK  Name = 104758
REMARK  11 active torsions:
REMARK  status: ('A' for Active; 'I' for Inactive)
REMARK    1  A    between atoms: C_2  and  N_21
REMARK    2  A    between atoms: C_3  and  C_8
REMARK    3  A    between atoms: N_7  and  CA_10
REMARK    4  A    between atoms: CA_10  and  C_12
REMARK    5  A    between atoms: CA_10  and  CB_15
REMARK    6  A    between atoms: C_12  and  O_13
REMARK    7  A    between atoms: CB_15  and  CG_16
REMARK    8  A    between atoms: CG_16  and  CD_18
REMARK    9  A    between atoms: CD_18  and  OE1_19
REMARK   10  A    between atoms: N_21  and  C_23
REMARK   11  A    between atoms: C_23  and  C_27
REMARK                            x       y       z     vdW  Elec       q    Type
REMARK                         _______ _______ _______ _____ _____    ______ ____
ROOT
ATOM      1  S   UNL     1      35.547 -21.357 -19.767  0.00  0.00    -0.068 S 
ATOM      2  C   UNL     1      34.524 -20.411 -20.761  0.00  0.00    +0.079 C 
ATOM      3  C   UNL     1      34.224 -21.898 -18.826  0.00  0.00    +0.084 C 
ATOM      4  C   UNL     1      33.203 -20.506 -20.381  0.00  0.00    +0.022 C 
ATOM      5  C   UNL     1      33.029 -21.368 -19.261  0.00  0.00    +0.013 C 
ENDROOT
BRANCH   3   8
ATOM      6  O   UNL     1      34.000 -23.959 -17.678  0.00  0.00    -0.270 OA
ATOM      7  N   UNL     1      35.244 -22.315 -16.666  0.00  0.00    -0.293 N 
ATOM      8  C   ACE A   0      34.463 -22.794 -17.741  0.00  0.00    +0.252 C 
ATOM      9  H   UNL     1      35.602 -21.399 -16.725  0.00  0.00    +0.150 HD
BRANCH   7  10
ATOM     10  CA  UNL     1      35.546 -23.091 -15.486  0.00  0.00    +0.172 C 
BRANCH  10  12
ATOM     11  OXT UNL     1      37.932 -22.673 -15.735  0.00  0.00    -0.248 OA
ATOM     12  C   UNL     1      37.015 -23.459 -15.543  0.00  0.00    +0.332 C 
BRANCH  12  13
ATOM     13  O   UNL     1      37.214 -24.784 -15.314  0.00  0.00    -0.479 OA
ATOM     14  H   UNL     1      36.562 -25.287 -14.867  0.00  0.00    +0.295 HD
ENDBRANCH  12  13
ENDBRANCH  10  12
BRANCH  10  15
ATOM     15  CB  UNL     1      34.613 -24.296 -15.315  0.00  0.00    +0.043 C 
BRANCH  15  16
ATOM     16  CG  UNL     1      33.828 -24.352 -13.998  0.00  0.00    +0.112 C 
BRANCH  16  18
ATOM     17  OE2 UNL     1      35.704 -25.173 -12.676  0.00  0.00    -0.250 OA
ATOM     18  CD  UNL     1      34.705 -24.473 -12.771  0.00  0.00    +0.314 C 
BRANCH  18  19
ATOM     19  OE1 UNL     1      34.227 -23.728 -11.739  0.00  0.00    -0.480 OA
ATOM     20  HE1 UNL     1      34.574 -23.845 -10.876  0.00  0.00    +0.295 HD
ENDBRANCH  18  19
ENDBRANCH  16  18
ENDBRANCH  15  16
ENDBRANCH  10  15
ENDBRANCH   7  10
ENDBRANCH   3   8
BRANCH   2  21
ATOM     21  N   UNL     1      35.028 -19.656 -21.812  0.00  0.00    -0.297 N 
ATOM     22  C   UNL     1      34.594 -19.903 -23.188  0.00  0.00    +0.113 C 
BRANCH  21  23
ATOM     23  C   UNL     1      35.991 -18.596 -21.604  0.00  0.00    +0.118 C 
BRANCH  23  27
ATOM     24  O   UNL     1      34.204 -15.562 -25.367  0.00  0.00    -0.209 OA
ATOM     25  N   UNL     1      33.509 -13.495 -22.003  0.00  0.00    -0.290 N 
ATOM     26  N   UNL     1      33.382 -13.665 -24.377  0.00  0.00    -0.322 NA
ATOM     27  C   UNL     1      35.341 -17.257 -21.704  0.00  0.00    -0.002 C 
ATOM     28  C   UNL     1      34.377 -15.492 -23.035  0.00  0.00    +0.108 C 
ATOM     29  C   UNL     1      34.986 -16.746 -22.953  0.00  0.00    +0.011 C 
ATOM     30  C   UNL     1      34.120 -14.744 -21.877  0.00  0.00    +0.062 C 
ATOM     31  C   UNL     1      35.088 -16.519 -20.547  0.00  0.00    -0.001 C 
ATOM     32  C   UNL     1      34.479 -15.265 -20.632  0.00  0.00    +0.015 C 
ATOM     33  C   UNL     1      33.982 -14.912 -24.349  0.00  0.00    +0.207 C 
ATOM     34  C   UNL     1      33.180 -13.035 -23.256  0.00  0.00    +0.174 C 
ATOM     35  C   UNL     1      32.523 -11.678 -23.325  0.00  0.00    +0.085 C 
ATOM     36  H   UNL     1      33.317 -12.951 -21.205  0.00  0.00    +0.154 HD
ENDBRANCH  23  27
ENDBRANCH  21  23
ENDBRANCH   2  21
TORSDOF 11
ENDMDL
MODEL 9
REMARK VINA RESULT:     -10.4      2.374      3.411
REMARK  Name = 104758
REMARK  11 active torsions:
REMARK  status: ('A' for Active; 'I' for Inactive)
REMARK    1  A    between atoms: C_2  and  N_21
REMARK    2  A    between atoms: C_3  and  C_8
REMARK    3  A    between atoms: N_7  and  CA_10
REMARK    4  A    between atoms: CA_10  and  C_12
REMARK    5  A    between atoms: CA_10  and  CB_15
REMARK    6  A    between atoms: C_12  and  O_13
REMARK    7  A    between atoms: CB_15  and  CG_16
REMARK    8  A    between atoms: CG_16  and  CD_18
REMARK    9  A    between atoms: CD_18  and  OE1_19
REMARK   10  A    between atoms: N_21  and  C_23
REMARK   11  A    between atoms: C_23  and  C_27
REMARK                            x       y       z     vdW  Elec       q    Type
REMARK                         _______ _______ _______ _____ _____    ______ ____
ROOT
ATOM      1  S   UNL     1      34.298 -22.185 -18.524  0.00  0.00    -0.068 S 
ATOM      2  C   UNL     1      35.168 -21.147 -19.571  0.00  0.00    +0.079 C 
ATOM      3  C   UNL     1      35.676 -22.439 -17.542  0.00  0.00    +0.084 C 
ATOM      4  C   UNL     1      36.480 -20.999 -19.179  0.00  0.00    +0.022 C 
ATOM      5  C   UNL     1      36.774 -21.748 -18.003  0.00  0.00    +0.013 C 
ENDROOT
BRANCH   3   8
ATOM      6  O   UNL     1      34.489 -23.783 -15.994  0.00  0.00    -0.270 OA
ATOM      7  N   UNL     1      36.755 -23.571 -15.689  0.00  0.00    -0.293 N 
ATOM      8  C   ACE A   0      35.570 -23.294 -16.404  0.00  0.00    +0.252 C 
ATOM      9  H   UNL     1      37.597 -23.182 -16.019  0.00  0.00    +0.150 HD
BRANCH   7  10
ATOM     10  CA  UNL     1      36.802 -24.392 -14.501  0.00  0.00    +0.172 C 
BRANCH  10  12
ATOM     11  OXT UNL     1      35.891 -26.535 -15.213  0.00  0.00    -0.248 OA
ATOM     12  C   UNL     1      36.861 -25.839 -14.946  0.00  0.00    +0.332 C 
BRANCH  12  13
ATOM     13  O   UNL     1      38.140 -26.284 -15.056  0.00  0.00    -0.479 OA
ATOM     14  H   UNL     1      38.309 -27.168 -15.316  0.00  0.00    +0.295 HD
ENDBRANCH  12  13
ENDBRANCH  10  12
BRANCH  10  15
ATOM     15  CB  UNL     1      35.656 -24.091 -13.528  0.00  0.00    +0.043 C 
BRANCH  15  16
ATOM     16  CG  UNL     1      36.070 -23.545 -12.155  0.00  0.00    +0.112 C 
BRANCH  16  18
ATOM     17  OE2 UNL     1      36.714 -24.675 -10.094  0.00  0.00    -0.250 OA
ATOM     18  CD  UNL     1      35.941 -24.553 -11.034  0.00  0.00    +0.314 C 
BRANCH  18  19
ATOM     19  OE1 UNL     1      34.861 -25.360 -11.209  0.00  0.00    -0.480 OA
ATOM     20  HE1 UNL     1      34.535 -25.525 -12.073  0.00  0.00    +0.295 HD
ENDBRANCH  18  19
ENDBRANCH  16  18
ENDBRANCH  15  16
ENDBRANCH  10  15
ENDBRANCH   7  10
ENDBRANCH   3   8
BRANCH   2  21
ATOM     21  N   UNL     1      34.564 -20.554 -20.672  0.00  0.00    -0.297 N 
ATOM     22  C   UNL     1      33.106 -20.455 -20.764  0.00  0.00    +0.113 C 
BRANCH  21  23
ATOM     23  C   UNL     1      35.333 -20.003 -21.767  0.00  0.00    +0.118 C 
BRANCH  23  27
ATOM     24  O   UNL     1      33.828 -16.724 -25.447  0.00  0.00    -0.209 OA
ATOM     25  N   UNL     1      34.482 -14.400 -22.246  0.00  0.00    -0.290 N 
ATOM     26  N   UNL     1      33.834 -14.624 -24.529  0.00  0.00    -0.322 NA
ATOM     27  C   UNL     1      35.112 -18.533 -21.888  0.00  0.00    -0.002 C 
ATOM     28  C   UNL     1      34.479 -16.612 -23.203  0.00  0.00    +0.108 C 
ATOM     29  C   UNL     1      34.684 -17.990 -23.100  0.00  0.00    +0.011 C 
ATOM     30  C   UNL     1      34.699 -15.772 -22.102  0.00  0.00    +0.062 C 
ATOM     31  C   UNL     1      35.332 -17.703 -20.788  0.00  0.00    -0.001 C 
ATOM     32  C   UNL     1      35.127 -16.326 -20.893  0.00  0.00    +0.015 C 
ATOM     33  C   UNL     1      34.022 -15.994 -24.479  0.00  0.00    +0.207 C 
ATOM     34  C   UNL     1      34.062 -13.915 -23.462  0.00  0.00    +0.174 C 
ATOM     35  C   UNL     1      33.846 -12.424 -23.554  0.00  0.00    +0.085 C 
ATOM     36  H   UNL     1      34.628 -13.789 -21.488  0.00  0.00    +0.154 HD
ENDBRANCH  23  27
ENDBRANCH  21  23
ENDBRANCH   2  21
TORSDOF 11
ENDMDL
