MODEL 1
REMARK VINA RESULT:     -11.7      0.000      0.000
REMARK  Name = 25113614
REMARK  7 active torsions:
REMARK  status: ('A' for Active; 'I' for Inactive)
REMARK    1  A    between atoms: C_3  and  C_10
REMARK    2  A    between atoms: C_7  and  C_25
REMARK    3  A    between atoms: N_9  and  C_12
REMARK    4  A    between atoms: C_12  and  C_13
REMARK    5  A    between atoms: C_18  and  C_21
REMARK    6  A    between atoms: C_25  and  N_26
REMARK    7  A    between atoms: N_26  and  C_29
REMARK                            x       y       z     vdW  Elec       q    Type
REMARK                         _______ _______ _______ _____ _____    ______ ____
ROOT
ATOM      1  O   UNL     1      34.965 -25.424 -11.513  0.00  0.00    -0.277 OA
ATOM      2  N   UNL     1      35.821 -24.292 -13.336  0.00  0.00    -0.275 N 
ATOM      3  C   UNL     1      35.768 -23.274 -14.383  0.00  0.00    +0.152 C 
ATOM      4  C   UNL     1      37.232 -22.965 -14.688  0.00  0.00    +0.031 C 
ATOM      5  C   UNL     1      37.171 -24.820 -13.186  0.00  0.00    +0.094 C 
ATOM      6  C   UNL     1      37.943 -24.281 -14.379  0.00  0.00    +0.024 C 
ATOM      7  C   UNL     1      34.809 -24.652 -12.461  0.00  0.00    +0.204 C 
ENDROOT
BRANCH   3  10
ATOM      8  O   UNL     1      35.025 -25.088 -15.745  0.00  0.00    -0.273 OA
ATOM      9  N   UNL     1      34.599 -22.908 -16.440  0.00  0.00    -0.299 N 
ATOM     10  C   UNL     1      35.093 -23.873 -15.579  0.00  0.00    +0.241 C 
ATOM     11  H   UNL     1      34.714 -21.960 -16.197  0.00  0.00    +0.150 HD
BRANCH   9  12
ATOM     12  C   UNL     1      33.923 -23.223 -17.677  0.00  0.00    +0.116 C 
BRANCH  12  13
ATOM     13  C   UNL     1      34.161 -22.179 -18.729  0.00  0.00    -0.003 C 
ATOM     14  C   UNL     1      35.463 -21.880 -19.133  0.00  0.00    -0.003 C 
ATOM     15  C   UNL     1      33.082 -21.506 -19.302  0.00  0.00    -0.003 C 
ATOM     16  C   UNL     1      35.685 -20.909 -20.109  0.00  0.00    +0.002 C 
ATOM     17  C   UNL     1      33.304 -20.535 -20.278  0.00  0.00    +0.002 C 
ATOM     18  C   UNL     1      34.605 -20.237 -20.682  0.00  0.00    +0.031 C 
BRANCH  18  21
ATOM     19  N   UNL     1      34.572 -19.474 -23.045  0.00  0.00    -0.343 N 
ATOM     20  N   UNL     1      35.315 -18.041 -21.355  0.00  0.00    -0.285 NA
ATOM     21  C   UNL     1      34.837 -19.225 -21.700  0.00  0.00    +0.117 C 
ATOM     22  H   UNL     1      34.737 -18.774 -23.718  0.00  0.00    +0.144 HD
ATOM     23  H   UNL     1      34.220 -20.350 -23.323  0.00  0.00    +0.144 HD
ATOM     24  H   UNL     1      35.472 -17.355 -22.041  0.00  0.00    +0.188 HD
ENDBRANCH  18  21
ENDBRANCH  12  13
ENDBRANCH   9  12
ENDBRANCH   3  10
BRANCH   7  25
ATOM     25  C   UNL     1      33.458 -24.035 -12.721  0.00  0.00    +0.006 C 
BRANCH  25  26
ATOM     26  N   UNL     1      32.533 -25.128 -12.974  0.00  0.00    +0.391 N 
ATOM     27  H   UNL     1      33.064 -25.978 -13.167  0.00  0.00    -0.084 HD
ATOM     28  H   UNL     1      31.945 -25.260 -12.151  0.00  0.00    -0.084 HD
BRANCH  26  29
ATOM     29  C   UNL     1      31.677 -24.820 -14.126  0.00  0.00    -0.061 C 
ATOM     30  C   UNL     1      31.701 -23.303 -14.340  0.00  0.00    -0.021 C 
ATOM     31  C   UNL     1      30.282 -25.411 -13.873  0.00  0.00    -0.021 C 
ATOM     32  C   UNL     1      30.803 -22.787 -15.465  0.00  0.00    -0.002 C 
ATOM     33  C   UNL     1      29.405 -25.416 -15.124  0.00  0.00    -0.002 C 
ATOM     34  C   UNL     1      29.324 -22.816 -15.096  0.00  0.00    -0.000 C 
ATOM     35  C   UNL     1      28.614 -24.137 -15.370  0.00  0.00    -0.000 C 
ENDBRANCH  26  29
ENDBRANCH  25  26
ENDBRANCH   7  25
TORSDOF 7
ENDMDL
MODEL 2
REMARK VINA RESULT:     -11.5      2.258      6.448
REMARK  Name = 25113614
REMARK  7 active torsions:
REMARK  status: ('A' for Active; 'I' for Inactive)
REMARK    1  A    between atoms: C_3  and  C_10
REMARK    2  A    between atoms: C_7  and  C_25
REMARK    3  A    between atoms: N_9  and  C_12
REMARK    4  A    between atoms: C_12  and  C_13
REMARK    5  A    between atoms: C_18  and  C_21
REMARK    6  A    between atoms: C_25  and  N_26
REMARK    7  A    between atoms: N_26  and  C_29
REMARK                            x       y       z     vdW  Elec       q    Type
REMARK                         _______ _______ _______ _____ _____    ______ ____
ROOT
ATOM      1  O   UNL     1      38.607 -22.960 -15.513  0.00  0.00    -0.277 OA
ATOM      2  N   UNL     1      37.234 -24.662 -14.766  0.00  0.00    -0.275 N 
ATOM      3  C   UNL     1      35.988 -25.424 -14.756  0.00  0.00    +0.152 C 
ATOM      4  C   UNL     1      36.396 -26.818 -14.288  0.00  0.00    +0.031 C 
ATOM      5  C   UNL     1      38.298 -25.388 -14.084  0.00  0.00    +0.094 C 
ATOM      6  C   UNL     1      37.604 -26.551 -13.393  0.00  0.00    +0.024 C 
ATOM      7  C   UNL     1      37.491 -23.478 -15.439  0.00  0.00    +0.204 C 
ENDROOT
BRANCH   3  10
ATOM      8  O   UNL     1      35.451 -23.939 -12.965  0.00  0.00    -0.273 OA
ATOM      9  N   UNL     1      33.770 -25.274 -13.864  0.00  0.00    -0.299 N 
ATOM     10  C   UNL     1      35.061 -24.784 -13.766  0.00  0.00    +0.241 C 
ATOM     11  H   UNL     1      33.578 -25.954 -14.551  0.00  0.00    +0.150 HD
BRANCH   9  12
ATOM     12  C   UNL     1      32.691 -24.837 -13.009  0.00  0.00    +0.116 C 
BRANCH  12  13
ATOM     13  C   UNL     1      31.453 -24.506 -13.791  0.00  0.00    -0.003 C 
ATOM     14  C   UNL     1      30.472 -25.479 -13.990  0.00  0.00    -0.003 C 
ATOM     15  C   UNL     1      31.283 -23.227 -14.321  0.00  0.00    -0.003 C 
ATOM     16  C   UNL     1      29.324 -25.172 -14.718  0.00  0.00    +0.002 C 
ATOM     17  C   UNL     1      30.135 -22.921 -15.049  0.00  0.00    +0.002 C 
ATOM     18  C   UNL     1      29.154 -23.893 -15.247  0.00  0.00    +0.031 C 
BRANCH  18  21
ATOM     19  N   UNL     1      27.066 -22.590 -15.579  0.00  0.00    -0.343 N 
ATOM     20  N   UNL     1      27.690 -24.228 -17.123  0.00  0.00    -0.285 NA
ATOM     21  C   UNL     1      27.955 -23.574 -16.006  0.00  0.00    +0.117 C 
ATOM     22  H   UNL     1      26.260 -22.389 -16.108  0.00  0.00    +0.144 HD
ATOM     23  H   UNL     1      27.244 -22.093 -14.747  0.00  0.00    +0.144 HD
ATOM     24  H   UNL     1      26.880 -24.013 -17.639  0.00  0.00    +0.188 HD
ENDBRANCH  18  21
ENDBRANCH  12  13
ENDBRANCH   9  12
ENDBRANCH   3  10
BRANCH   7  25
ATOM     25  C   UNL     1      36.308 -22.824 -16.106  0.00  0.00    +0.006 C 
BRANCH  25  26
ATOM     26  N   UNL     1      36.825 -22.033 -17.209  0.00  0.00    +0.391 N 
ATOM     27  H   UNL     1      36.895 -21.057 -16.918  0.00  0.00    -0.084 HD
ATOM     28  H   UNL     1      37.745 -22.389 -17.468  0.00  0.00    -0.084 HD
BRANCH  26  29
ATOM     29  C   UNL     1      35.934 -22.127 -18.372  0.00  0.00    -0.061 C 
ATOM     30  C   UNL     1      36.266 -20.967 -19.317  0.00  0.00    -0.021 C 
ATOM     31  C   UNL     1      34.481 -22.156 -17.877  0.00  0.00    -0.021 C 
ATOM     32  C   UNL     1      35.383 -20.864 -20.561  0.00  0.00    -0.002 C 
ATOM     33  C   UNL     1      33.490 -22.557 -18.969  0.00  0.00    -0.002 C 
ATOM     34  C   UNL     1      33.985 -20.345 -20.247  0.00  0.00    -0.000 C 
ATOM     35  C   UNL     1      32.976 -21.411 -19.834  0.00  0.00    -0.000 C 
ENDBRANCH  26  29
ENDBRANCH  25  26
ENDBRANCH   7  25
TORSDOF 7
ENDMDL
MODEL 3
REMARK VINA RESULT:     -10.7      1.467      2.322
REMARK  Name = 25113614
REMARK  7 active torsions:
REMARK  status: ('A' for Active; 'I' for Inactive)
REMARK    1  A    between atoms: C_3  and  C_10
REMARK    2  A    between atoms: C_7  and  C_25
REMARK    3  A    between atoms: N_9  and  C_12
REMARK    4  A    between atoms: C_12  and  C_13
REMARK    5  A    between atoms: C_18  and  C_21
REMARK    6  A    between atoms: C_25  and  N_26
REMARK    7  A    between atoms: N_26  and  C_29
REMARK                            x       y       z     vdW  Elec       q    Type
REMARK                         _______ _______ _______ _____ _____    ______ ____
ROOT
ATOM      1  O   UNL     1      34.715 -25.234 -13.557  0.00  0.00    -0.277 OA
ATOM      2  N   UNL     1      35.734 -23.684 -14.934  0.00  0.00    -0.275 N 
ATOM      3  C   UNL     1      35.760 -22.449 -15.714  0.00  0.00    +0.152 C 
ATOM      4  C   UNL     1      37.230 -22.042 -15.737  0.00  0.00    +0.031 C 
ATOM      5  C   UNL     1      37.080 -24.200 -14.726  0.00  0.00    +0.094 C 
ATOM      6  C   UNL     1      37.967 -23.376 -15.645  0.00  0.00    +0.024 C 
ATOM      7  C   UNL     1      34.639 -24.264 -14.313  0.00  0.00    +0.204 C 
ENDROOT
BRANCH   3  10
ATOM      8  O   UNL     1      34.373 -23.571 -17.301  0.00  0.00    -0.273 OA
ATOM      9  N   UNL     1      35.973 -22.066 -18.069  0.00  0.00    -0.299 N 
ATOM     10  C   UNL     1      35.276 -22.764 -17.098  0.00  0.00    +0.241 C 
ATOM     11  H   UNL     1      36.679 -21.442 -17.780  0.00  0.00    +0.150 HD
BRANCH   9  12
ATOM     12  C   UNL     1      35.715 -22.207 -19.483  0.00  0.00    +0.116 C 
BRANCH  12  13
ATOM     13  C   UNL     1      35.594 -20.876 -20.167  0.00  0.00    -0.003 C 
ATOM     14  C   UNL     1      34.355 -20.450 -20.648  0.00  0.00    -0.003 C 
ATOM     15  C   UNL     1      36.719 -20.067 -20.325  0.00  0.00    -0.003 C 
ATOM     16  C   UNL     1      34.242 -19.215 -21.285  0.00  0.00    +0.002 C 
ATOM     17  C   UNL     1      36.606 -18.832 -20.963  0.00  0.00    +0.002 C 
ATOM     18  C   UNL     1      35.367 -18.405 -21.442  0.00  0.00    +0.031 C 
BRANCH  18  21
ATOM     19  N   UNL     1      35.383 -16.997 -23.488  0.00  0.00    -0.343 N 
ATOM     20  N   UNL     1      35.012 -16.029 -21.394  0.00  0.00    -0.285 NA
ATOM     21  C   UNL     1      35.248 -17.117 -22.106  0.00  0.00    +0.117 C 
ATOM     22  H   UNL     1      35.299 -16.115 -23.917  0.00  0.00    +0.144 HD
ATOM     23  H   UNL     1      35.563 -17.795 -24.035  0.00  0.00    +0.144 HD
ATOM     24  H   UNL     1      34.930 -15.156 -21.841  0.00  0.00    +0.188 HD
ENDBRANCH  18  21
ENDBRANCH  12  13
ENDBRANCH   9  12
ENDBRANCH   3  10
BRANCH   7  25
ATOM     25  C   UNL     1      33.301 -23.635 -14.606  0.00  0.00    +0.006 C 
BRANCH  25  26
ATOM     26  N   UNL     1      32.567 -23.593 -13.353  0.00  0.00    +0.391 N 
ATOM     27  H   UNL     1      32.890 -24.349 -12.749  0.00  0.00    -0.084 HD
ATOM     28  H   UNL     1      32.731 -22.691 -12.905  0.00  0.00    -0.084 HD
BRANCH  26  29
ATOM     29  C   UNL     1      31.127 -23.749 -13.594  0.00  0.00    -0.061 C 
ATOM     30  C   UNL     1      30.845 -25.238 -13.822  0.00  0.00    -0.021 C 
ATOM     31  C   UNL     1      30.723 -22.833 -14.758  0.00  0.00    -0.021 C 
ATOM     32  C   UNL     1      29.395 -25.584 -14.160  0.00  0.00    -0.002 C 
ATOM     33  C   UNL     1      29.208 -22.685 -14.897  0.00  0.00    -0.002 C 
ATOM     34  C   UNL     1      29.012 -25.188 -15.581  0.00  0.00    -0.000 C 
ATOM     35  C   UNL     1      28.524 -23.753 -15.744  0.00  0.00    -0.000 C 
ENDBRANCH  26  29
ENDBRANCH  25  26
ENDBRANCH   7  25
TORSDOF 7
ENDMDL
MODEL 4
REMARK VINA RESULT:     -10.4      6.999     11.410
REMARK  Name = 25113614
REMARK  7 active torsions:
REMARK  status: ('A' for Active; 'I' for Inactive)
REMARK    1  A    between atoms: C_3  and  C_10
REMARK    2  A    between atoms: C_7  and  C_25
REMARK    3  A    between atoms: N_9  and  C_12
REMARK    4  A    between atoms: C_12  and  C_13
REMARK    5  A    between atoms: C_18  and  C_21
REMARK    6  A    between atoms: C_25  and  N_26
REMARK    7  A    between atoms: N_26  and  C_29
REMARK                            x       y       z     vdW  Elec       q    Type
REMARK                         _______ _______ _______ _____ _____    ______ ____
ROOT
ATOM      1  O   UNL     1      34.223 -18.356 -24.097  0.00  0.00    -0.277 OA
ATOM      2  N   UNL     1      34.234 -16.063 -23.813  0.00  0.00    -0.275 N 
ATOM      3  C   UNL     1      34.723 -14.824 -23.212  0.00  0.00    +0.152 C 
ATOM      4  C   UNL     1      34.432 -13.751 -24.258  0.00  0.00    +0.031 C 
ATOM      5  C   UNL     1      33.430 -15.788 -24.997  0.00  0.00    +0.094 C 
ATOM      6  C   UNL     1      33.198 -14.286 -24.979  0.00  0.00    +0.024 C 
ATOM      7  C   UNL     1      34.569 -17.359 -23.459  0.00  0.00    +0.204 C 
ENDROOT
BRANCH   3  10
ATOM      8  O   UNL     1      34.219 -15.112 -20.896  0.00  0.00    -0.273 OA
ATOM      9  N   UNL     1      32.877 -13.704 -22.175  0.00  0.00    -0.299 N 
ATOM     10  C   UNL     1      33.934 -14.572 -21.962  0.00  0.00    +0.241 C 
ATOM     11  H   UNL     1      32.751 -13.333 -23.079  0.00  0.00    +0.150 HD
BRANCH   9  12
ATOM     12  C   UNL     1      31.951 -13.315 -21.136  0.00  0.00    +0.116 C 
BRANCH  12  13
ATOM     13  C   UNL     1      32.008 -11.842 -20.855  0.00  0.00    -0.003 C 
ATOM     14  C   UNL     1      32.105 -10.934 -21.910  0.00  0.00    -0.003 C 
ATOM     15  C   UNL     1      31.967 -11.380 -19.540  0.00  0.00    -0.003 C 
ATOM     16  C   UNL     1      32.160  -9.565 -21.649  0.00  0.00    +0.002 C 
ATOM     17  C   UNL     1      32.022 -10.012 -19.279  0.00  0.00    +0.002 C 
ATOM     18  C   UNL     1      32.118  -9.103 -20.333  0.00  0.00    +0.031 C 
BRANCH  18  21
ATOM     19  N   UNL     1      31.315  -6.782 -20.696  0.00  0.00    -0.343 N 
ATOM     20  N   UNL     1      33.061  -7.204 -19.202  0.00  0.00    -0.285 NA
ATOM     21  C   UNL     1      32.175  -7.676 -20.062  0.00  0.00    +0.117 C 
ATOM     22  H   UNL     1      31.370  -5.819 -20.498  0.00  0.00    +0.144 HD
ATOM     23  H   UNL     1      30.651  -7.113 -21.343  0.00  0.00    +0.144 HD
ATOM     24  H   UNL     1      33.101  -6.239 -19.016  0.00  0.00    +0.188 HD
ENDBRANCH  18  21
ENDBRANCH  12  13
ENDBRANCH   9  12
ENDBRANCH   3  10
BRANCH   7  25
ATOM     25  C   UNL     1      35.407 -17.511 -22.215  0.00  0.00    +0.006 C 
BRANCH  25  26
ATOM     26  N   UNL     1      35.825 -18.901 -22.150  0.00  0.00    +0.391 N 
ATOM     27  H   UNL     1      35.418 -19.411 -22.934  0.00  0.00    -0.084 HD
ATOM     28  H   UNL     1      36.843 -18.942 -22.195  0.00  0.00    -0.084 HD
BRANCH  26  29
ATOM     29  C   UNL     1      35.381 -19.514 -20.893  0.00  0.00    -0.061 C 
ATOM     30  C   UNL     1      36.508 -20.420 -20.384  0.00  0.00    -0.021 C 
ATOM     31  C   UNL     1      34.045 -20.229 -21.140  0.00  0.00    -0.021 C 
ATOM     32  C   UNL     1      36.193 -21.201 -19.108  0.00  0.00    -0.002 C 
ATOM     33  C   UNL     1      33.343 -20.639 -19.845  0.00  0.00    -0.002 C 
ATOM     34  C   UNL     1      35.232 -22.359 -19.350  0.00  0.00    -0.000 C 
ATOM     35  C   UNL     1      33.752 -21.996 -19.284  0.00  0.00    -0.000 C 
ENDBRANCH  26  29
ENDBRANCH  25  26
ENDBRANCH   7  25
TORSDOF 7
ENDMDL
MODEL 5
REMARK VINA RESULT:      -9.5      6.363     10.680
REMARK  Name = 25113614
REMARK  7 active torsions:
REMARK  status: ('A' for Active; 'I' for Inactive)
REMARK    1  A    between atoms: C_3  and  C_10
REMARK    2  A    between atoms: C_7  and  C_25
REMARK    3  A    between atoms: N_9  and  C_12
REMARK    4  A    between atoms: C_12  and  C_13
REMARK    5  A    between atoms: C_18  and  C_21
REMARK    6  A    between atoms: C_25  and  N_26
REMARK    7  A    between atoms: N_26  and  C_29
REMARK                            x       y       z     vdW  Elec       q    Type
REMARK                         _______ _______ _______ _____ _____    ______ ____
ROOT
ATOM      1  O   UNL     1      34.487 -19.576 -23.566  0.00  0.00    -0.277 OA
ATOM      2  N   UNL     1      34.600 -17.270 -23.662  0.00  0.00    -0.275 N 
ATOM      3  C   UNL     1      35.189 -15.977 -23.323  0.00  0.00    +0.152 C 
ATOM      4  C   UNL     1      34.820 -15.071 -24.494  0.00  0.00    +0.031 C 
ATOM      5  C   UNL     1      33.681 -17.149 -24.786  0.00  0.00    +0.094 C 
ATOM      6  C   UNL     1      33.499 -15.653 -24.989  0.00  0.00    +0.024 C 
ATOM      7  C   UNL     1      34.931 -18.509 -23.137  0.00  0.00    +0.204 C 
ENDROOT
BRANCH   3  10
ATOM      8  O   UNL     1      34.892 -15.913 -20.955  0.00  0.00    -0.273 OA
ATOM      9  N   UNL     1      33.549 -14.565 -22.296  0.00  0.00    -0.299 N 
ATOM     10  C   UNL     1      34.549 -15.493 -22.057  0.00  0.00    +0.241 C 
ATOM     11  H   UNL     1      33.366 -14.306 -23.229  0.00  0.00    +0.150 HD
BRANCH   9  12
ATOM     12  C   UNL     1      32.763 -13.961 -21.246  0.00  0.00    +0.116 C 
BRANCH  12  13
ATOM     13  C   UNL     1      32.412 -12.535 -21.557  0.00  0.00    -0.003 C 
ATOM     14  C   UNL     1      31.704 -11.772 -20.627  0.00  0.00    -0.003 C 
ATOM     15  C   UNL     1      32.792 -11.972 -22.775  0.00  0.00    -0.003 C 
ATOM     16  C   UNL     1      31.376 -10.448 -20.917  0.00  0.00    +0.002 C 
ATOM     17  C   UNL     1      32.464 -10.648 -23.065  0.00  0.00    +0.002 C 
ATOM     18  C   UNL     1      31.757  -9.885 -22.135  0.00  0.00    +0.031 C 
BRANCH  18  21
ATOM     19  N   UNL     1      31.085  -8.103 -23.728  0.00  0.00    -0.343 N 
ATOM     20  N   UNL     1      31.421  -7.600 -21.471  0.00  0.00    -0.285 NA
ATOM     21  C   UNL     1      31.416  -8.504 -22.436  0.00  0.00    +0.117 C 
ATOM     22  H   UNL     1      30.856  -7.163 -23.910  0.00  0.00    +0.144 HD
ATOM     23  H   UNL     1      31.078  -8.760 -24.461  0.00  0.00    +0.144 HD
ATOM     24  H   UNL     1      31.189  -6.665 -21.672  0.00  0.00    +0.188 HD
ENDBRANCH  18  21
ENDBRANCH  12  13
ENDBRANCH   9  12
ENDBRANCH   3  10
BRANCH   7  25
ATOM     25  C   UNL     1      35.894 -18.502 -21.977  0.00  0.00    +0.006 C 
BRANCH  25  26
ATOM     26  N   UNL     1      35.109 -18.704 -20.771  0.00  0.00    +0.391 N 
ATOM     27  H   UNL     1      35.647 -18.388 -19.964  0.00  0.00    -0.084 HD
ATOM     28  H   UNL     1      34.243 -18.171 -20.847  0.00  0.00    -0.084 HD
BRANCH  26  29
ATOM     29  C   UNL     1      34.778 -20.125 -20.605  0.00  0.00    -0.061 C 
ATOM     30  C   UNL     1      33.319 -20.220 -20.147  0.00  0.00    -0.021 C 
ATOM     31  C   UNL     1      35.795 -20.757 -19.644  0.00  0.00    -0.021 C 
ATOM     32  C   UNL     1      32.816 -21.634 -19.854  0.00  0.00    -0.002 C 
ATOM     33  C   UNL     1      35.733 -22.284 -19.635  0.00  0.00    -0.002 C 
ATOM     34  C   UNL     1      33.370 -22.196 -18.550  0.00  0.00    -0.000 C 
ATOM     35  C   UNL     1      34.723 -22.889 -18.668  0.00  0.00    -0.000 C 
ENDBRANCH  26  29
ENDBRANCH  25  26
ENDBRANCH   7  25
TORSDOF 7
ENDMDL
MODEL 6
REMARK VINA RESULT:      -9.5      7.503     13.029
REMARK  Name = 25113614
REMARK  7 active torsions:
REMARK  status: ('A' for Active; 'I' for Inactive)
REMARK    1  A    between atoms: C_3  and  C_10
REMARK    2  A    between atoms: C_7  and  C_25
REMARK    3  A    between atoms: N_9  and  C_12
REMARK    4  A    between atoms: C_12  and  C_13
REMARK    5  A    between atoms: C_18  and  C_21
REMARK    6  A    between atoms: C_25  and  N_26
REMARK    7  A    between atoms: N_26  and  C_29
REMARK                            x       y       z     vdW  Elec       q    Type
REMARK                         _______ _______ _______ _____ _____    ______ ____
ROOT
ATOM      1  O   UNL     1      31.409 -11.953 -22.627  0.00  0.00    -0.277 OA
ATOM      2  N   UNL     1      32.924 -13.415 -21.674  0.00  0.00    -0.275 N 
ATOM      3  C   UNL     1      34.250 -14.012 -21.533  0.00  0.00    +0.152 C 
ATOM      4  C   UNL     1      34.297 -14.498 -20.087  0.00  0.00    +0.031 C 
ATOM      5  C   UNL     1      32.076 -13.746 -20.537  0.00  0.00    +0.094 C 
ATOM      6  C   UNL     1      32.837 -14.817 -19.773  0.00  0.00    +0.024 C 
ATOM      7  C   UNL     1      32.503 -12.522 -22.646  0.00  0.00    +0.204 C 
ENDROOT
BRANCH   3  10
ATOM      8  O   UNL     1      33.801 -15.145 -23.586  0.00  0.00    -0.273 OA
ATOM      9  N   UNL     1      35.069 -16.222 -21.957  0.00  0.00    -0.299 N 
ATOM     10  C   UNL     1      34.342 -15.168 -22.483  0.00  0.00    +0.241 C 
ATOM     11  H   UNL     1      35.456 -16.120 -21.057  0.00  0.00    +0.150 HD
BRANCH   9  12
ATOM     12  C   UNL     1      35.287 -17.463 -22.664  0.00  0.00    +0.116 C 
BRANCH  12  13
ATOM     13  C   UNL     1      35.379 -18.633 -21.729  0.00  0.00    -0.003 C 
ATOM     14  C   UNL     1      34.244 -19.398 -21.455  0.00  0.00    -0.003 C 
ATOM     15  C   UNL     1      36.597 -18.956 -21.131  0.00  0.00    -0.003 C 
ATOM     16  C   UNL     1      34.329 -20.484 -20.585  0.00  0.00    +0.002 C 
ATOM     17  C   UNL     1      36.682 -20.042 -20.261  0.00  0.00    +0.002 C 
ATOM     18  C   UNL     1      35.548 -20.807 -19.988  0.00  0.00    +0.031 C 
BRANCH  18  21
ATOM     19  N   UNL     1      36.607 -22.000 -18.085  0.00  0.00    -0.343 N 
ATOM     20  N   UNL     1      34.782 -22.944 -19.198  0.00  0.00    -0.285 NA
ATOM     21  C   UNL     1      35.635 -21.940 -19.081  0.00  0.00    +0.117 C 
ATOM     22  H   UNL     1      36.648 -22.777 -17.481  0.00  0.00    +0.144 HD
ATOM     23  H   UNL     1      37.254 -21.264 -17.984  0.00  0.00    +0.144 HD
ATOM     24  H   UNL     1      34.838 -23.711 -18.585  0.00  0.00    +0.188 HD
ENDBRANCH  18  21
ENDBRANCH  12  13
ENDBRANCH   9  12
ENDBRANCH   3  10
BRANCH   7  25
ATOM     25  C   UNL     1      33.472 -12.260 -23.771  0.00  0.00    +0.006 C 
BRANCH  25  26
ATOM     26  N   UNL     1      34.447 -11.302 -23.278  0.00  0.00    +0.391 N 
ATOM     27  H   UNL     1      34.452 -11.323 -22.258  0.00  0.00    -0.084 HD
ATOM     28  H   UNL     1      35.368 -11.552 -23.639  0.00  0.00    -0.084 HD
BRANCH  26  29
ATOM     29  C   UNL     1      34.112  -9.947 -23.731  0.00  0.00    -0.061 C 
ATOM     30  C   UNL     1      35.418  -9.235 -24.099  0.00  0.00    -0.021 C 
ATOM     31  C   UNL     1      33.289  -9.252 -22.637  0.00  0.00    -0.021 C 
ATOM     32  C   UNL     1      35.269  -7.776 -24.532  0.00  0.00    -0.002 C 
ATOM     33  C   UNL     1      32.631  -7.960 -23.121  0.00  0.00    -0.002 C 
ATOM     34  C   UNL     1      34.970  -6.845 -23.363  0.00  0.00    -0.000 C 
ATOM     35  C   UNL     1      33.493  -6.708 -23.006  0.00  0.00    -0.000 C 
ENDBRANCH  26  29
ENDBRANCH  25  26
ENDBRANCH   7  25
TORSDOF 7
ENDMDL
MODEL 7
REMARK VINA RESULT:      -9.4      9.968     14.412
REMARK  Name = 25113614
REMARK  7 active torsions:
REMARK  status: ('A' for Active; 'I' for Inactive)
REMARK    1  A    between atoms: C_3  and  C_10
REMARK    2  A    between atoms: C_7  and  C_25
REMARK    3  A    between atoms: N_9  and  C_12
REMARK    4  A    between atoms: C_12  and  C_13
REMARK    5  A    between atoms: C_18  and  C_21
REMARK    6  A    between atoms: C_25  and  N_26
REMARK    7  A    between atoms: N_26  and  C_29
REMARK                            x       y       z     vdW  Elec       q    Type
REMARK                         _______ _______ _______ _____ _____    ______ ____
ROOT
ATOM      1  O   UNL     1      33.544 -14.654 -20.265  0.00  0.00    -0.277 OA
ATOM      2  N   UNL     1      32.422 -12.834 -21.141  0.00  0.00    -0.275 N 
ATOM      3  C   UNL     1      31.785 -12.093 -22.227  0.00  0.00    +0.152 C 
ATOM      4  C   UNL     1      30.758 -11.204 -21.532  0.00  0.00    +0.031 C 
ATOM      5  C   UNL     1      32.068 -12.271 -19.845  0.00  0.00    +0.094 C 
ATOM      6  C   UNL     1      31.379 -10.954 -20.159  0.00  0.00    +0.024 C 
ATOM      7  C   UNL     1      33.149 -14.010 -21.239  0.00  0.00    +0.204 C 
ENDROOT
BRANCH   3  10
ATOM      8  O   UNL     1      33.760 -11.770 -23.530  0.00  0.00    -0.273 OA
ATOM      9  N   UNL     1      32.638  -9.906 -22.702  0.00  0.00    -0.299 N 
ATOM     10  C   UNL     1      32.836 -11.261 -22.900  0.00  0.00    +0.241 C 
ATOM     11  H   UNL     1      31.855  -9.619 -22.177  0.00  0.00    +0.150 HD
BRANCH   9  12
ATOM     12  C   UNL     1      33.522  -8.892 -23.228  0.00  0.00    +0.116 C 
BRANCH  12  13
ATOM     13  C   UNL     1      33.009  -7.507 -22.964  0.00  0.00    -0.003 C 
ATOM     14  C   UNL     1      32.730  -7.103 -21.657  0.00  0.00    -0.003 C 
ATOM     15  C   UNL     1      32.809  -6.622 -24.024  0.00  0.00    -0.003 C 
ATOM     16  C   UNL     1      32.252  -5.817 -21.412  0.00  0.00    +0.002 C 
ATOM     17  C   UNL     1      32.331  -5.336 -23.778  0.00  0.00    +0.002 C 
ATOM     18  C   UNL     1      32.052  -4.932 -22.472  0.00  0.00    +0.031 C 
BRANCH  18  21
ATOM     19  N   UNL     1      30.685  -2.957 -23.100  0.00  0.00    -0.343 N 
ATOM     20  N   UNL     1      31.931  -2.947 -21.123  0.00  0.00    -0.285 NA
ATOM     21  C   UNL     1      31.554  -3.591 -22.215  0.00  0.00    +0.117 C 
ATOM     22  H   UNL     1      30.359  -2.048 -22.906  0.00  0.00    +0.144 HD
ATOM     23  H   UNL     1      30.396  -3.418 -23.920  0.00  0.00    +0.144 HD
ATOM     24  H   UNL     1      31.594  -2.040 -20.946  0.00  0.00    +0.188 HD
ENDBRANCH  18  21
ENDBRANCH  12  13
ENDBRANCH   9  12
ENDBRANCH   3  10
BRANCH   7  25
ATOM     25  C   UNL     1      33.449 -14.490 -22.636  0.00  0.00    +0.006 C 
BRANCH  25  26
ATOM     26  N   UNL     1      34.885 -14.694 -22.717  0.00  0.00    +0.391 N 
ATOM     27  H   UNL     1      35.289 -13.991 -23.336  0.00  0.00    -0.084 HD
ATOM     28  H   UNL     1      35.284 -14.608 -21.782  0.00  0.00    -0.084 HD
BRANCH  26  29
ATOM     29  C   UNL     1      35.187 -16.031 -23.242  0.00  0.00    -0.061 C 
ATOM     30  C   UNL     1      34.125 -16.376 -24.291  0.00  0.00    -0.021 C 
ATOM     31  C   UNL     1      35.270 -17.013 -22.065  0.00  0.00    -0.021 C 
ATOM     32  C   UNL     1      34.239 -17.774 -24.902  0.00  0.00    -0.002 C 
ATOM     33  C   UNL     1      35.873 -18.361 -22.459  0.00  0.00    -0.002 C 
ATOM     34  C   UNL     1      33.797 -18.872 -23.942  0.00  0.00    -0.000 C 
ATOM     35  C   UNL     1      34.882 -19.385 -23.001  0.00  0.00    -0.000 C 
ENDBRANCH  26  29
ENDBRANCH  25  26
ENDBRANCH   7  25
TORSDOF 7
ENDMDL
MODEL 8
REMARK VINA RESULT:      -9.4      1.847      4.801
REMARK  Name = 25113614
REMARK  7 active torsions:
REMARK  status: ('A' for Active; 'I' for Inactive)
REMARK    1  A    between atoms: C_3  and  C_10
REMARK    2  A    between atoms: C_7  and  C_25
REMARK    3  A    between atoms: N_9  and  C_12
REMARK    4  A    between atoms: C_12  and  C_13
REMARK    5  A    between atoms: C_18  and  C_21
REMARK    6  A    between atoms: C_25  and  N_26
REMARK    7  A    between atoms: N_26  and  C_29
REMARK                            x       y       z     vdW  Elec       q    Type
REMARK                         _______ _______ _______ _____ _____    ______ ____
ROOT
ATOM      1  O   UNL     1      31.846 -23.647 -12.674  0.00  0.00    -0.277 OA
ATOM      2  N   UNL     1      32.525 -23.646 -14.882  0.00  0.00    -0.275 N 
ATOM      3  C   UNL     1      33.366 -24.094 -15.989  0.00  0.00    +0.152 C 
ATOM      4  C   UNL     1      32.505 -23.885 -17.232  0.00  0.00    +0.031 C 
ATOM      5  C   UNL     1      31.353 -22.931 -15.371  0.00  0.00    +0.094 C 
ATOM      6  C   UNL     1      31.615 -22.704 -16.851  0.00  0.00    +0.024 C 
ATOM      7  C   UNL     1      32.671 -23.949 -13.538  0.00  0.00    +0.204 C 
ENDROOT
BRANCH   3  10
ATOM      8  O   UNL     1      35.090 -22.764 -15.012  0.00  0.00    -0.273 OA
ATOM      9  N   UNL     1      35.014 -22.986 -17.328  0.00  0.00    -0.299 N 
ATOM     10  C   UNL     1      34.581 -23.218 -16.033  0.00  0.00    +0.241 C 
ATOM     11  H   UNL     1      34.521 -23.409 -18.069  0.00  0.00    +0.150 HD
BRANCH   9  12
ATOM     12  C   UNL     1      36.153 -22.156 -17.645  0.00  0.00    +0.116 C 
BRANCH  12  13
ATOM     13  C   UNL     1      35.915 -21.318 -18.866  0.00  0.00    -0.003 C 
ATOM     14  C   UNL     1      36.963 -20.585 -19.426  0.00  0.00    -0.003 C 
ATOM     15  C   UNL     1      34.645 -21.268 -19.443  0.00  0.00    -0.003 C 
ATOM     16  C   UNL     1      36.741 -19.805 -20.560  0.00  0.00    +0.002 C 
ATOM     17  C   UNL     1      34.424 -20.488 -20.576  0.00  0.00    +0.002 C 
ATOM     18  C   UNL     1      35.471 -19.757 -21.136  0.00  0.00    +0.031 C 
BRANCH  18  21
ATOM     19  N   UNL     1      35.863 -17.707 -22.482  0.00  0.00    -0.343 N 
ATOM     20  N   UNL     1      34.423 -19.373 -23.264  0.00  0.00    -0.285 NA
ATOM     21  C   UNL     1      35.241 -18.943 -22.319  0.00  0.00    +0.117 C 
ATOM     22  H   UNL     1      35.693 -17.173 -23.291  0.00  0.00    +0.144 HD
ATOM     23  H   UNL     1      36.472 -17.368 -21.788  0.00  0.00    +0.144 HD
ATOM     24  H   UNL     1      34.267 -18.825 -24.066  0.00  0.00    +0.188 HD
ENDBRANCH  18  21
ENDBRANCH  12  13
ENDBRANCH   9  12
ENDBRANCH   3  10
BRANCH   7  25
ATOM     25  C   UNL     1      33.926 -24.694 -13.159  0.00  0.00    +0.006 C 
BRANCH  25  26
ATOM     26  N   UNL     1      34.633 -23.872 -12.193  0.00  0.00    +0.391 N 
ATOM     27  H   UNL     1      34.799 -22.949 -12.595  0.00  0.00    -0.084 HD
ATOM     28  H   UNL     1      34.065 -23.791 -11.350  0.00  0.00    -0.084 HD
BRANCH  26  29
ATOM     29  C   UNL     1      35.920 -24.483 -11.842  0.00  0.00    -0.061 C 
ATOM     30  C   UNL     1      36.980 -23.377 -11.824  0.00  0.00    -0.021 C 
ATOM     31  C   UNL     1      36.205 -25.629 -12.824  0.00  0.00    -0.021 C 
ATOM     32  C   UNL     1      38.409 -23.843 -11.543  0.00  0.00    -0.002 C 
ATOM     33  C   UNL     1      37.358 -26.524 -12.373  0.00  0.00    -0.002 C 
ATOM     34  C   UNL     1      39.035 -24.567 -12.729  0.00  0.00    -0.000 C 
ATOM     35  C   UNL     1      38.747 -26.063 -12.800  0.00  0.00    -0.000 C 
ENDBRANCH  26  29
ENDBRANCH  25  26
ENDBRANCH   7  25
TORSDOF 7
ENDMDL
MODEL 9
REMARK VINA RESULT:      -9.3      1.866      3.066
REMARK  Name = 25113614
REMARK  7 active torsions:
REMARK  status: ('A' for Active; 'I' for Inactive)
REMARK    1  A    between atoms: C_3  and  C_10
REMARK    2  A    between atoms: C_7  and  C_25
REMARK    3  A    between atoms: N_9  and  C_12
REMARK    4  A    between atoms: C_12  and  C_13
REMARK    5  A    between atoms: C_18  and  C_21
REMARK    6  A    between atoms: C_25  and  N_26
REMARK    7  A    between atoms: N_26  and  C_29
REMARK                            x       y       z     vdW  Elec       q    Type
REMARK                         _______ _______ _______ _____ _____    ______ ____
ROOT
ATOM      1  O   UNL     1      35.674 -26.937 -15.517  0.00  0.00    -0.277 OA
ATOM      2  N   UNL     1      36.922 -25.761 -13.968  0.00  0.00    -0.275 N 
ATOM      3  C   UNL     1      37.094 -24.751 -12.926  0.00  0.00    +0.152 C 
ATOM      4  C   UNL     1      38.272 -25.257 -12.096  0.00  0.00    +0.031 C 
ATOM      5  C   UNL     1      38.057 -26.673 -14.006  0.00  0.00    +0.094 C 
ATOM      6  C   UNL     1      39.106 -26.040 -13.107  0.00  0.00    +0.024 C 
ATOM      7  C   UNL     1      35.799 -25.980 -14.749  0.00  0.00    +0.204 C 
ENDROOT
BRANCH   3  10
ATOM      8  O   UNL     1      37.544 -22.407 -12.953  0.00  0.00    -0.273 OA
ATOM      9  N   UNL     1      37.579 -23.585 -14.960  0.00  0.00    -0.299 N 
ATOM     10  C   UNL     1      37.434 -23.451 -13.590  0.00  0.00    +0.241 C 
ATOM     11  H   UNL     1      37.467 -24.479 -15.358  0.00  0.00    +0.150 HD
BRANCH   9  12
ATOM     12  C   UNL     1      37.885 -22.477 -15.836  0.00  0.00    +0.116 C 
BRANCH  12  13
ATOM     13  C   UNL     1      36.798 -22.239 -16.842  0.00  0.00    -0.003 C 
ATOM     14  C   UNL     1      37.066 -21.505 -17.999  0.00  0.00    -0.003 C 
ATOM     15  C   UNL     1      35.518 -22.749 -16.622  0.00  0.00    -0.003 C 
ATOM     16  C   UNL     1      36.056 -21.282 -18.933  0.00  0.00    +0.002 C 
ATOM     17  C   UNL     1      34.508 -22.526 -17.556  0.00  0.00    +0.002 C 
ATOM     18  C   UNL     1      34.776 -21.794 -18.713  0.00  0.00    +0.031 C 
BRANCH  18  21
ATOM     19  N   UNL     1      33.819 -20.539 -20.630  0.00  0.00    -0.343 N 
ATOM     20  N   UNL     1      32.645 -22.327 -19.688  0.00  0.00    -0.285 NA
ATOM     21  C   UNL     1      33.723 -21.561 -19.689  0.00  0.00    +0.117 C 
ATOM     22  H   UNL     1      33.094 -20.400 -21.282  0.00  0.00    +0.144 HD
ATOM     23  H   UNL     1      34.612 -19.956 -20.644  0.00  0.00    +0.144 HD
ATOM     24  H   UNL     1      31.932 -22.172 -20.348  0.00  0.00    +0.188 HD
ENDBRANCH  18  21
ENDBRANCH  12  13
ENDBRANCH   9  12
ENDBRANCH   3  10
BRANCH   7  25
ATOM     25  C   UNL     1      34.692 -24.965 -14.618  0.00  0.00    +0.006 C 
BRANCH  25  26
ATOM     26  N   UNL     1      33.919 -25.329 -13.442  0.00  0.00    +0.391 N 
ATOM     27  H   UNL     1      33.758 -26.336 -13.445  0.00  0.00    -0.084 HD
ATOM     28  H   UNL     1      34.441 -25.058 -12.608  0.00  0.00    -0.084 HD
BRANCH  26  29
ATOM     29  C   UNL     1      32.627 -24.633 -13.440  0.00  0.00    -0.061 C 
ATOM     30  C   UNL     1      31.521 -25.691 -13.366  0.00  0.00    -0.021 C 
ATOM     31  C   UNL     1      32.560 -23.719 -14.672  0.00  0.00    -0.021 C 
ATOM     32  C   UNL     1      30.092 -25.149 -13.425  0.00  0.00    -0.002 C 
ATOM     33  C   UNL     1      31.399 -22.727 -14.612  0.00  0.00    -0.002 C 
ATOM     34  C   UNL     1      29.697 -24.684 -14.822  0.00  0.00    -0.000 C 
ATOM     35  C   UNL     1      30.071 -23.244 -15.154  0.00  0.00    -0.000 C 
ENDBRANCH  26  29
ENDBRANCH  25  26
ENDBRANCH   7  25
TORSDOF 7
ENDMDL
