MODEL 1
REMARK VINA RESULT:     -12.3      0.000      0.000
REMARK  Name = 447731
REMARK  4 active torsions:
REMARK  status: ('A' for Active; 'I' for Inactive)
REMARK    1  A    between atoms: N_2  and  C_13
REMARK    2  A    between atoms: C_3  and  C_19
REMARK    3  A    between atoms: C_6  and  C_17
REMARK    4  A    between atoms: C_27  and  C_31
REMARK                            x       y       z     vdW  Elec       q    Type
REMARK                         _______ _______ _______ _____ _____    ______ ____
ROOT
ATOM      1  O   UNL     1      33.838 -24.126 -17.831  0.00  0.00    -0.270 OA
ATOM      2  N   UNL     1      35.054 -22.605 -16.513  0.00  0.00    -0.280 N 
ATOM      3  C   UNL     1      34.353 -23.028 -17.649  0.00  0.00    +0.249 C 
ATOM      4  H   UNL     1      35.402 -21.685 -16.537  0.00  0.00    +0.155 HD
ENDROOT
BRANCH   2  13
ATOM      5  N   UNL     1      37.064 -26.680 -11.940  0.00  0.00    +0.387 N 
ATOM      6  C   UNL     1      38.005 -25.726 -14.016  0.00  0.00    +0.001 C 
ATOM      7  C   UNL     1      36.769 -24.842 -14.103  0.00  0.00    -0.029 C 
ATOM      8  C   UNL     1      38.286 -26.183 -12.570  0.00  0.00    -0.077 C 
ATOM      9  C   UNL     1      35.851 -24.808 -13.034  0.00  0.00    -0.048 C 
ATOM     10  C   UNL     1      36.111 -25.581 -11.765  0.00  0.00    -0.055 C 
ATOM     11  C   UNL     1      36.474 -24.114 -15.267  0.00  0.00    +0.010 C 
ATOM     12  C   UNL     1      34.703 -24.007 -13.122  0.00  0.00    -0.005 C 
ATOM     13  C   UNL     1      35.321 -23.330 -15.349  0.00  0.00    +0.050 C 
ATOM     14  C   UNL     1      34.439 -23.273 -14.276  0.00  0.00    +0.014 C 
ATOM     15  H   UNL     1      37.291 -27.078 -11.029  0.00  0.00    -0.084 HD
ATOM     16  H   UNL     1      36.646 -27.395 -12.535  0.00  0.00    -0.084 HD
BRANCH   6  17
ATOM     17  C   UNL     1      39.272 -25.068 -14.574  0.00  0.00    +0.002 C 
ATOM     18  C   UNL     1      40.511 -25.834 -14.165  0.00  0.00    +0.000 C 
ENDBRANCH   6  17
ENDBRANCH   2  13
BRANCH   3  19
ATOM     19  C   UNL     1      34.259 -22.029 -18.747  0.00  0.00    +0.054 C 
ATOM     20  C   UNL     1      35.343 -20.495 -20.249  0.00  0.00    +0.000 C 
ATOM     21  C   UNL     1      34.080 -20.165 -20.797  0.00  0.00    +0.000 C 
ATOM     22  C   UNL     1      35.416 -21.441 -19.212  0.00  0.00    +0.005 C 
ATOM     23  C   UNL     1      33.019 -21.726 -19.262  0.00  0.00    +0.005 C 
ATOM     24  C   UNL     1      32.927 -20.789 -20.291  0.00  0.00    +0.000 C 
ATOM     25  C   UNL     1      34.006 -19.219 -21.832  0.00  0.00    +0.003 C 
ATOM     26  C   UNL     1      36.494 -19.871 -20.753  0.00  0.00    +0.000 C 
ATOM     27  C   UNL     1      35.161 -18.608 -22.322  0.00  0.00    +0.031 C 
ATOM     28  C   UNL     1      36.403 -18.934 -21.783  0.00  0.00    +0.003 C 
BRANCH  27  31
ATOM     29  N   UNL     1      35.500 -16.318 -23.218  0.00  0.00    -0.343 N 
ATOM     30  N   UNL     1      34.561 -17.982 -24.562  0.00  0.00    -0.285 NA
ATOM     31  C   UNL     1      35.068 -17.631 -23.394  0.00  0.00    +0.117 C 
ATOM     32  H   UNL     1      35.428 -15.673 -23.958  0.00  0.00    +0.144 HD
ATOM     33  H   UNL     1      35.879 -16.036 -22.354  0.00  0.00    +0.144 HD
ATOM     34  H   UNL     1      34.497 -17.323 -25.290  0.00  0.00    +0.188 HD
ENDBRANCH  27  31
ENDBRANCH   3  19
TORSDOF 4
ENDMDL
MODEL 2
REMARK VINA RESULT:     -11.7      1.056      2.347
REMARK  Name = 447731
REMARK  4 active torsions:
REMARK  status: ('A' for Active; 'I' for Inactive)
REMARK    1  A    between atoms: N_2  and  C_13
REMARK    2  A    between atoms: C_3  and  C_19
REMARK    3  A    between atoms: C_6  and  C_17
REMARK    4  A    between atoms: C_27  and  C_31
REMARK                            x       y       z     vdW  Elec       q    Type
REMARK                         _______ _______ _______ _____ _____    ______ ____
ROOT
ATOM      1  O   UNL     1      34.287 -23.684 -17.475  0.00  0.00    -0.270 OA
ATOM      2  N   UNL     1      36.091 -22.344 -16.782  0.00  0.00    -0.280 N 
ATOM      3  C   UNL     1      35.013 -22.703 -17.601  0.00  0.00    +0.249 C 
ATOM      4  H   UNL     1      36.568 -21.519 -17.032  0.00  0.00    +0.155 HD
ENDROOT
BRANCH   2  13
ATOM      5  N   UNL     1      37.371 -24.749 -10.941  0.00  0.00    +0.387 N 
ATOM      6  C   UNL     1      35.366 -23.937 -12.134  0.00  0.00    +0.001 C 
ATOM      7  C   UNL     1      36.225 -23.819 -13.384  0.00  0.00    -0.029 C 
ATOM      8  C   UNL     1      35.938 -24.962 -11.134  0.00  0.00    -0.077 C 
ATOM      9  C   UNL     1      37.541 -24.326 -13.383  0.00  0.00    -0.048 C 
ATOM     10  C   UNL     1      38.091 -25.051 -12.180  0.00  0.00    -0.055 C 
ATOM     11  C   UNL     1      35.765 -23.141 -14.524  0.00  0.00    +0.010 C 
ATOM     12  C   UNL     1      38.340 -24.201 -14.530  0.00  0.00    -0.005 C 
ATOM     13  C   UNL     1      36.574 -23.012 -15.655  0.00  0.00    +0.050 C 
ATOM     14  C   UNL     1      37.858 -23.546 -15.660  0.00  0.00    +0.014 C 
ATOM     15  H   UNL     1      37.707 -25.361 -10.197  0.00  0.00    -0.084 HD
ATOM     16  H   UNL     1      37.535 -23.775 -10.687  0.00  0.00    -0.084 HD
BRANCH   6  17
ATOM     17  C   UNL     1      33.905 -24.301 -12.424  0.00  0.00    +0.002 C 
ATOM     18  C   UNL     1      33.783 -25.087 -13.711  0.00  0.00    +0.000 C 
ENDBRANCH   6  17
ENDBRANCH   2  13
BRANCH   3  19
ATOM     19  C   UNL     1      34.758 -21.798 -18.753  0.00  0.00    +0.054 C 
ATOM     20  C   UNL     1      35.598 -20.273 -20.413  0.00  0.00    +0.000 C 
ATOM     21  C   UNL     1      34.280 -20.108 -20.903  0.00  0.00    +0.000 C 
ATOM     22  C   UNL     1      35.822 -21.133 -19.324  0.00  0.00    +0.005 C 
ATOM     23  C   UNL     1      33.468 -21.655 -19.210  0.00  0.00    +0.005 C 
ATOM     24  C   UNL     1      33.226 -20.806 -20.290  0.00  0.00    +0.000 C 
ATOM     25  C   UNL     1      34.054 -19.249 -21.991  0.00  0.00    +0.003 C 
ATOM     26  C   UNL     1      36.651 -19.575 -21.025  0.00  0.00    +0.000 C 
ATOM     27  C   UNL     1      35.113 -18.563 -22.588  0.00  0.00    +0.031 C 
ATOM     28  C   UNL     1      36.409 -18.727 -22.105  0.00  0.00    +0.003 C 
BRANCH  27  31
ATOM     29  N   UNL     1      35.377 -16.383 -23.745  0.00  0.00    -0.343 N 
ATOM     30  N   UNL     1      34.132 -18.096 -24.730  0.00  0.00    -0.285 NA
ATOM     31  C   UNL     1      34.863 -17.678 -23.713  0.00  0.00    +0.117 C 
ATOM     32  H   UNL     1      35.196 -15.800 -24.517  0.00  0.00    +0.144 HD
ATOM     33  H   UNL     1      35.923 -16.051 -22.995  0.00  0.00    +0.144 HD
ATOM     34  H   UNL     1      33.961 -17.498 -25.493  0.00  0.00    +0.188 HD
ENDBRANCH  27  31
ENDBRANCH   3  19
TORSDOF 4
ENDMDL
MODEL 3
REMARK VINA RESULT:     -11.2      7.953     14.898
REMARK  Name = 447731
REMARK  4 active torsions:
REMARK  status: ('A' for Active; 'I' for Inactive)
REMARK    1  A    between atoms: N_2  and  C_13
REMARK    2  A    between atoms: C_3  and  C_19
REMARK    3  A    between atoms: C_6  and  C_17
REMARK    4  A    between atoms: C_27  and  C_31
REMARK                            x       y       z     vdW  Elec       q    Type
REMARK                         _______ _______ _______ _____ _____    ______ ____
ROOT
ATOM      1  O   UNL     1      33.081 -12.214 -24.519  0.00  0.00    -0.270 OA
ATOM      2  N   UNL     1      33.122 -11.065 -22.467  0.00  0.00    -0.280 N 
ATOM      3  C   UNL     1      33.296 -12.169 -23.312  0.00  0.00    +0.249 C 
ATOM      4  H   UNL     1      33.345 -11.208 -21.519  0.00  0.00    +0.155 HD
ENDROOT
BRANCH   2  13
ATOM      5  N   UNL     1      32.268  -4.790 -23.667  0.00  0.00    +0.387 N 
ATOM      6  C   UNL     1      34.160  -6.377 -23.740  0.00  0.00    +0.001 C 
ATOM      7  C   UNL     1      33.164  -7.491 -23.452  0.00  0.00    -0.029 C 
ATOM      8  C   UNL     1      33.485  -5.153 -24.390  0.00  0.00    -0.077 C 
ATOM      9  C   UNL     1      31.781  -7.217 -23.457  0.00  0.00    -0.048 C 
ATOM     10  C   UNL     1      31.264  -5.847 -23.817  0.00  0.00    -0.055 C 
ATOM     11  C   UNL     1      33.594  -8.781 -23.098  0.00  0.00    +0.010 C 
ATOM     12  C   UNL     1      30.864  -8.240 -23.174  0.00  0.00    -0.005 C 
ATOM     13  C   UNL     1      32.672  -9.787 -22.805  0.00  0.00    +0.050 C 
ATOM     14  C   UNL     1      31.308  -9.519 -22.849  0.00  0.00    +0.014 C 
ATOM     15  H   UNL     1      31.899  -3.917 -24.043  0.00  0.00    -0.084 HD
ATOM     16  H   UNL     1      32.488  -4.675 -22.677  0.00  0.00    -0.084 HD
BRANCH   6  17
ATOM     17  C   UNL     1      35.333  -6.815 -24.624  0.00  0.00    +0.002 C 
ATOM     18  C   UNL     1      34.932  -6.857 -26.083  0.00  0.00    +0.000 C 
ENDBRANCH   6  17
ENDBRANCH   2  13
BRANCH   3  19
ATOM     19  C   UNL     1      33.767 -13.412 -22.647  0.00  0.00    +0.054 C 
ATOM     20  C   UNL     1      34.564 -15.676 -22.815  0.00  0.00    +0.000 C 
ATOM     21  C   UNL     1      34.646 -15.734 -21.403  0.00  0.00    +0.000 C 
ATOM     22  C   UNL     1      34.117 -14.493 -23.429  0.00  0.00    +0.005 C 
ATOM     23  C   UNL     1      33.837 -13.443 -21.273  0.00  0.00    +0.005 C 
ATOM     24  C   UNL     1      34.278 -14.609 -20.647  0.00  0.00    +0.000 C 
ATOM     25  C   UNL     1      35.092 -16.916 -20.789  0.00  0.00    +0.003 C 
ATOM     26  C   UNL     1      34.930 -16.800 -23.571  0.00  0.00    +0.000 C 
ATOM     27  C   UNL     1      35.452 -18.024 -21.556  0.00  0.00    +0.031 C 
ATOM     28  C   UNL     1      35.371 -17.966 -22.945  0.00  0.00    +0.003 C 
BRANCH  27  31
ATOM     29  N   UNL     1      35.121 -20.387 -20.870  0.00  0.00    -0.343 N 
ATOM     30  N   UNL     1      37.099 -19.270 -20.330  0.00  0.00    -0.285 NA
ATOM     31  C   UNL     1      35.912 -19.240 -20.906  0.00  0.00    +0.117 C 
ATOM     32  H   UNL     1      35.452 -21.200 -20.425  0.00  0.00    +0.144 HD
ATOM     33  H   UNL     1      34.231 -20.385 -21.292  0.00  0.00    +0.144 HD
ATOM     34  H   UNL     1      37.413 -20.092 -19.888  0.00  0.00    +0.188 HD
ENDBRANCH  27  31
ENDBRANCH   3  19
TORSDOF 4
ENDMDL
MODEL 4
REMARK VINA RESULT:     -10.8      2.154     10.189
REMARK  Name = 447731
REMARK  4 active torsions:
REMARK  status: ('A' for Active; 'I' for Inactive)
REMARK    1  A    between atoms: N_2  and  C_13
REMARK    2  A    between atoms: C_3  and  C_19
REMARK    3  A    between atoms: C_6  and  C_17
REMARK    4  A    between atoms: C_27  and  C_31
REMARK                            x       y       z     vdW  Elec       q    Type
REMARK                         _______ _______ _______ _____ _____    ______ ____
ROOT
ATOM      1  O   UNL     1      32.770 -21.116 -20.223  0.00  0.00    -0.270 OA
ATOM      2  N   UNL     1      34.958 -20.263 -20.352  0.00  0.00    -0.280 N 
ATOM      3  C   UNL     1      33.926 -21.045 -19.818  0.00  0.00    +0.249 C 
ATOM      4  H   UNL     1      35.830 -20.329 -19.898  0.00  0.00    +0.155 HD
ENDROOT
BRANCH   2  13
ATOM      5  N   UNL     1      33.964 -15.528 -24.610  0.00  0.00    +0.387 N 
ATOM      6  C   UNL     1      34.176 -15.701 -22.155  0.00  0.00    +0.001 C 
ATOM      7  C   UNL     1      34.545 -17.165 -22.346  0.00  0.00    -0.029 C 
ATOM      8  C   UNL     1      34.474 -14.862 -23.413  0.00  0.00    -0.077 C 
ATOM      9  C   UNL     1      34.764 -17.672 -23.643  0.00  0.00    -0.048 C 
ATOM     10  C   UNL     1      34.710 -16.766 -24.848  0.00  0.00    -0.055 C 
ATOM     11  C   UNL     1      34.595 -18.053 -21.259  0.00  0.00    +0.010 C 
ATOM     12  C   UNL     1      35.086 -19.026 -23.821  0.00  0.00    -0.005 C 
ATOM     13  C   UNL     1      34.903 -19.402 -21.450  0.00  0.00    +0.050 C 
ATOM     14  C   UNL     1      35.155 -19.886 -22.728  0.00  0.00    +0.014 C 
ATOM     15  H   UNL     1      34.072 -14.908 -25.414  0.00  0.00    -0.084 HD
ATOM     16  H   UNL     1      32.978 -15.751 -24.476  0.00  0.00    -0.084 HD
BRANCH   6  17
ATOM     17  C   UNL     1      34.868 -15.044 -20.955  0.00  0.00    +0.002 C 
ATOM     18  C   UNL     1      33.916 -14.141 -20.202  0.00  0.00    +0.000 C 
ENDBRANCH   6  17
ENDBRANCH   2  13
BRANCH   3  19
ATOM     19  C   UNL     1      34.288 -21.845 -18.618  0.00  0.00    +0.054 C 
ATOM     20  C   UNL     1      35.929 -22.504 -16.988  0.00  0.00    +0.000 C 
ATOM     21  C   UNL     1      34.963 -23.340 -16.378  0.00  0.00    +0.000 C 
ATOM     22  C   UNL     1      35.571 -21.754 -18.121  0.00  0.00    +0.005 C 
ATOM     23  C   UNL     1      33.330 -22.650 -18.044  0.00  0.00    +0.005 C 
ATOM     24  C   UNL     1      33.668 -23.402 -16.920  0.00  0.00    +0.000 C 
ATOM     25  C   UNL     1      35.320 -24.091 -15.246  0.00  0.00    +0.003 C 
ATOM     26  C   UNL     1      37.223 -22.443 -16.447  0.00  0.00    +0.000 C 
ATOM     27  C   UNL     1      36.611 -24.018 -14.722  0.00  0.00    +0.031 C 
ATOM     28  C   UNL     1      37.560 -23.195 -15.322  0.00  0.00    +0.003 C 
BRANCH  27  31
ATOM     29  N   UNL     1      36.068 -25.706 -12.985  0.00  0.00    -0.343 N 
ATOM     30  N   UNL     1      38.155 -24.658 -12.997  0.00  0.00    -0.285 NA
ATOM     31  C   UNL     1      36.965 -24.801 -13.550  0.00  0.00    +0.117 C 
ATOM     32  H   UNL     1      36.328 -26.226 -12.190  0.00  0.00    +0.144 HD
ATOM     33  H   UNL     1      35.174 -25.825 -13.380  0.00  0.00    +0.144 HD
ATOM     34  H   UNL     1      38.397 -25.187 -12.203  0.00  0.00    +0.188 HD
ENDBRANCH  27  31
ENDBRANCH   3  19
TORSDOF 4
ENDMDL
MODEL 5
REMARK VINA RESULT:     -10.7      7.841     14.958
REMARK  Name = 447731
REMARK  4 active torsions:
REMARK  status: ('A' for Active; 'I' for Inactive)
REMARK    1  A    between atoms: N_2  and  C_13
REMARK    2  A    between atoms: C_3  and  C_19
REMARK    3  A    between atoms: C_6  and  C_17
REMARK    4  A    between atoms: C_27  and  C_31
REMARK                            x       y       z     vdW  Elec       q    Type
REMARK                         _______ _______ _______ _____ _____    ______ ____
ROOT
ATOM      1  O   UNL     1      33.041 -12.314 -24.469  0.00  0.00    -0.270 OA
ATOM      2  N   UNL     1      34.471 -11.116 -23.037  0.00  0.00    -0.280 N 
ATOM      3  C   UNL     1      33.836 -12.261 -23.536  0.00  0.00    +0.249 C 
ATOM      4  H   UNL     1      35.083 -11.258 -22.278  0.00  0.00    +0.155 HD
ENDROOT
BRANCH   2  13
ATOM      5  N   UNL     1      32.573  -5.320 -25.122  0.00  0.00    +0.387 N 
ATOM      6  C   UNL     1      31.625  -7.098 -23.693  0.00  0.00    +0.001 C 
ATOM      7  C   UNL     1      32.965  -7.813 -23.790  0.00  0.00    -0.029 C 
ATOM      8  C   UNL     1      31.761  -5.582 -23.935  0.00  0.00    -0.077 C 
ATOM      9  C   UNL     1      34.064  -7.169 -24.393  0.00  0.00    -0.048 C 
ATOM     10  C   UNL     1      33.955  -5.747 -24.884  0.00  0.00    -0.055 C 
ATOM     11  C   UNL     1      33.115  -9.142 -23.360  0.00  0.00    +0.010 C 
ATOM     12  C   UNL     1      35.294  -7.835 -24.498  0.00  0.00    -0.005 C 
ATOM     13  C   UNL     1      34.341  -9.799 -23.481  0.00  0.00    +0.050 C 
ATOM     14  C   UNL     1      35.431  -9.144 -24.044  0.00  0.00    +0.014 C 
ATOM     15  H   UNL     1      32.559  -4.321 -25.328  0.00  0.00    -0.084 HD
ATOM     16  H   UNL     1      32.192  -5.841 -25.912  0.00  0.00    -0.084 HD
BRANCH   6  17
ATOM     17  C   UNL     1      30.906  -7.316 -22.357  0.00  0.00    +0.002 C 
ATOM     18  C   UNL     1      31.003  -6.089 -21.477  0.00  0.00    +0.000 C 
ENDBRANCH   6  17
ENDBRANCH   2  13
BRANCH   3  19
ATOM     19  C   UNL     1      34.158 -13.528 -22.829  0.00  0.00    +0.054 C 
ATOM     20  C   UNL     1      34.687 -15.873 -22.919  0.00  0.00    +0.000 C 
ATOM     21  C   UNL     1      34.758 -15.894 -21.505  0.00  0.00    +0.000 C 
ATOM     22  C   UNL     1      34.382 -14.667 -23.573  0.00  0.00    +0.005 C 
ATOM     23  C   UNL     1      34.220 -13.522 -21.454  0.00  0.00    +0.005 C 
ATOM     24  C   UNL     1      34.521 -14.710 -20.788  0.00  0.00    +0.000 C 
ATOM     25  C   UNL     1      35.062 -17.099 -20.851  0.00  0.00    +0.003 C 
ATOM     26  C   UNL     1      34.923 -17.056 -23.636  0.00  0.00    +0.000 C 
ATOM     27  C   UNL     1      35.293 -18.266 -21.579  0.00  0.00    +0.031 C 
ATOM     28  C   UNL     1      35.224 -18.244 -22.970  0.00  0.00    +0.003 C 
BRANCH  27  31
ATOM     29  N   UNL     1      36.794 -19.655 -20.172  0.00  0.00    -0.343 N 
ATOM     30  N   UNL     1      34.761 -20.517 -20.933  0.00  0.00    -0.285 NA
ATOM     31  C   UNL     1      35.607 -19.505 -20.887  0.00  0.00    +0.117 C 
ATOM     32  H   UNL     1      36.986 -20.503 -19.710  0.00  0.00    +0.144 HD
ATOM     33  H   UNL     1      37.439 -18.913 -20.127  0.00  0.00    +0.144 HD
ATOM     34  H   UNL     1      34.971 -21.358 -20.465  0.00  0.00    +0.188 HD
ENDBRANCH  27  31
ENDBRANCH   3  19
TORSDOF 4
ENDMDL
MODEL 6
REMARK VINA RESULT:     -10.6      9.330     14.214
REMARK  Name = 447731
REMARK  4 active torsions:
REMARK  status: ('A' for Active; 'I' for Inactive)
REMARK    1  A    between atoms: N_2  and  C_13
REMARK    2  A    between atoms: C_3  and  C_19
REMARK    3  A    between atoms: C_6  and  C_17
REMARK    4  A    between atoms: C_27  and  C_31
REMARK                            x       y       z     vdW  Elec       q    Type
REMARK                         _______ _______ _______ _____ _____    ______ ____
ROOT
ATOM      1  O   UNL     1      31.009 -11.388 -21.942  0.00  0.00    -0.270 OA
ATOM      2  N   UNL     1      33.089 -11.229 -23.030  0.00  0.00    -0.280 N 
ATOM      3  C   UNL     1      31.961 -10.736 -22.361  0.00  0.00    +0.249 C 
ATOM      4  H   UNL     1      33.760 -10.559 -23.296  0.00  0.00    +0.155 HD
ENDROOT
BRANCH   2  13
ATOM      5  N   UNL     1      35.322 -17.247 -23.606  0.00  0.00    +0.387 N 
ATOM      6  C   UNL     1      35.042 -15.619 -21.770  0.00  0.00    +0.001 C 
ATOM      7  C   UNL     1      34.311 -14.718 -22.755  0.00  0.00    -0.029 C 
ATOM      8  C   UNL     1      34.986 -17.101 -22.191  0.00  0.00    -0.077 C 
ATOM      9  C   UNL     1      33.985 -15.199 -24.039  0.00  0.00    -0.048 C 
ATOM     10  C   UNL     1      34.285 -16.624 -24.433  0.00  0.00    -0.055 C 
ATOM     11  C   UNL     1      34.021 -13.380 -22.443  0.00  0.00    +0.010 C 
ATOM     12  C   UNL     1      33.327 -14.362 -24.954  0.00  0.00    -0.005 C 
ATOM     13  C   UNL     1      33.378 -12.553 -23.366  0.00  0.00    +0.050 C 
ATOM     14  C   UNL     1      33.026 -13.045 -24.618  0.00  0.00    +0.014 C 
ATOM     15  H   UNL     1      35.388 -18.239 -23.837  0.00  0.00    -0.084 HD
ATOM     16  H   UNL     1      36.216 -16.790 -23.788  0.00  0.00    -0.084 HD
BRANCH   6  17
ATOM     17  C   UNL     1      34.528 -15.501 -20.330  0.00  0.00    +0.002 C 
ATOM     18  C   UNL     1      33.146 -14.885 -20.293  0.00  0.00    +0.000 C 
ENDBRANCH   6  17
ENDBRANCH   2  13
BRANCH   3  19
ATOM     19  C   UNL     1      31.925  -9.262 -22.172  0.00  0.00    +0.054 C 
ATOM     20  C   UNL     1      31.655  -7.061 -23.105  0.00  0.00    +0.000 C 
ATOM     21  C   UNL     1      31.860  -6.509 -21.817  0.00  0.00    +0.000 C 
ATOM     22  C   UNL     1      31.691  -8.457 -23.267  0.00  0.00    +0.005 C 
ATOM     23  C   UNL     1      32.128  -8.750 -20.910  0.00  0.00    +0.005 C 
ATOM     24  C   UNL     1      32.095  -7.368 -20.731  0.00  0.00    +0.000 C 
ATOM     25  C   UNL     1      31.824  -5.114 -21.655  0.00  0.00    +0.003 C 
ATOM     26  C   UNL     1      31.420  -6.203 -24.190  0.00  0.00    +0.000 C 
ATOM     27  C   UNL     1      31.590  -4.276 -22.745  0.00  0.00    +0.031 C 
ATOM     28  C   UNL     1      31.388  -4.821 -24.011  0.00  0.00    +0.003 C 
BRANCH  27  31
ATOM     29  N   UNL     1      31.271  -1.975 -23.619  0.00  0.00    -0.343 N 
ATOM     30  N   UNL     1      31.802  -2.318 -21.371  0.00  0.00    -0.285 NA
ATOM     31  C   UNL     1      31.556  -2.835 -22.560  0.00  0.00    +0.117 C 
ATOM     32  H   UNL     1      31.253  -1.001 -23.472  0.00  0.00    +0.144 HD
ATOM     33  H   UNL     1      31.087  -2.340 -24.515  0.00  0.00    +0.144 HD
ATOM     34  H   UNL     1      31.780  -1.341 -21.243  0.00  0.00    +0.188 HD
ENDBRANCH  27  31
ENDBRANCH   3  19
TORSDOF 4
ENDMDL
MODEL 7
REMARK VINA RESULT:     -10.6      9.152     15.843
REMARK  Name = 447731
REMARK  4 active torsions:
REMARK  status: ('A' for Active; 'I' for Inactive)
REMARK    1  A    between atoms: N_2  and  C_13
REMARK    2  A    between atoms: C_3  and  C_19
REMARK    3  A    between atoms: C_6  and  C_17
REMARK    4  A    between atoms: C_27  and  C_31
REMARK                            x       y       z     vdW  Elec       q    Type
REMARK                         _______ _______ _______ _____ _____    ______ ____
ROOT
ATOM      1  O   UNL     1      30.805 -10.747 -22.220  0.00  0.00    -0.270 OA
ATOM      2  N   UNL     1      32.853  -9.605 -22.406  0.00  0.00    -0.280 N 
ATOM      3  C   UNL     1      32.023 -10.733 -22.367  0.00  0.00    +0.249 C 
ATOM      4  H   UNL     1      33.814  -9.779 -22.531  0.00  0.00    +0.155 HD
ENDROOT
BRANCH   2  13
ATOM      5  N   UNL     1      32.176  -3.201 -22.682  0.00  0.00    +0.387 N 
ATOM      6  C   UNL     1      32.973  -4.976 -24.204  0.00  0.00    +0.001 C 
ATOM      7  C   UNL     1      32.515  -5.992 -23.168  0.00  0.00    -0.029 C 
ATOM      8  C   UNL     1      32.215  -3.639 -24.076  0.00  0.00    -0.077 C 
ATOM      9  C   UNL     1      31.773  -5.568 -22.047  0.00  0.00    -0.048 C 
ATOM     10  C   UNL     1      31.361  -4.126 -21.891  0.00  0.00    -0.055 C 
ATOM     11  C   UNL     1      32.883  -7.344 -23.260  0.00  0.00    +0.010 C 
ATOM     12  C   UNL     1      31.367  -6.503 -21.083  0.00  0.00    -0.005 C 
ATOM     13  C   UNL     1      32.484  -8.263 -22.287  0.00  0.00    +0.050 C 
ATOM     14  C   UNL     1      31.721  -7.844 -21.203  0.00  0.00    +0.014 C 
ATOM     15  H   UNL     1      31.771  -2.266 -22.633  0.00  0.00    -0.084 HD
ATOM     16  H   UNL     1      33.125  -3.186 -22.308  0.00  0.00    -0.084 HD
BRANCH   6  17
ATOM     17  C   UNL     1      32.846  -5.471 -25.650  0.00  0.00    +0.002 C 
ATOM     18  C   UNL     1      34.205  -5.608 -26.301  0.00  0.00    +0.000 C 
ENDBRANCH   6  17
ENDBRANCH   2  13
BRANCH   3  19
ATOM     19  C   UNL     1      32.720 -12.040 -22.493  0.00  0.00    +0.054 C 
ATOM     20  C   UNL     1      33.675 -13.987 -21.452  0.00  0.00    +0.000 C 
ATOM     21  C   UNL     1      34.021 -14.482 -22.732  0.00  0.00    +0.000 C 
ATOM     22  C   UNL     1      33.017 -12.749 -21.349  0.00  0.00    +0.005 C 
ATOM     23  C   UNL     1      33.045 -12.499 -23.750  0.00  0.00    +0.005 C 
ATOM     24  C   UNL     1      33.699 -13.725 -23.871  0.00  0.00    +0.000 C 
ATOM     25  C   UNL     1      34.679 -15.718 -22.836  0.00  0.00    +0.003 C 
ATOM     26  C   UNL     1      33.998 -14.742 -20.313  0.00  0.00    +0.000 C 
ATOM     27  C   UNL     1      34.992 -16.456 -21.694  0.00  0.00    +0.031 C 
ATOM     28  C   UNL     1      34.651 -15.968 -20.435  0.00  0.00    +0.003 C 
BRANCH  27  31
ATOM     29  N   UNL     1      36.058 -18.462 -20.694  0.00  0.00    -0.343 N 
ATOM     30  N   UNL     1      35.943 -18.222 -23.014  0.00  0.00    -0.285 NA
ATOM     31  C   UNL     1      35.674 -17.734 -21.818  0.00  0.00    +0.117 C 
ATOM     32  H   UNL     1      36.518 -19.326 -20.800  0.00  0.00    +0.144 HD
ATOM     33  H   UNL     1      35.869 -18.114 -19.792  0.00  0.00    +0.144 HD
ATOM     34  H   UNL     1      36.405 -19.088 -23.101  0.00  0.00    +0.188 HD
ENDBRANCH  27  31
ENDBRANCH   3  19
TORSDOF 4
ENDMDL
MODEL 8
REMARK VINA RESULT:     -10.6      8.399     15.069
REMARK  Name = 447731
REMARK  4 active torsions:
REMARK  status: ('A' for Active; 'I' for Inactive)
REMARK    1  A    between atoms: N_2  and  C_13
REMARK    2  A    between atoms: C_3  and  C_19
REMARK    3  A    between atoms: C_6  and  C_17
REMARK    4  A    between atoms: C_27  and  C_31
REMARK                            x       y       z     vdW  Elec       q    Type
REMARK                         _______ _______ _______ _____ _____    ______ ____
ROOT
ATOM      1  O   UNL     1      31.343 -11.446 -21.995  0.00  0.00    -0.270 OA
ATOM      2  N   UNL     1      32.842 -10.519 -23.551  0.00  0.00    -0.280 N 
ATOM      3  C   UNL     1      32.287 -11.542 -22.773  0.00  0.00    +0.249 C 
ATOM      4  H   UNL     1      33.601 -10.776 -24.124  0.00  0.00    +0.155 HD
ENDROOT
BRANCH   2  13
ATOM      5  N   UNL     1      30.753  -4.504 -22.555  0.00  0.00    +0.387 N 
ATOM      6  C   UNL     1      31.880  -6.244 -21.212  0.00  0.00    +0.001 C 
ATOM      7  C   UNL     1      31.999  -7.070 -22.485  0.00  0.00    -0.029 C 
ATOM      8  C   UNL     1      31.750  -4.737 -21.512  0.00  0.00    -0.077 C 
ATOM      9  C   UNL     1      31.648  -6.503 -23.727  0.00  0.00    -0.048 C 
ATOM     10  C   UNL     1      31.222  -5.060 -23.827  0.00  0.00    -0.055 C 
ATOM     11  C   UNL     1      32.377  -8.422 -22.444  0.00  0.00    +0.010 C 
ATOM     12  C   UNL     1      31.740  -7.271 -24.898  0.00  0.00    -0.005 C 
ATOM     13  C   UNL     1      32.453  -9.180 -23.615  0.00  0.00    +0.050 C 
ATOM     14  C   UNL     1      32.140  -8.603 -24.840  0.00  0.00    +0.014 C 
ATOM     15  H   UNL     1      30.602  -3.500 -22.660  0.00  0.00    -0.084 HD
ATOM     16  H   UNL     1      29.879  -4.959 -22.292  0.00  0.00    -0.084 HD
BRANCH   6  17
ATOM     17  C   UNL     1      33.045  -6.448 -20.236  0.00  0.00    +0.002 C 
ATOM     18  C   UNL     1      32.762  -7.586 -19.279  0.00  0.00    +0.000 C 
ENDBRANCH   6  17
ENDBRANCH   2  13
BRANCH   3  19
ATOM     19  C   UNL     1      32.943 -12.870 -22.902  0.00  0.00    +0.054 C 
ATOM     20  C   UNL     1      34.002 -14.765 -21.867  0.00  0.00    +0.000 C 
ATOM     21  C   UNL     1      34.170 -15.349 -23.146  0.00  0.00    +0.000 C 
ATOM     22  C   UNL     1      33.379 -13.510 -21.761  0.00  0.00    +0.005 C 
ATOM     23  C   UNL     1      33.094 -13.415 -24.157  0.00  0.00    +0.005 C 
ATOM     24  C   UNL     1      33.711 -14.660 -24.281  0.00  0.00    +0.000 C 
ATOM     25  C   UNL     1      34.793 -16.603 -23.252  0.00  0.00    +0.003 C 
ATOM     26  C   UNL     1      34.462 -15.453 -20.733  0.00  0.00    +0.000 C 
ATOM     27  C   UNL     1      35.244 -17.273 -22.114  0.00  0.00    +0.031 C 
ATOM     28  C   UNL     1      35.078 -16.698 -20.857  0.00  0.00    +0.003 C 
BRANCH  27  31
ATOM     29  N   UNL     1      35.169 -19.699 -22.631  0.00  0.00    -0.343 N 
ATOM     30  N   UNL     1      37.175 -18.695 -21.980  0.00  0.00    -0.285 NA
ATOM     31  C   UNL     1      35.887 -18.570 -22.241  0.00  0.00    +0.117 C 
ATOM     32  H   UNL     1      35.624 -20.569 -22.711  0.00  0.00    +0.144 HD
ATOM     33  H   UNL     1      34.207 -19.628 -22.828  0.00  0.00    +0.144 HD
ATOM     34  H   UNL     1      37.612 -19.573 -22.065  0.00  0.00    +0.188 HD
ENDBRANCH  27  31
ENDBRANCH   3  19
TORSDOF 4
ENDMDL
MODEL 9
REMARK VINA RESULT:     -10.5      2.132     10.399
REMARK  Name = 447731
REMARK  4 active torsions:
REMARK  status: ('A' for Active; 'I' for Inactive)
REMARK    1  A    between atoms: N_2  and  C_13
REMARK    2  A    between atoms: C_3  and  C_19
REMARK    3  A    between atoms: C_6  and  C_17
REMARK    4  A    between atoms: C_27  and  C_31
REMARK                            x       y       z     vdW  Elec       q    Type
REMARK                         _______ _______ _______ _____ _____    ______ ____
ROOT
ATOM      1  O   UNL     1      33.583 -21.459 -20.157  0.00  0.00    -0.270 OA
ATOM      2  N   UNL     1      35.516 -20.121 -20.234  0.00  0.00    -0.280 N 
ATOM      3  C   UNL     1      34.674 -21.114 -19.715  0.00  0.00    +0.249 C 
ATOM      4  H   UNL     1      36.361 -19.975 -19.750  0.00  0.00    +0.155 HD
ENDROOT
BRANCH   2  13
ATOM      5  N   UNL     1      33.780 -15.679 -24.570  0.00  0.00    +0.387 N 
ATOM      6  C   UNL     1      34.171 -15.732 -22.132  0.00  0.00    +0.001 C 
ATOM      7  C   UNL     1      34.668 -17.161 -22.298  0.00  0.00    -0.029 C 
ATOM      8  C   UNL     1      34.301 -14.920 -23.435  0.00  0.00    -0.077 C 
ATOM      9  C   UNL     1      34.849 -17.696 -23.590  0.00  0.00    -0.048 C 
ATOM     10  C   UNL     1      34.627 -16.849 -24.818  0.00  0.00    -0.055 C 
ATOM     11  C   UNL     1      34.877 -17.994 -21.188  0.00  0.00    +0.010 C 
ATOM     12  C   UNL     1      35.290 -19.019 -23.743  0.00  0.00    -0.005 C 
ATOM     13  C   UNL     1      35.304 -19.314 -21.354  0.00  0.00    +0.050 C 
ATOM     14  C   UNL     1      35.515 -19.824 -22.629  0.00  0.00    +0.014 C 
ATOM     15  H   UNL     1      33.773 -15.086 -25.400  0.00  0.00    -0.084 HD
ATOM     16  H   UNL     1      32.832 -15.990 -24.359  0.00  0.00    -0.084 HD
BRANCH   6  17
ATOM     17  C   UNL     1      34.874 -14.964 -21.006  0.00  0.00    +0.002 C 
ATOM     18  C   UNL     1      33.909 -14.049 -20.284  0.00  0.00    +0.000 C 
ENDBRANCH   6  17
ENDBRANCH   2  13
BRANCH   3  19
ATOM     19  C   UNL     1      35.167 -21.788 -18.485  0.00  0.00    +0.054 C 
ATOM     20  C   UNL     1      34.735 -23.186 -16.576  0.00  0.00    +0.000 C 
ATOM     21  C   UNL     1      36.089 -23.045 -16.188  0.00  0.00    +0.000 C 
ATOM     22  C   UNL     1      34.285 -22.543 -17.742  0.00  0.00    +0.005 C 
ATOM     23  C   UNL     1      36.488 -21.635 -18.129  0.00  0.00    +0.005 C 
ATOM     24  C   UNL     1      36.952 -22.266 -16.975  0.00  0.00    +0.000 C 
ATOM     25  C   UNL     1      36.540 -23.687 -15.022  0.00  0.00    +0.003 C 
ATOM     26  C   UNL     1      33.872 -23.964 -15.789  0.00  0.00    +0.000 C 
ATOM     27  C   UNL     1      35.668 -24.457 -14.251  0.00  0.00    +0.031 C 
ATOM     28  C   UNL     1      34.336 -24.595 -14.635  0.00  0.00    +0.003 C 
BRANCH  27  31
ATOM     29  N   UNL     1      37.476 -25.527 -12.929  0.00  0.00    -0.343 N 
ATOM     30  N   UNL     1      35.323 -25.337 -12.043  0.00  0.00    -0.285 NA
ATOM     31  C   UNL     1      36.150 -25.115 -13.048  0.00  0.00    +0.117 C 
ATOM     32  H   UNL     1      37.782 -25.970 -12.105  0.00  0.00    +0.144 HD
ATOM     33  H   UNL     1      38.108 -25.373 -13.669  0.00  0.00    +0.144 HD
ATOM     34  H   UNL     1      35.647 -25.783 -11.227  0.00  0.00    +0.188 HD
ENDBRANCH  27  31
ENDBRANCH   3  19
TORSDOF 4
ENDMDL
