MODEL 1
REMARK VINA RESULT:     -13.6      0.000      0.000
REMARK  Name = 71351
REMARK  4 active torsions:
REMARK  status: ('A' for Active; 'I' for Inactive)
REMARK    1  A    between atoms: N_1  and  C_18
REMARK    2  A    between atoms: C_2  and  C_11
REMARK    3  A    between atoms: C_18  and  C_19
REMARK    4  A    between atoms: C_19  and  C_23
REMARK                            x       y       z     vdW  Elec       q    Type
REMARK                         _______ _______ _______ _____ _____    ______ ____
ROOT
ATOM      1  N   UNL     1      35.751 -19.758 -20.232  0.00  0.00    +0.387 N 
ATOM      2  C   UNL     1      35.216 -18.485 -22.821  0.00  0.00    +0.039 C 
ATOM      3  C   UNL     1      36.214 -17.903 -21.805  0.00  0.00    -0.017 C 
ATOM      4  C   UNL     1      34.170 -19.345 -22.091  0.00  0.00    -0.017 C 
ATOM      5  C   UNL     1      36.807 -19.001 -20.918  0.00  0.00    -0.077 C 
ATOM      6  C   UNL     1      34.840 -20.390 -21.194  0.00  0.00    -0.077 C 
ATOM      7  H   UNL     1      35.209 -19.102 -19.669  0.00  0.00    -0.080 HD
ENDROOT
BRANCH   2  11
ATOM      8  F   UNL     1      33.387 -12.082 -23.757  0.00  0.00    -0.204 F 
ATOM      9  O   UNL     1      33.629 -16.582 -25.437  0.00  0.00    -0.354 OA
ATOM     10  N   UNL     1      34.129 -17.762 -24.900  0.00  0.00    -0.081 NA
ATOM     11  C   UNL     1      34.590 -17.425 -23.698  0.00  0.00    +0.100 A 
ATOM     12  C   UNL     1      34.420 -16.063 -23.406  0.00  0.00    +0.054 A 
ATOM     13  C   UNL     1      33.805 -15.570 -24.543  0.00  0.00    +0.179 A 
ATOM     14  C   UNL     1      34.698 -15.187 -22.346  0.00  0.00    +0.007 C 
ATOM     15  C   UNL     1      33.433 -14.241 -24.720  0.00  0.00    +0.070 C 
ATOM     16  C   UNL     1      34.338 -13.840 -22.490  0.00  0.00    +0.030 C 
ATOM     17  C   UNL     1      33.717 -13.378 -23.656  0.00  0.00    +0.143 C 
ENDBRANCH   2  11
BRANCH   1  18
ATOM     18  C   UNL     1      36.337 -20.763 -19.345  0.00  0.00    -0.076 C 
BRANCH  18  19
ATOM     19  C   UNL     1      35.567 -22.070 -19.465  0.00  0.00    -0.007 C 
BRANCH  19  23
ATOM     20  O   UNL     1      32.895 -22.712 -19.083  0.00  0.00    -0.274 OA
ATOM     21  N   UNL     1      33.104 -23.164 -16.799  0.00  0.00    -0.211 N 
ATOM     22  N   UNL     1      35.244 -23.005 -15.782  0.00  0.00    -0.395 NA
ATOM     23  C   UNL     1      35.047 -22.509 -18.127  0.00  0.00    +0.123 C 
ATOM     24  C   UNL     1      35.768 -22.638 -16.996  0.00  0.00    +0.097 C 
ATOM     25  C   UNL     1      33.579 -22.801 -18.063  0.00  0.00    +0.241 C 
ATOM     26  C   UNL     1      33.971 -23.250 -15.704  0.00  0.00    +0.188 C 
ATOM     27  C   UNL     1      37.256 -22.412 -16.946  0.00  0.00    +0.062 C 
ATOM     28  C   UNL     1      33.372 -23.652 -14.381  0.00  0.00    +0.023 C 
ATOM     29  C   UNL     1      31.749 -23.442 -16.653  0.00  0.00    +0.074 C 
ATOM     30  C   UNL     1      32.056 -23.904 -14.319  0.00  0.00    +0.001 C 
ATOM     31  C   UNL     1      31.220 -23.799 -15.480  0.00  0.00    +0.016 C 
ATOM     32  C   UNL     1      34.277 -23.751 -13.192  0.00  0.00    +0.035 C 
ENDBRANCH  19  23
ENDBRANCH  18  19
ENDBRANCH   1  18
TORSDOF 4
ENDMDL
MODEL 2
REMARK VINA RESULT:     -13.4      1.024      1.975
REMARK  Name = 71351
REMARK  4 active torsions:
REMARK  status: ('A' for Active; 'I' for Inactive)
REMARK    1  A    between atoms: N_1  and  C_18
REMARK    2  A    between atoms: C_2  and  C_11
REMARK    3  A    between atoms: C_18  and  C_19
REMARK    4  A    between atoms: C_19  and  C_23
REMARK                            x       y       z     vdW  Elec       q    Type
REMARK                         _______ _______ _______ _____ _____    ______ ____
ROOT
ATOM      1  N   UNL     1      35.691 -19.658 -20.374  0.00  0.00    +0.387 N 
ATOM      2  C   UNL     1      35.243 -18.292 -22.931  0.00  0.00    +0.039 C 
ATOM      3  C   UNL     1      36.095 -17.680 -21.807  0.00  0.00    -0.017 C 
ATOM      4  C   UNL     1      34.231 -19.285 -22.337  0.00  0.00    -0.017 C 
ATOM      5  C   UNL     1      36.719 -18.767 -20.929  0.00  0.00    -0.077 C 
ATOM      6  C   UNL     1      34.925 -20.314 -21.441  0.00  0.00    -0.077 C 
ATOM      7  H   UNL     1      35.045 -19.088 -19.826  0.00  0.00    -0.080 HD
ENDROOT
BRANCH   2  11
ATOM      8  F   UNL     1      33.233 -11.938 -23.834  0.00  0.00    -0.204 F 
ATOM      9  O   UNL     1      33.608 -16.419 -25.540  0.00  0.00    -0.354 OA
ATOM     10  N   UNL     1      34.140 -17.588 -25.009  0.00  0.00    -0.081 NA
ATOM     11  C   UNL     1      34.589 -17.245 -23.804  0.00  0.00    +0.100 A 
ATOM     12  C   UNL     1      34.379 -15.890 -23.504  0.00  0.00    +0.054 A 
ATOM     13  C   UNL     1      33.752 -15.408 -24.640  0.00  0.00    +0.179 A 
ATOM     14  C   UNL     1      34.629 -15.013 -22.439  0.00  0.00    +0.007 C 
ATOM     15  C   UNL     1      33.342 -14.089 -24.810  0.00  0.00    +0.070 C 
ATOM     16  C   UNL     1      34.230 -13.675 -22.576  0.00  0.00    +0.030 C 
ATOM     17  C   UNL     1      33.599 -13.224 -23.741  0.00  0.00    +0.143 C 
ENDBRANCH   2  11
BRANCH   1  18
ATOM     18  C   UNL     1      36.299 -20.655 -19.492  0.00  0.00    -0.076 C 
BRANCH  18  19
ATOM     19  C   UNL     1      35.654 -22.013 -19.725  0.00  0.00    -0.007 C 
BRANCH  19  23
ATOM     20  O   UNL     1      36.477 -22.920 -17.236  0.00  0.00    -0.274 OA
ATOM     21  N   UNL     1      34.321 -23.165 -16.369  0.00  0.00    -0.211 N 
ATOM     22  N   UNL     1      32.459 -22.565 -17.717  0.00  0.00    -0.395 NA
ATOM     23  C   UNL     1      34.669 -22.330 -18.638  0.00  0.00    +0.123 C 
ATOM     24  C   UNL     1      33.328 -22.226 -18.724  0.00  0.00    +0.097 C 
ATOM     25  C   UNL     1      35.255 -22.832 -17.355  0.00  0.00    +0.241 C 
ATOM     26  C   UNL     1      32.948 -23.014 -16.600  0.00  0.00    +0.188 C 
ATOM     27  C   UNL     1      32.626 -21.697 -19.947  0.00  0.00    +0.062 C 
ATOM     28  C   UNL     1      32.015 -23.395 -15.481  0.00  0.00    +0.023 C 
ATOM     29  C   UNL     1      34.783 -23.648 -15.150  0.00  0.00    +0.074 C 
ATOM     30  C   UNL     1      32.537 -23.853 -14.334  0.00  0.00    +0.001 C 
ATOM     31  C   UNL     1      33.955 -23.985 -14.158  0.00  0.00    +0.016 C 
ATOM     32  C   UNL     1      30.541 -23.244 -15.701  0.00  0.00    +0.035 C 
ENDBRANCH  19  23
ENDBRANCH  18  19
ENDBRANCH   1  18
TORSDOF 4
ENDMDL
MODEL 3
REMARK VINA RESULT:     -12.8      4.453     10.314
REMARK  Name = 71351
REMARK  4 active torsions:
REMARK  status: ('A' for Active; 'I' for Inactive)
REMARK    1  A    between atoms: N_1  and  C_18
REMARK    2  A    between atoms: C_2  and  C_11
REMARK    3  A    between atoms: C_18  and  C_19
REMARK    4  A    between atoms: C_19  and  C_23
REMARK                            x       y       z     vdW  Elec       q    Type
REMARK                         _______ _______ _______ _____ _____    ______ ____
ROOT
ATOM      1  N   UNL     1      34.145 -15.314 -22.712  0.00  0.00    +0.387 N 
ATOM      2  C   UNL     1      35.807 -17.441 -21.562  0.00  0.00    +0.039 C 
ATOM      3  C   UNL     1      35.108 -17.585 -22.924  0.00  0.00    -0.017 C 
ATOM      4  C   UNL     1      35.051 -16.423 -20.693  0.00  0.00    -0.017 C 
ATOM      5  C   UNL     1      34.899 -16.221 -23.588  0.00  0.00    -0.077 C 
ATOM      6  C   UNL     1      34.845 -15.102 -21.439  0.00  0.00    -0.077 C 
ATOM      7  H   UNL     1      33.245 -15.751 -22.507  0.00  0.00    -0.080 HD
ENDROOT
BRANCH   2  11
ATOM      8  F   UNL     1      33.202 -23.085 -18.995  0.00  0.00    -0.204 F 
ATOM      9  O   UNL     1      37.075 -20.389 -19.923  0.00  0.00    -0.354 OA
ATOM     10  N   UNL     1      37.237 -19.150 -20.533  0.00  0.00    -0.081 NA
ATOM     11  C   UNL     1      36.007 -18.768 -20.865  0.00  0.00    +0.100 A 
ATOM     12  C   UNL     1      35.024 -19.701 -20.503  0.00  0.00    +0.054 A 
ATOM     13  C   UNL     1      35.754 -20.715 -19.907  0.00  0.00    +0.179 A 
ATOM     14  C   UNL     1      33.630 -19.828 -20.596  0.00  0.00    +0.007 C 
ATOM     15  C   UNL     1      35.198 -21.877 -19.380  0.00  0.00    +0.070 C 
ATOM     16  C   UNL     1      33.035 -20.987 -20.076  0.00  0.00    +0.030 C 
ATOM     17  C   UNL     1      33.807 -21.991 -19.481  0.00  0.00    +0.143 C 
ENDBRANCH   2  11
BRANCH   1  18
ATOM     18  C   UNL     1      33.904 -14.037 -23.384  0.00  0.00    -0.076 C 
BRANCH  18  19
ATOM     19  C   UNL     1      32.440 -13.646 -23.244  0.00  0.00    -0.007 C 
BRANCH  19  23
ATOM     20  O   UNL     1      32.489 -10.944 -23.871  0.00  0.00    -0.274 OA
ATOM     21  N   UNL     1      32.221 -10.205 -21.670  0.00  0.00    -0.211 N 
ATOM     22  N   UNL     1      31.965 -11.808 -19.937  0.00  0.00    -0.395 NA
ATOM     23  C   UNL     1      32.267 -12.591 -22.191  0.00  0.00    +0.123 C 
ATOM     24  C   UNL     1      32.080 -12.804 -20.873  0.00  0.00    +0.097 C 
ATOM     25  C   UNL     1      32.339 -11.174 -22.671  0.00  0.00    +0.241 C 
ATOM     26  C   UNL     1      32.037 -10.573 -20.332  0.00  0.00    +0.188 C 
ATOM     27  C   UNL     1      31.951 -14.182 -20.279  0.00  0.00    +0.062 C 
ATOM     28  C   UNL     1      31.917  -9.461 -19.323  0.00  0.00    +0.023 C 
ATOM     29  C   UNL     1      32.286  -8.864 -22.032  0.00  0.00    +0.074 C 
ATOM     30  C   UNL     1      31.990  -8.192 -19.749  0.00  0.00    +0.001 C 
ATOM     31  C   UNL     1      32.179  -7.880 -21.136  0.00  0.00    +0.016 C 
ATOM     32  C   UNL     1      31.721  -9.826 -17.883  0.00  0.00    +0.035 C 
ENDBRANCH  19  23
ENDBRANCH  18  19
ENDBRANCH   1  18
TORSDOF 4
ENDMDL
MODEL 4
REMARK VINA RESULT:     -12.4      1.259      2.285
REMARK  Name = 71351
REMARK  4 active torsions:
REMARK  status: ('A' for Active; 'I' for Inactive)
REMARK    1  A    between atoms: N_1  and  C_18
REMARK    2  A    between atoms: C_2  and  C_11
REMARK    3  A    between atoms: C_18  and  C_19
REMARK    4  A    between atoms: C_19  and  C_23
REMARK                            x       y       z     vdW  Elec       q    Type
REMARK                         _______ _______ _______ _____ _____    ______ ____
ROOT
ATOM      1  N   UNL     1      35.909 -20.004 -20.028  0.00  0.00    +0.387 N 
ATOM      2  C   UNL     1      35.258 -18.836 -22.639  0.00  0.00    +0.039 C 
ATOM      3  C   UNL     1      36.393 -18.296 -21.754  0.00  0.00    -0.017 C 
ATOM      4  C   UNL     1      34.209 -19.547 -21.768  0.00  0.00    -0.017 C 
ATOM      5  C   UNL     1      36.962 -19.393 -20.851  0.00  0.00    -0.077 C 
ATOM      6  C   UNL     1      34.859 -20.598 -20.865  0.00  0.00    -0.077 C 
ATOM      7  H   UNL     1      35.483 -19.267 -19.465  0.00  0.00    -0.080 HD
ENDROOT
BRANCH   2  11
ATOM      8  F   UNL     1      33.526 -12.413 -23.626  0.00  0.00    -0.204 F 
ATOM      9  O   UNL     1      33.718 -16.926 -25.279  0.00  0.00    -0.354 OA
ATOM     10  N   UNL     1      34.198 -18.110 -24.732  0.00  0.00    -0.081 NA
ATOM     11  C   UNL     1      34.654 -17.773 -23.528  0.00  0.00    +0.100 A 
ATOM     12  C   UNL     1      34.500 -16.407 -23.245  0.00  0.00    +0.054 A 
ATOM     13  C   UNL     1      33.901 -15.911 -24.390  0.00  0.00    +0.179 A 
ATOM     14  C   UNL     1      34.782 -15.528 -22.188  0.00  0.00    +0.007 C 
ATOM     15  C   UNL     1      33.549 -14.578 -24.577  0.00  0.00    +0.070 C 
ATOM     16  C   UNL     1      34.442 -14.177 -22.343  0.00  0.00    +0.030 C 
ATOM     17  C   UNL     1      33.837 -13.713 -23.516  0.00  0.00    +0.143 C 
ENDBRANCH   2  11
BRANCH   1  18
ATOM     18  C   UNL     1      36.480 -21.009 -19.131  0.00  0.00    -0.076 C 
BRANCH  18  19
ATOM     19  C   UNL     1      35.594 -22.246 -19.111  0.00  0.00    -0.007 C 
BRANCH  19  23
ATOM     20  O   UNL     1      37.515 -22.454 -17.120  0.00  0.00    -0.274 OA
ATOM     21  N   UNL     1      36.024 -23.112 -15.445  0.00  0.00    -0.211 N 
ATOM     22  N   UNL     1      33.711 -23.274 -15.957  0.00  0.00    -0.395 NA
ATOM     23  C   UNL     1      35.231 -22.621 -17.703  0.00  0.00    +0.123 C 
ATOM     24  C   UNL     1      33.994 -22.896 -17.246  0.00  0.00    +0.097 C 
ATOM     25  C   UNL     1      36.374 -22.718 -16.740  0.00  0.00    +0.241 C 
ATOM     26  C   UNL     1      34.691 -23.375 -15.111  0.00  0.00    +0.188 C 
ATOM     27  C   UNL     1      32.763 -22.794 -18.109  0.00  0.00    +0.062 C 
ATOM     28  C   UNL     1      34.406 -23.791 -13.692  0.00  0.00    +0.023 C 
ATOM     29  C   UNL     1      37.030 -23.235 -14.493  0.00  0.00    +0.074 C 
ATOM     30  C   UNL     1      35.429 -23.887 -12.830  0.00  0.00    +0.001 C 
ATOM     31  C   UNL     1      36.775 -23.603 -13.235  0.00  0.00    +0.016 C 
ATOM     32  C   UNL     1      32.987 -24.080 -13.306  0.00  0.00    +0.035 C 
ENDBRANCH  19  23
ENDBRANCH  18  19
ENDBRANCH   1  18
TORSDOF 4
ENDMDL
MODEL 5
REMARK VINA RESULT:     -12.2      6.608     13.555
REMARK  Name = 71351
REMARK  4 active torsions:
REMARK  status: ('A' for Active; 'I' for Inactive)
REMARK    1  A    between atoms: N_1  and  C_18
REMARK    2  A    between atoms: C_2  and  C_11
REMARK    3  A    between atoms: C_18  and  C_19
REMARK    4  A    between atoms: C_19  and  C_23
REMARK                            x       y       z     vdW  Elec       q    Type
REMARK                         _______ _______ _______ _____ _____    ______ ____
ROOT
ATOM      1  N   UNL     1      32.249 -11.271 -22.739  0.00  0.00    +0.387 N 
ATOM      2  C   UNL     1      33.894 -13.686 -22.992  0.00  0.00    +0.039 C 
ATOM      3  C   UNL     1      33.788 -12.639 -24.113  0.00  0.00    -0.017 C 
ATOM      4  C   UNL     1      32.639 -13.631 -22.106  0.00  0.00    -0.017 C 
ATOM      5  C   UNL     1      33.475 -11.251 -23.548  0.00  0.00    -0.077 C 
ATOM      6  C   UNL     1      32.370 -12.207 -21.614  0.00  0.00    -0.077 C 
ATOM      7  H   UNL     1      31.485 -11.591 -23.335  0.00  0.00    -0.080 HD
ENDROOT
BRANCH   2  11
ATOM      8  F   UNL     1      35.842 -20.021 -21.850  0.00  0.00    -0.204 F 
ATOM      9  O   UNL     1      34.345 -16.671 -24.960  0.00  0.00    -0.354 OA
ATOM     10  N   UNL     1      34.005 -15.332 -24.811  0.00  0.00    -0.081 NA
ATOM     11  C   UNL     1      34.178 -15.075 -23.516  0.00  0.00    +0.100 A 
ATOM     12  C   UNL     1      34.619 -16.191 -22.789  0.00  0.00    +0.054 A 
ATOM     13  C   UNL     1      34.710 -17.181 -23.752  0.00  0.00    +0.179 A 
ATOM     14  C   UNL     1      34.952 -16.499 -21.461  0.00  0.00    +0.007 C 
ATOM     15  C   UNL     1      35.116 -18.488 -23.498  0.00  0.00    +0.070 C 
ATOM     16  C   UNL     1      35.365 -17.806 -21.169  0.00  0.00    +0.030 C 
ATOM     17  C   UNL     1      35.443 -18.781 -22.169  0.00  0.00    +0.143 C 
ENDBRANCH   2  11
BRANCH   1  18
ATOM     18  C   UNL     1      31.933  -9.926 -22.256  0.00  0.00    -0.076 C 
BRANCH  18  19
ATOM     19  C   UNL     1      33.174  -9.047 -22.324  0.00  0.00    -0.007 C 
BRANCH  19  23
ATOM     20  O   UNL     1      32.831  -7.745 -24.749  0.00  0.00    -0.274 OA
ATOM     21  N   UNL     1      32.364  -5.656 -23.811  0.00  0.00    -0.211 N 
ATOM     22  N   UNL     1      32.289  -5.443 -21.447  0.00  0.00    -0.395 NA
ATOM     23  C   UNL     1      32.798  -7.596 -22.391  0.00  0.00    +0.123 C 
ATOM     24  C   UNL     1      32.593  -6.777 -21.341  0.00  0.00    +0.097 C 
ATOM     25  C   UNL     1      32.670  -7.020 -23.767  0.00  0.00    +0.241 C 
ATOM     26  C   UNL     1      32.185  -4.923 -22.632  0.00  0.00    +0.188 C 
ATOM     27  C   UNL     1      32.655  -7.250 -19.912  0.00  0.00    +0.062 C 
ATOM     28  C   UNL     1      31.855  -3.460 -22.775  0.00  0.00    +0.023 C 
ATOM     29  C   UNL     1      32.236  -5.042 -25.052  0.00  0.00    +0.074 C 
ATOM     30  C   UNL     1      31.749  -2.940 -24.006  0.00  0.00    +0.001 C 
ATOM     31  C   UNL     1      31.943  -3.745 -25.177  0.00  0.00    +0.016 C 
ATOM     32  C   UNL     1      31.660  -2.650 -21.530  0.00  0.00    +0.035 C 
ENDBRANCH  19  23
ENDBRANCH  18  19
ENDBRANCH   1  18
TORSDOF 4
ENDMDL
MODEL 6
REMARK VINA RESULT:     -12.1      4.579     10.535
REMARK  Name = 71351
REMARK  4 active torsions:
REMARK  status: ('A' for Active; 'I' for Inactive)
REMARK    1  A    between atoms: N_1  and  C_18
REMARK    2  A    between atoms: C_2  and  C_11
REMARK    3  A    between atoms: C_18  and  C_19
REMARK    4  A    between atoms: C_19  and  C_23
REMARK                            x       y       z     vdW  Elec       q    Type
REMARK                         _______ _______ _______ _____ _____    ______ ____
ROOT
ATOM      1  N   UNL     1      34.785 -15.041 -22.799  0.00  0.00    +0.387 N 
ATOM      2  C   UNL     1      34.682 -17.692 -21.548  0.00  0.00    +0.039 C 
ATOM      3  C   UNL     1      34.889 -16.403 -20.735  0.00  0.00    -0.017 C 
ATOM      4  C   UNL     1      35.159 -17.480 -22.994  0.00  0.00    -0.017 C 
ATOM      5  C   UNL     1      34.259 -15.197 -21.437  0.00  0.00    -0.077 C 
ATOM      6  C   UNL     1      34.518 -16.235 -23.612  0.00  0.00    -0.077 C 
ATOM      7  H   UNL     1      35.796 -14.924 -22.735  0.00  0.00    -0.080 HD
ENDROOT
BRANCH   2  11
ATOM      8  F   UNL     1      34.006 -23.668 -18.539  0.00  0.00    -0.204 F 
ATOM      9  O   UNL     1      36.891 -20.178 -20.160  0.00  0.00    -0.354 OA
ATOM     10  N   UNL     1      36.640 -18.966 -20.792  0.00  0.00    -0.081 NA
ATOM     11  C   UNL     1      35.315 -18.901 -20.897  0.00  0.00    +0.100 A 
ATOM     12  C   UNL     1      34.665 -20.023 -20.360  0.00  0.00    +0.054 A 
ATOM     13  C   UNL     1      35.711 -20.806 -19.904  0.00  0.00    +0.179 A 
ATOM     14  C   UNL     1      33.349 -20.480 -20.197  0.00  0.00    +0.007 C 
ATOM     15  C   UNL     1      35.553 -22.041 -19.283  0.00  0.00    +0.070 C 
ATOM     16  C   UNL     1      33.152 -21.721 -19.576  0.00  0.00    +0.030 C 
ATOM     17  C   UNL     1      34.235 -22.486 -19.129  0.00  0.00    +0.143 C 
ENDBRANCH   2  11
BRANCH   1  18
ATOM     18  C   UNL     1      34.215 -13.851 -23.434  0.00  0.00    -0.076 C 
BRANCH  18  19
ATOM     19  C   UNL     1      32.780 -13.653 -22.968  0.00  0.00    -0.007 C 
BRANCH  19  23
ATOM     20  O   UNL     1      32.053 -13.329 -20.310  0.00  0.00    -0.274 OA
ATOM     21  N   UNL     1      31.973 -10.995 -20.389  0.00  0.00    -0.211 N 
ATOM     22  N   UNL     1      32.536  -9.888 -22.413  0.00  0.00    -0.395 NA
ATOM     23  C   UNL     1      32.598 -12.292 -22.362  0.00  0.00    +0.123 C 
ATOM     24  C   UNL     1      32.751 -11.112 -22.995  0.00  0.00    +0.097 C 
ATOM     25  C   UNL     1      32.182 -12.270 -20.924  0.00  0.00    +0.241 C 
ATOM     26  C   UNL     1      32.162  -9.849 -21.170  0.00  0.00    +0.188 C 
ATOM     27  C   UNL     1      33.205 -11.006 -24.428  0.00  0.00    +0.062 C 
ATOM     28  C   UNL     1      31.917  -8.517 -20.510  0.00  0.00    +0.023 C 
ATOM     29  C   UNL     1      31.575 -10.888 -19.061  0.00  0.00    +0.074 C 
ATOM     30  C   UNL     1      31.535  -8.495 -19.224  0.00  0.00    +0.001 C 
ATOM     31  C   UNL     1      31.359  -9.707 -18.477  0.00  0.00    +0.016 C 
ATOM     32  C   UNL     1      32.112  -7.274 -21.322  0.00  0.00    +0.035 C 
ENDBRANCH  19  23
ENDBRANCH  18  19
ENDBRANCH   1  18
TORSDOF 4
ENDMDL
MODEL 7
REMARK VINA RESULT:     -12.1      4.617     11.477
REMARK  Name = 71351
REMARK  4 active torsions:
REMARK  status: ('A' for Active; 'I' for Inactive)
REMARK    1  A    between atoms: N_1  and  C_18
REMARK    2  A    between atoms: C_2  and  C_11
REMARK    3  A    between atoms: C_18  and  C_19
REMARK    4  A    between atoms: C_19  and  C_23
REMARK                            x       y       z     vdW  Elec       q    Type
REMARK                         _______ _______ _______ _____ _____    ______ ____
ROOT
ATOM      1  N   UNL     1      34.567 -14.695 -23.093  0.00  0.00    +0.387 N 
ATOM      2  C   UNL     1      34.649 -17.306 -21.758  0.00  0.00    +0.039 C 
ATOM      3  C   UNL     1      34.834 -15.983 -20.996  0.00  0.00    -0.017 C 
ATOM      4  C   UNL     1      35.046 -17.120 -23.232  0.00  0.00    -0.017 C 
ATOM      5  C   UNL     1      34.115 -14.831 -21.702  0.00  0.00    -0.077 C 
ATOM      6  C   UNL     1      34.318 -15.926 -23.855  0.00  0.00    -0.077 C 
ATOM      7  H   UNL     1      35.574 -14.531 -23.082  0.00  0.00    -0.080 HD
ENDROOT
BRANCH   2  11
ATOM      8  F   UNL     1      34.415 -23.323 -18.763  0.00  0.00    -0.204 F 
ATOM      9  O   UNL     1      37.033 -19.614 -20.352  0.00  0.00    -0.354 OA
ATOM     10  N   UNL     1      36.694 -18.424 -20.985  0.00  0.00    -0.081 NA
ATOM     11  C   UNL     1      35.369 -18.463 -21.102  0.00  0.00    +0.100 A 
ATOM     12  C   UNL     1      34.804 -19.633 -20.573  0.00  0.00    +0.054 A 
ATOM     13  C   UNL     1      35.903 -20.333 -20.109  0.00  0.00    +0.179 A 
ATOM     14  C   UNL     1      33.526 -20.192 -20.424  0.00  0.00    +0.007 C 
ATOM     15  C   UNL     1      35.836 -21.578 -19.490  0.00  0.00    +0.070 C 
ATOM     16  C   UNL     1      33.421 -21.446 -19.806  0.00  0.00    +0.030 C 
ATOM     17  C   UNL     1      34.556 -22.125 -19.349  0.00  0.00    +0.143 C 
ENDBRANCH   2  11
BRANCH   1  18
ATOM     18  C   UNL     1      33.913 -13.555 -23.735  0.00  0.00    -0.076 C 
BRANCH  18  19
ATOM     19  C   UNL     1      32.750 -13.076 -22.878  0.00  0.00    -0.007 C 
BRANCH  19  23
ATOM     20  O   UNL     1      34.751 -11.535 -24.024  0.00  0.00    -0.274 OA
ATOM     21  N   UNL     1      33.992  -9.505 -23.149  0.00  0.00    -0.211 N 
ATOM     22  N   UNL     1      32.013  -9.482 -21.836  0.00  0.00    -0.395 NA
ATOM     23  C   UNL     1      32.792 -11.586 -22.704  0.00  0.00    +0.123 C 
ATOM     24  C   UNL     1      31.915 -10.841 -22.003  0.00  0.00    +0.097 C 
ATOM     25  C   UNL     1      33.943 -10.887 -23.359  0.00  0.00    +0.241 C 
ATOM     26  C   UNL     1      33.011  -8.860 -22.386  0.00  0.00    +0.188 C 
ATOM     27  C   UNL     1      30.698 -11.425 -21.334  0.00  0.00    +0.062 C 
ATOM     28  C   UNL     1      33.142  -7.369 -22.215  0.00  0.00    +0.023 C 
ATOM     29  C   UNL     1      35.035  -8.783 -23.717  0.00  0.00    +0.074 C 
ATOM     30  C   UNL     1      34.177  -6.742 -22.793  0.00  0.00    +0.001 C 
ATOM     31  C   UNL     1      35.150  -7.461 -23.564  0.00  0.00    +0.016 C 
ATOM     32  C   UNL     1      32.107  -6.653 -21.403  0.00  0.00    +0.035 C 
ENDBRANCH  19  23
ENDBRANCH  18  19
ENDBRANCH   1  18
TORSDOF 4
ENDMDL
MODEL 8
REMARK VINA RESULT:     -12.0      7.065     14.055
REMARK  Name = 71351
REMARK  4 active torsions:
REMARK  status: ('A' for Active; 'I' for Inactive)
REMARK    1  A    between atoms: N_1  and  C_18
REMARK    2  A    between atoms: C_2  and  C_11
REMARK    3  A    between atoms: C_18  and  C_19
REMARK    4  A    between atoms: C_19  and  C_23
REMARK                            x       y       z     vdW  Elec       q    Type
REMARK                         _______ _______ _______ _____ _____    ______ ____
ROOT
ATOM      1  N   UNL     1      32.319 -10.433 -22.768  0.00  0.00    +0.387 N 
ATOM      2  C   UNL     1      33.535 -13.082 -23.098  0.00  0.00    +0.039 C 
ATOM      3  C   UNL     1      33.918 -11.882 -23.981  0.00  0.00    -0.017 C 
ATOM      4  C   UNL     1      32.114 -12.889 -22.543  0.00  0.00    -0.017 C 
ATOM      5  C   UNL     1      33.704 -10.559 -23.241  0.00  0.00    -0.077 C 
ATOM      6  C   UNL     1      31.967 -11.529 -21.856  0.00  0.00    -0.077 C 
ATOM      7  H   UNL     1      31.703 -10.489 -23.580  0.00  0.00    -0.080 HD
ENDROOT
BRANCH   2  11
ATOM      8  F   UNL     1      35.637 -19.469 -22.998  0.00  0.00    -0.204 F 
ATOM      9  O   UNL     1      33.596 -15.844 -25.412  0.00  0.00    -0.354 OA
ATOM     10  N   UNL     1      33.296 -14.532 -25.065  0.00  0.00    -0.081 NA
ATOM     11  C   UNL     1      33.709 -14.406 -23.806  0.00  0.00    +0.100 A 
ATOM     12  C   UNL     1      34.275 -15.583 -23.293  0.00  0.00    +0.054 A 
ATOM     13  C   UNL     1      34.179 -16.469 -24.352  0.00  0.00    +0.179 A 
ATOM     14  C   UNL     1      34.850 -16.019 -22.090  0.00  0.00    +0.007 C 
ATOM     15  C   UNL     1      34.620 -17.788 -24.314  0.00  0.00    +0.070 C 
ATOM     16  C   UNL     1      35.305 -17.343 -22.015  0.00  0.00    +0.030 C 
ATOM     17  C   UNL     1      35.190 -18.210 -23.108  0.00  0.00    +0.143 C 
ENDBRANCH   2  11
BRANCH   1  18
ATOM     18  C   UNL     1      32.117  -9.139 -22.115  0.00  0.00    -0.076 C 
BRANCH  18  19
ATOM     19  C   UNL     1      33.384  -8.302 -22.224  0.00  0.00    -0.007 C 
BRANCH  19  23
ATOM     20  O   UNL     1      32.404  -6.315 -20.553  0.00  0.00    -0.274 OA
ATOM     21  N   UNL     1      32.202  -4.700 -22.230  0.00  0.00    -0.211 N 
ATOM     22  N   UNL     1      32.881  -5.240 -24.441  0.00  0.00    -0.395 NA
ATOM     23  C   UNL     1      33.073  -6.926 -22.736  0.00  0.00    +0.123 C 
ATOM     24  C   UNL     1      33.215  -6.498 -24.005  0.00  0.00    +0.097 C 
ATOM     25  C   UNL     1      32.529  -5.963 -21.726  0.00  0.00    +0.241 C 
ATOM     26  C   UNL     1      32.396  -4.395 -23.582  0.00  0.00    +0.188 C 
ATOM     27  C   UNL     1      33.788  -7.361 -25.099  0.00  0.00    +0.062 C 
ATOM     28  C   UNL     1      32.019  -3.009 -24.036  0.00  0.00    +0.023 C 
ATOM     29  C   UNL     1      31.681  -3.750 -21.358  0.00  0.00    +0.074 C 
ATOM     30  C   UNL     1      31.523  -2.148 -23.136  0.00  0.00    +0.001 C 
ATOM     31  C   UNL     1      31.348  -2.522 -21.762  0.00  0.00    +0.016 C 
ATOM     32  C   UNL     1      32.215  -2.655 -25.478  0.00  0.00    +0.035 C 
ENDBRANCH  19  23
ENDBRANCH  18  19
ENDBRANCH   1  18
TORSDOF 4
ENDMDL
MODEL 9
REMARK VINA RESULT:     -12.0      5.744      9.751
REMARK  Name = 71351
REMARK  4 active torsions:
REMARK  status: ('A' for Active; 'I' for Inactive)
REMARK    1  A    between atoms: N_1  and  C_18
REMARK    2  A    between atoms: C_2  and  C_11
REMARK    3  A    between atoms: C_18  and  C_19
REMARK    4  A    between atoms: C_19  and  C_23
REMARK                            x       y       z     vdW  Elec       q    Type
REMARK                         _______ _______ _______ _____ _____    ______ ____
ROOT
ATOM      1  N   UNL     1      32.513 -11.848 -22.442  0.00  0.00    +0.387 N 
ATOM      2  C   UNL     1      31.877  -8.985 -22.395  0.00  0.00    +0.039 C 
ATOM      3  C   UNL     1      33.159  -9.535 -23.042  0.00  0.00    -0.017 C 
ATOM      4  C   UNL     1      31.378  -9.959 -21.315  0.00  0.00    -0.017 C 
ATOM      5  C   UNL     1      32.960 -10.972 -23.532  0.00  0.00    -0.077 C 
ATOM      6  C   UNL     1      31.244 -11.380 -21.870  0.00  0.00    -0.077 C 
ATOM      7  H   UNL     1      33.219 -11.820 -21.706  0.00  0.00    -0.080 HD
ENDROOT
BRANCH   2  11
ATOM      8  F   UNL     1      31.498  -2.350 -23.423  0.00  0.00    -0.204 F 
ATOM      9  O   UNL     1      32.508  -6.006 -20.467  0.00  0.00    -0.354 OA
ATOM     10  N   UNL     1      32.462  -7.386 -20.625  0.00  0.00    -0.081 NA
ATOM     11  C   UNL     1      32.045  -7.575 -21.875  0.00  0.00    +0.100 A 
ATOM     12  C   UNL     1      31.808  -6.375 -22.563  0.00  0.00    +0.054 A 
ATOM     13  C   UNL     1      32.117  -5.406 -21.624  0.00  0.00    +0.179 A 
ATOM     14  C   UNL     1      31.381  -5.978 -23.838  0.00  0.00    +0.007 C 
ATOM     15  C   UNL     1      32.033  -4.036 -21.854  0.00  0.00    +0.070 C 
ATOM     16  C   UNL     1      31.283  -4.605 -24.105  0.00  0.00    +0.030 C 
ATOM     17  C   UNL     1      31.604  -3.654 -23.130  0.00  0.00    +0.143 C 
ENDBRANCH   2  11
BRANCH   1  18
ATOM     18  C   UNL     1      32.384 -13.227 -22.914  0.00  0.00    -0.076 C 
BRANCH  18  19
ATOM     19  C   UNL     1      33.638 -13.633 -23.676  0.00  0.00    -0.007 C 
BRANCH  19  23
ATOM     20  O   UNL     1      33.476 -15.826 -25.367  0.00  0.00    -0.274 OA
ATOM     21  N   UNL     1      34.337 -17.355 -23.824  0.00  0.00    -0.211 N 
ATOM     22  N   UNL     1      35.015 -16.579 -21.684  0.00  0.00    -0.395 NA
ATOM     23  C   UNL     1      34.107 -14.992 -23.247  0.00  0.00    +0.123 C 
ATOM     24  C   UNL     1      34.635 -15.312 -22.050  0.00  0.00    +0.097 C 
ATOM     25  C   UNL     1      33.937 -16.087 -24.256  0.00  0.00    +0.241 C 
ATOM     26  C   UNL     1      34.864 -17.543 -22.541  0.00  0.00    +0.188 C 
ATOM     27  C   UNL     1      34.891 -14.292 -20.971  0.00  0.00    +0.062 C 
ATOM     28  C   UNL     1      35.272 -18.943 -22.162  0.00  0.00    +0.023 C 
ATOM     29  C   UNL     1      34.203 -18.428 -24.698  0.00  0.00    +0.074 C 
ATOM     30  C   UNL     1      35.112 -19.927 -23.060  0.00  0.00    +0.001 C 
ATOM     31  C   UNL     1      34.565 -19.669 -24.361  0.00  0.00    +0.016 C 
ATOM     32  C   UNL     1      35.838 -19.174 -20.795  0.00  0.00    +0.035 C 
ENDBRANCH  19  23
ENDBRANCH  18  19
ENDBRANCH   1  18
TORSDOF 4
ENDMDL
