MODEL 1
REMARK VINA RESULT:     -12.3      0.000      0.000
REMARK  Name = 11961293
REMARK  7 active torsions:
REMARK  status: ('A' for Active; 'I' for Inactive)
REMARK    1  A    between atoms: C_1  and  C_3
REMARK    2  A    between atoms: C_1  and  N_21
REMARK    3  A    between atoms: N_2  and  C_9
REMARK    4  A    between atoms: C_9  and  C_12
REMARK    5  A    between atoms: C_17  and  O_18
REMARK    6  A    between atoms: C_22  and  C_26
REMARK    7  A    between atoms: C_30  and  C_35
REMARK                            x       y       z     vdW  Elec       q    Type
REMARK                         _______ _______ _______ _____ _____    ______ ____
ROOT
ATOM      1  C   UNL     1      36.298 -17.269 -21.692  0.00  0.00    +0.089 C 
ENDROOT
BRANCH   1   3
ATOM      2  N   UNL     1      35.344 -20.334 -18.802  0.00  0.00    +0.387 N 
ATOM      3  C   UNL     1      35.945 -18.637 -21.117  0.00  0.00    +0.015 C 
ATOM      4  C   UNL     1      34.277 -19.942 -19.733  0.00  0.00    -0.077 C 
ATOM      5  C   UNL     1      36.635 -20.449 -19.493  0.00  0.00    -0.077 C 
ATOM      6  C   UNL     1      34.591 -18.601 -20.399  0.00  0.00    -0.021 C 
ATOM      7  C   UNL     1      37.029 -19.124 -20.150  0.00  0.00    -0.021 C 
ATOM      8  H   UNL     1      35.430 -19.603 -18.096  0.00  0.00    -0.080 HD
BRANCH   2   9
ATOM      9  C   UNL     1      35.006 -21.592 -18.136  0.00  0.00    -0.077 C 
BRANCH   9  12
ATOM     10  O   UNL     1      38.827 -23.659 -13.668  0.00  0.00    -0.226 OA
ATOM     11  N   UNL     1      36.817 -22.759 -14.413  0.00  0.00    -0.246 N 
ATOM     12  C   UNL     1      35.454 -21.572 -16.676  0.00  0.00    -0.017 C 
ATOM     13  C   UNL     1      36.987 -21.591 -16.574  0.00  0.00    +0.020 C 
ATOM     14  C   UNL     1      34.856 -22.760 -15.906  0.00  0.00    +0.020 C 
ATOM     15  C   UNL     1      37.444 -21.642 -15.119  0.00  0.00    +0.097 C 
ATOM     16  C   UNL     1      35.352 -22.790 -14.461  0.00  0.00    +0.097 C 
ATOM     17  C   UNL     1      37.598 -23.682 -13.712  0.00  0.00    +0.405 C 
BRANCH  17  18
ATOM     18  O   UNL     1      36.845 -24.627 -13.066  0.00  0.00    -0.430 OA
ATOM     19  C   UNL     1      37.555 -25.770 -12.573  0.00  0.00    +0.257 C 
ENDBRANCH  17  18
ENDBRANCH   9  12
ENDBRANCH   2   9
ENDBRANCH   1   3
BRANCH   1  21
ATOM     20  O   UNL     1      35.779 -14.734 -22.937  0.00  0.00    -0.270 OA
ATOM     21  N   UNL     1      35.355 -16.256 -21.241  0.00  0.00    -0.301 N 
ATOM     22  C   UNL     1      35.180 -15.065 -21.916  0.00  0.00    +0.247 C 
ATOM     23  H   UNL     1      34.825 -16.427 -20.429  0.00  0.00    +0.150 HD
BRANCH  22  26
ATOM     24  N   UNL     1      32.945 -10.840 -22.123  0.00  0.00    -0.318 N 
ATOM     25  N   UNL     1      34.412 -12.256 -23.007  0.00  0.00    -0.318 N 
ATOM     26  C   UNL     1      34.200 -14.125 -21.313  0.00  0.00    +0.068 C 
ATOM     27  C   UNL     1      33.927 -12.882 -21.888  0.00  0.00    +0.063 C 
ATOM     28  C   UNL     1      33.504 -14.445 -20.144  0.00  0.00    +0.006 C 
ATOM     29  C   UNL     1      33.012 -11.979 -21.354  0.00  0.00    +0.059 C 
ATOM     30  C   UNL     1      33.796 -11.040 -23.104  0.00  0.00    +0.144 C 
ATOM     31  C   UNL     1      32.580 -13.558 -19.584  0.00  0.00    +0.001 C 
ATOM     32  C   UNL     1      32.322 -12.316 -20.178  0.00  0.00    +0.016 C 
ATOM     33  H   UNL     1      32.382 -10.047 -21.971  0.00  0.00    +0.148 HD
ATOM     34  H   UNL     1      35.084 -12.618 -23.629  0.00  0.00    +0.148 HD
BRANCH  30  35
ATOM     35  C   UNL     1      34.025 -10.042 -24.165  0.00  0.00    +0.037 C 
ATOM     36  C   UNL     1      35.222  -9.105 -23.874  0.00  0.00    +0.003 C 
ATOM     37  C   UNL     1      34.199 -10.670 -25.569  0.00  0.00    +0.003 C 
ENDBRANCH  30  35
ENDBRANCH  22  26
ENDBRANCH   1  21
TORSDOF 7
ENDMDL
MODEL 2
REMARK VINA RESULT:     -12.1      2.825      5.401
REMARK  Name = 11961293
REMARK  7 active torsions:
REMARK  status: ('A' for Active; 'I' for Inactive)
REMARK    1  A    between atoms: C_1  and  C_3
REMARK    2  A    between atoms: C_1  and  N_21
REMARK    3  A    between atoms: N_2  and  C_9
REMARK    4  A    between atoms: C_9  and  C_12
REMARK    5  A    between atoms: C_17  and  O_18
REMARK    6  A    between atoms: C_22  and  C_26
REMARK    7  A    between atoms: C_30  and  C_35
REMARK                            x       y       z     vdW  Elec       q    Type
REMARK                         _______ _______ _______ _____ _____    ______ ____
ROOT
ATOM      1  C   UNL     1      33.598 -13.717 -23.871  0.00  0.00    +0.089 C 
ENDROOT
BRANCH   1   3
ATOM      2  N   UNL     1      35.279 -16.838 -21.404  0.00  0.00    +0.387 N 
ATOM      3  C   UNL     1      34.630 -14.543 -23.109  0.00  0.00    +0.015 C 
ATOM      4  C   UNL     1      35.653 -16.839 -22.824  0.00  0.00    -0.077 C 
ATOM      5  C   UNL     1      35.290 -15.476 -20.854  0.00  0.00    -0.077 C 
ATOM      6  C   UNL     1      34.694 -15.977 -23.648  0.00  0.00    -0.021 C 
ATOM      7  C   UNL     1      34.317 -14.568 -21.610  0.00  0.00    -0.021 C 
ATOM      8  H   UNL     1      34.329 -17.200 -21.328  0.00  0.00    -0.080 HD
BRANCH   2   9
ATOM      9  C   UNL     1      36.174 -17.706 -20.638  0.00  0.00    -0.077 C 
BRANCH   9  12
ATOM     10  O   UNL     1      32.437 -21.690 -17.639  0.00  0.00    -0.226 OA
ATOM     11  N   UNL     1      34.279 -21.185 -18.963  0.00  0.00    -0.246 N 
ATOM     12  C   UNL     1      35.586 -19.109 -20.502  0.00  0.00    -0.017 C 
ATOM     13  C   UNL     1      34.089 -19.044 -20.164  0.00  0.00    +0.020 C 
ATOM     14  C   UNL     1      36.338 -19.914 -19.430  0.00  0.00    +0.020 C 
ATOM     15  C   UNL     1      33.508 -20.440 -19.957  0.00  0.00    +0.097 C 
ATOM     16  C   UNL     1      35.716 -21.295 -19.236  0.00  0.00    +0.097 C 
ATOM     17  C   UNL     1      33.641 -21.779 -17.870  0.00  0.00    +0.405 C 
BRANCH  17  18
ATOM     18  O   UNL     1      34.506 -22.482 -17.073  0.00  0.00    -0.430 OA
ATOM     19  C   UNL     1      34.024 -22.822 -15.766  0.00  0.00    +0.257 C 
ENDBRANCH  17  18
ENDBRANCH   9  12
ENDBRANCH   2   9
ENDBRANCH   1   3
BRANCH   1  21
ATOM     20  O   UNL     1      33.056 -11.412 -22.248  0.00  0.00    -0.270 OA
ATOM     21  N   UNL     1      34.079 -12.363 -24.097  0.00  0.00    -0.301 N 
ATOM     22  C   UNL     1      33.759 -11.320 -23.251  0.00  0.00    +0.247 C 
ATOM     23  H   UNL     1      34.653 -12.185 -24.878  0.00  0.00    +0.150 HD
BRANCH  22  26
ATOM     24  N   UNL     1      33.828  -6.591 -22.530  0.00  0.00    -0.318 N 
ATOM     25  N   UNL     1      33.015  -8.583 -21.976  0.00  0.00    -0.318 N 
ATOM     26  C   UNL     1      34.307  -9.993 -23.633  0.00  0.00    +0.068 C 
ATOM     27  C   UNL     1      33.904  -8.821 -22.992  0.00  0.00    +0.063 C 
ATOM     28  C   UNL     1      35.256  -9.859 -24.652  0.00  0.00    +0.006 C 
ATOM     29  C   UNL     1      34.399  -7.562 -23.321  0.00  0.00    +0.059 C 
ATOM     30  C   UNL     1      33.004  -7.238 -21.736  0.00  0.00    +0.144 C 
ATOM     31  C   UNL     1      35.770  -8.609 -25.004  0.00  0.00    +0.001 C 
ATOM     32  C   UNL     1      35.351  -7.446 -24.347  0.00  0.00    +0.016 C 
ATOM     33  H   UNL     1      33.999  -5.622 -22.554  0.00  0.00    +0.148 HD
ATOM     34  H   UNL     1      32.480  -9.262 -21.503  0.00  0.00    +0.148 HD
BRANCH  30  35
ATOM     35  C   UNL     1      32.187  -6.551 -20.720  0.00  0.00    +0.037 C 
ATOM     36  C   UNL     1      32.804  -6.603 -19.301  0.00  0.00    +0.003 C 
ATOM     37  C   UNL     1      31.869  -5.079 -21.083  0.00  0.00    +0.003 C 
ENDBRANCH  30  35
ENDBRANCH  22  26
ENDBRANCH   1  21
TORSDOF 7
ENDMDL
MODEL 3
REMARK VINA RESULT:     -12.0      2.786      4.452
REMARK  Name = 11961293
REMARK  7 active torsions:
REMARK  status: ('A' for Active; 'I' for Inactive)
REMARK    1  A    between atoms: C_1  and  C_3
REMARK    2  A    between atoms: C_1  and  N_21
REMARK    3  A    between atoms: N_2  and  C_9
REMARK    4  A    between atoms: C_9  and  C_12
REMARK    5  A    between atoms: C_17  and  O_18
REMARK    6  A    between atoms: C_22  and  C_26
REMARK    7  A    between atoms: C_30  and  C_35
REMARK                            x       y       z     vdW  Elec       q    Type
REMARK                         _______ _______ _______ _____ _____    ______ ____
ROOT
ATOM      1  C   UNL     1      34.220 -14.154 -23.396  0.00  0.00    +0.089 C 
ENDROOT
BRANCH   1   3
ATOM      2  N   UNL     1      35.479 -17.590 -21.101  0.00  0.00    +0.387 N 
ATOM      3  C   UNL     1      35.135 -15.141 -22.677  0.00  0.00    +0.015 C 
ATOM      4  C   UNL     1      35.866 -17.558 -22.517  0.00  0.00    -0.077 C 
ATOM      5  C   UNL     1      35.649 -16.272 -20.474  0.00  0.00    -0.077 C 
ATOM      6  C   UNL     1      35.029 -16.540 -23.295  0.00  0.00    -0.021 C 
ATOM      7  C   UNL     1      34.804 -15.211 -21.183  0.00  0.00    -0.021 C 
ATOM      8  H   UNL     1      34.490 -17.836 -21.050  0.00  0.00    -0.080 HD
BRANCH   2   9
ATOM      9  C   UNL     1      36.252 -18.602 -20.381  0.00  0.00    -0.077 C 
BRANCH   9  12
ATOM     10  O   UNL     1      31.847 -21.643 -17.190  0.00  0.00    -0.226 OA
ATOM     11  N   UNL     1      33.757 -21.566 -18.512  0.00  0.00    -0.246 N 
ATOM     12  C   UNL     1      35.423 -19.866 -20.162  0.00  0.00    -0.017 C 
ATOM     13  C   UNL     1      33.959 -19.513 -19.856  0.00  0.00    +0.020 C 
ATOM     14  C   UNL     1      36.013 -20.715 -19.025  0.00  0.00    +0.020 C 
ATOM     15  C   UNL     1      33.137 -20.766 -19.567  0.00  0.00    +0.097 C 
ATOM     16  C   UNL     1      35.154 -21.948 -18.750  0.00  0.00    +0.097 C 
ATOM     17  C   UNL     1      33.018 -21.960 -17.393  0.00  0.00    +0.405 C 
BRANCH  17  18
ATOM     18  O   UNL     1      33.738 -22.748 -16.535  0.00  0.00    -0.430 OA
ATOM     19  C   UNL     1      33.364 -22.682 -15.153  0.00  0.00    +0.257 C 
ENDBRANCH  17  18
ENDBRANCH   9  12
ENDBRANCH   2   9
ENDBRANCH   1   3
BRANCH   1  21
ATOM     20  O   UNL     1      33.961 -11.296 -23.493  0.00  0.00    -0.270 OA
ATOM     21  N   UNL     1      33.511 -13.313 -22.443  0.00  0.00    -0.301 N 
ATOM     22  C   UNL     1      33.446 -11.941 -22.583  0.00  0.00    +0.247 C 
ATOM     23  H   UNL     1      33.063 -13.736 -21.675  0.00  0.00    +0.150 HD
BRANCH  22  26
ATOM     24  N   UNL     1      31.804  -7.790 -20.863  0.00  0.00    -0.318 N 
ATOM     25  N   UNL     1      32.911  -8.881 -22.451  0.00  0.00    -0.318 N 
ATOM     26  C   UNL     1      32.707 -11.223 -21.513  0.00  0.00    +0.068 C 
ATOM     27  C   UNL     1      32.522  -9.839 -21.552  0.00  0.00    +0.063 C 
ATOM     28  C   UNL     1      32.160 -11.901 -20.419  0.00  0.00    +0.006 C 
ATOM     29  C   UNL     1      31.832  -9.134 -20.570  0.00  0.00    +0.059 C 
ATOM     30  C   UNL     1      32.459  -7.674 -21.996  0.00  0.00    +0.144 C 
ATOM     31  C   UNL     1      31.463 -11.220 -19.418  0.00  0.00    +0.001 C 
ATOM     32  C   UNL     1      31.289  -9.831 -19.478  0.00  0.00    +0.016 C 
ATOM     33  H   UNL     1      31.384  -7.071 -20.338  0.00  0.00    +0.148 HD
ATOM     34  H   UNL     1      33.425  -9.035 -23.277  0.00  0.00    +0.148 HD
BRANCH  30  35
ATOM     35  C   UNL     1      32.658  -6.374 -22.662  0.00  0.00    +0.037 C 
ATOM     36  C   UNL     1      31.980  -6.289 -24.052  0.00  0.00    +0.003 C 
ATOM     37  C   UNL     1      32.204  -5.170 -21.801  0.00  0.00    +0.003 C 
ENDBRANCH  30  35
ENDBRANCH  22  26
ENDBRANCH   1  21
TORSDOF 7
ENDMDL
MODEL 4
REMARK VINA RESULT:     -11.8      2.056     12.146
REMARK  Name = 11961293
REMARK  7 active torsions:
REMARK  status: ('A' for Active; 'I' for Inactive)
REMARK    1  A    between atoms: C_1  and  C_3
REMARK    2  A    between atoms: C_1  and  N_21
REMARK    3  A    between atoms: N_2  and  C_9
REMARK    4  A    between atoms: C_9  and  C_12
REMARK    5  A    between atoms: C_17  and  O_18
REMARK    6  A    between atoms: C_22  and  C_26
REMARK    7  A    between atoms: C_30  and  C_35
REMARK                            x       y       z     vdW  Elec       q    Type
REMARK                         _______ _______ _______ _____ _____    ______ ____
ROOT
ATOM      1  C   UNL     1      34.363 -22.037 -19.009  0.00  0.00    +0.089 C 
ENDROOT
BRANCH   1   3
ATOM      2  N   UNL     1      35.802 -18.418 -20.876  0.00  0.00    +0.387 N 
ATOM      3  C   UNL     1      34.811 -20.587 -19.171  0.00  0.00    +0.015 C 
ATOM      4  C   UNL     1      34.411 -18.415 -20.404  0.00  0.00    -0.077 C 
ATOM      5  C   UNL     1      36.691 -19.063 -19.901  0.00  0.00    -0.077 C 
ATOM      6  C   UNL     1      33.909 -19.840 -20.160  0.00  0.00    -0.021 C 
ATOM      7  C   UNL     1      36.267 -20.510 -19.640  0.00  0.00    -0.021 C 
ATOM      8  H   UNL     1      35.841 -18.957 -21.741  0.00  0.00    -0.080 HD
BRANCH   2   9
ATOM      9  C   UNL     1      36.251 -17.054 -21.154  0.00  0.00    -0.077 C 
BRANCH   9  12
ATOM     10  O   UNL     1      34.186 -12.286 -24.595  0.00  0.00    -0.226 OA
ATOM     11  N   UNL     1      34.044 -13.745 -22.791  0.00  0.00    -0.246 N 
ATOM     12  C   UNL     1      35.091 -16.186 -21.636  0.00  0.00    -0.017 C 
ATOM     13  C   UNL     1      35.225 -15.878 -23.136  0.00  0.00    +0.020 C 
ATOM     14  C   UNL     1      35.015 -14.879 -20.831  0.00  0.00    +0.020 C 
ATOM     15  C   UNL     1      34.109 -14.953 -23.612  0.00  0.00    +0.097 C 
ATOM     16  C   UNL     1      33.901 -13.972 -21.349  0.00  0.00    +0.097 C 
ATOM     17  C   UNL     1      34.068 -12.481 -23.387  0.00  0.00    +0.405 C 
BRANCH  17  18
ATOM     18  O   UNL     1      33.943 -11.466 -22.476  0.00  0.00    -0.430 OA
ATOM     19  C   UNL     1      33.512 -10.201 -22.994  0.00  0.00    +0.257 C 
ENDBRANCH  17  18
ENDBRANCH   9  12
ENDBRANCH   2   9
ENDBRANCH   1   3
BRANCH   1  21
ATOM     20  O   UNL     1      35.863 -22.346 -16.580  0.00  0.00    -0.270 OA
ATOM     21  N   UNL     1      33.823 -22.269 -17.678  0.00  0.00    -0.301 N 
ATOM     22  C   UNL     1      34.636 -22.404 -16.570  0.00  0.00    +0.247 C 
ATOM     23  H   UNL     1      32.847 -22.331 -17.563  0.00  0.00    +0.150 HD
BRANCH  22  26
ATOM     24  N   UNL     1      34.851 -24.024 -12.074  0.00  0.00    -0.318 N 
ATOM     25  N   UNL     1      35.884 -23.635 -14.002  0.00  0.00    -0.318 N 
ATOM     26  C   UNL     1      33.933 -22.662 -15.287  0.00  0.00    +0.068 C 
ATOM     27  C   UNL     1      34.591 -23.220 -14.189  0.00  0.00    +0.063 C 
ATOM     28  C   UNL     1      32.579 -22.355 -15.119  0.00  0.00    +0.006 C 
ATOM     29  C   UNL     1      33.966 -23.473 -12.972  0.00  0.00    +0.059 C 
ATOM     30  C   UNL     1      35.990 -24.107 -12.724  0.00  0.00    +0.144 C 
ATOM     31  C   UNL     1      31.925 -22.597 -13.909  0.00  0.00    +0.001 C 
ATOM     32  C   UNL     1      32.605 -23.158 -12.821  0.00  0.00    +0.016 C 
ATOM     33  H   UNL     1      34.670 -24.297 -11.145  0.00  0.00    +0.148 HD
ATOM     34  H   UNL     1      36.608 -23.598 -14.670  0.00  0.00    +0.148 HD
BRANCH  30  35
ATOM     35  C   UNL     1      37.213 -24.650 -12.105  0.00  0.00    +0.037 C 
ATOM     36  C   UNL     1      38.010 -25.585 -13.046  0.00  0.00    +0.003 C 
ATOM     37  C   UNL     1      38.159 -23.555 -11.554  0.00  0.00    +0.003 C 
ENDBRANCH  30  35
ENDBRANCH  22  26
ENDBRANCH   1  21
TORSDOF 7
ENDMDL
MODEL 5
REMARK VINA RESULT:     -11.6      2.203      2.792
REMARK  Name = 11961293
REMARK  7 active torsions:
REMARK  status: ('A' for Active; 'I' for Inactive)
REMARK    1  A    between atoms: C_1  and  C_3
REMARK    2  A    between atoms: C_1  and  N_21
REMARK    3  A    between atoms: N_2  and  C_9
REMARK    4  A    between atoms: C_9  and  C_12
REMARK    5  A    between atoms: C_17  and  O_18
REMARK    6  A    between atoms: C_22  and  C_26
REMARK    7  A    between atoms: C_30  and  C_35
REMARK                            x       y       z     vdW  Elec       q    Type
REMARK                         _______ _______ _______ _____ _____    ______ ____
ROOT
ATOM      1  C   UNL     1      36.248 -17.496 -21.259  0.00  0.00    +0.089 C 
ENDROOT
BRANCH   1   3
ATOM      2  N   UNL     1      34.651 -20.698 -18.841  0.00  0.00    +0.387 N 
ATOM      3  C   UNL     1      35.708 -18.870 -20.875  0.00  0.00    +0.015 C 
ATOM      4  C   UNL     1      33.761 -20.128 -19.860  0.00  0.00    -0.077 C 
ATOM      5  C   UNL     1      36.012 -20.874 -19.364  0.00  0.00    -0.077 C 
ATOM      6  C   UNL     1      34.274 -18.768 -20.342  0.00  0.00    -0.021 C 
ATOM      7  C   UNL     1      36.602 -19.540 -19.827  0.00  0.00    -0.021 C 
ATOM      8  H   UNL     1      34.696 -20.043 -18.060  0.00  0.00    -0.080 HD
BRANCH   2   9
ATOM      9  C   UNL     1      34.121 -21.972 -18.354  0.00  0.00    -0.077 C 
BRANCH   9  12
ATOM     10  O   UNL     1      32.467 -24.596 -12.949  0.00  0.00    -0.226 OA
ATOM     11  N   UNL     1      32.335 -22.925 -14.559  0.00  0.00    -0.246 N 
ATOM     12  C   UNL     1      33.575 -21.828 -16.935  0.00  0.00    -0.017 C 
ATOM     13  C   UNL     1      34.352 -22.723 -15.957  0.00  0.00    +0.020 C 
ATOM     14  C   UNL     1      32.077 -22.167 -16.890  0.00  0.00    +0.020 C 
ATOM     15  C   UNL     1      33.769 -22.639 -14.549  0.00  0.00    +0.097 C 
ATOM     16  C   UNL     1      31.534 -22.093 -15.464  0.00  0.00    +0.097 C 
ATOM     17  C   UNL     1      31.800 -23.898 -13.710  0.00  0.00    +0.405 C 
BRANCH  17  18
ATOM     18  O   UNL     1      30.437 -23.995 -13.811  0.00  0.00    -0.430 OA
ATOM     19  C   UNL     1      29.934 -25.164 -14.469  0.00  0.00    +0.257 C 
ENDBRANCH  17  18
ENDBRANCH   9  12
ENDBRANCH   2   9
ENDBRANCH   1   3
BRANCH   1  21
ATOM     20  O   UNL     1      35.805 -15.027 -22.655  0.00  0.00    -0.270 OA
ATOM     21  N   UNL     1      35.310 -16.446 -20.891  0.00  0.00    -0.301 N 
ATOM     22  C   UNL     1      35.173 -15.291 -21.635  0.00  0.00    +0.247 C 
ATOM     23  H   UNL     1      34.755 -16.564 -20.086  0.00  0.00    +0.150 HD
BRANCH  22  26
ATOM     24  N   UNL     1      32.943 -11.095 -22.186  0.00  0.00    -0.318 N 
ATOM     25  N   UNL     1      34.411 -12.579 -22.950  0.00  0.00    -0.318 N 
ATOM     26  C   UNL     1      34.193 -14.306 -21.112  0.00  0.00    +0.068 C 
ATOM     27  C   UNL     1      33.922 -13.113 -21.785  0.00  0.00    +0.063 C 
ATOM     28  C   UNL     1      33.492 -14.530 -19.923  0.00  0.00    +0.006 C 
ATOM     29  C   UNL     1      33.007 -12.168 -21.328  0.00  0.00    +0.059 C 
ATOM     30  C   UNL     1      33.797 -11.374 -23.146  0.00  0.00    +0.144 C 
ATOM     31  C   UNL     1      32.568 -13.600 -19.439  0.00  0.00    +0.001 C 
ATOM     32  C   UNL     1      32.313 -12.410 -20.131  0.00  0.00    +0.016 C 
ATOM     33  H   UNL     1      32.380 -10.292 -22.100  0.00  0.00    +0.148 HD
ATOM     34  H   UNL     1      35.085 -12.990 -23.539  0.00  0.00    +0.148 HD
BRANCH  30  35
ATOM     35  C   UNL     1      34.029 -10.464 -24.282  0.00  0.00    +0.037 C 
ATOM     36  C   UNL     1      35.304  -9.599 -24.122  0.00  0.00    +0.003 C 
ATOM     37  C   UNL     1      34.077 -11.191 -25.649  0.00  0.00    +0.003 C 
ENDBRANCH  30  35
ENDBRANCH  22  26
ENDBRANCH   1  21
TORSDOF 7
ENDMDL
MODEL 6
REMARK VINA RESULT:     -11.4      2.160     11.815
REMARK  Name = 11961293
REMARK  7 active torsions:
REMARK  status: ('A' for Active; 'I' for Inactive)
REMARK    1  A    between atoms: C_1  and  C_3
REMARK    2  A    between atoms: C_1  and  N_21
REMARK    3  A    between atoms: N_2  and  C_9
REMARK    4  A    between atoms: C_9  and  C_12
REMARK    5  A    between atoms: C_17  and  O_18
REMARK    6  A    between atoms: C_22  and  C_26
REMARK    7  A    between atoms: C_30  and  C_35
REMARK                            x       y       z     vdW  Elec       q    Type
REMARK                         _______ _______ _______ _____ _____    ______ ____
ROOT
ATOM      1  C   UNL     1      37.021 -20.657 -18.812  0.00  0.00    +0.089 C 
ENDROOT
BRANCH   1   3
ATOM      2  N   UNL     1      35.587 -17.513 -21.404  0.00  0.00    +0.387 N 
ATOM      3  C   UNL     1      36.573 -19.937 -20.081  0.00  0.00    +0.015 C 
ATOM      4  C   UNL     1      36.976 -17.950 -21.594  0.00  0.00    -0.077 C 
ATOM      5  C   UNL     1      34.695 -18.661 -21.193  0.00  0.00    -0.077 C 
ATOM      6  C   UNL     1      37.478 -18.736 -20.381  0.00  0.00    -0.021 C 
ATOM      7  C   UNL     1      35.118 -19.470 -19.965  0.00  0.00    -0.021 C 
ATOM      8  H   UNL     1      35.552 -16.930 -20.569  0.00  0.00    -0.080 HD
BRANCH   2   9
ATOM      9  C   UNL     1      35.139 -16.720 -22.549  0.00  0.00    -0.077 C 
BRANCH   9  12
ATOM     10  O   UNL     1      32.487 -11.984 -19.487  0.00  0.00    -0.226 OA
ATOM     11  N   UNL     1      33.732 -12.873 -21.237  0.00  0.00    -0.246 N 
ATOM     12  C   UNL     1      35.106 -15.234 -22.201  0.00  0.00    -0.017 C 
ATOM     13  C   UNL     1      34.801 -15.027 -20.710  0.00  0.00    +0.020 C 
ATOM     14  C   UNL     1      34.067 -14.495 -23.062  0.00  0.00    +0.020 C 
ATOM     15  C   UNL     1      34.696 -13.544 -20.367  0.00  0.00    +0.097 C 
ATOM     16  C   UNL     1      33.976 -13.020 -22.676  0.00  0.00    +0.097 C 
ATOM     17  C   UNL     1      32.694 -12.112 -20.692  0.00  0.00    +0.405 C 
BRANCH  17  18
ATOM     18  O   UNL     1      31.921 -11.510 -21.650  0.00  0.00    -0.430 OA
ATOM     19  C   UNL     1      31.383 -10.226 -21.312  0.00  0.00    +0.257 C 
ENDBRANCH  17  18
ENDBRANCH   9  12
ENDBRANCH   2   9
ENDBRANCH   1   3
BRANCH   1  21
ATOM     20  O   UNL     1      37.041 -21.753 -16.159  0.00  0.00    -0.270 OA
ATOM     21  N   UNL     1      35.877 -21.178 -18.079  0.00  0.00    -0.301 N 
ATOM     22  C   UNL     1      35.995 -21.685 -16.800  0.00  0.00    +0.247 C 
ATOM     23  H   UNL     1      34.991 -21.168 -18.508  0.00  0.00    +0.150 HD
BRANCH  22  26
ATOM     24  N   UNL     1      33.855 -23.883 -13.129  0.00  0.00    -0.318 N 
ATOM     25  N   UNL     1      35.724 -23.108 -14.049  0.00  0.00    -0.318 N 
ATOM     26  C   UNL     1      34.740 -22.202 -16.198  0.00  0.00    +0.068 C 
ATOM     27  C   UNL     1      34.729 -22.827 -14.949  0.00  0.00    +0.063 C 
ATOM     28  C   UNL     1      33.511 -22.083 -16.853  0.00  0.00    +0.006 C 
ATOM     29  C   UNL     1      33.572 -23.320 -14.352  0.00  0.00    +0.059 C 
ATOM     30  C   UNL     1      35.153 -23.738 -12.979  0.00  0.00    +0.144 C 
ATOM     31  C   UNL     1      32.333 -22.569 -16.279  0.00  0.00    +0.001 C 
ATOM     32  C   UNL     1      32.345 -23.192 -15.026  0.00  0.00    +0.016 C 
ATOM     33  H   UNL     1      33.223 -24.302 -12.502  0.00  0.00    +0.148 HD
ATOM     34  H   UNL     1      36.679 -22.893 -14.154  0.00  0.00    +0.148 HD
BRANCH  30  35
ATOM     35  C   UNL     1      35.865 -24.215 -11.780  0.00  0.00    +0.037 C 
ATOM     36  C   UNL     1      37.252 -24.826 -12.095  0.00  0.00    +0.003 C 
ATOM     37  C   UNL     1      36.024 -23.126 -10.690  0.00  0.00    +0.003 C 
ENDBRANCH  30  35
ENDBRANCH  22  26
ENDBRANCH   1  21
TORSDOF 7
ENDMDL
MODEL 7
REMARK VINA RESULT:     -11.3      2.015      4.103
REMARK  Name = 11961293
REMARK  7 active torsions:
REMARK  status: ('A' for Active; 'I' for Inactive)
REMARK    1  A    between atoms: C_1  and  C_3
REMARK    2  A    between atoms: C_1  and  N_21
REMARK    3  A    between atoms: N_2  and  C_9
REMARK    4  A    between atoms: C_9  and  C_12
REMARK    5  A    between atoms: C_17  and  O_18
REMARK    6  A    between atoms: C_22  and  C_26
REMARK    7  A    between atoms: C_30  and  C_35
REMARK                            x       y       z     vdW  Elec       q    Type
REMARK                         _______ _______ _______ _____ _____    ______ ____
ROOT
ATOM      1  C   UNL     1      37.151 -20.422 -19.443  0.00  0.00    +0.089 C 
ENDROOT
BRANCH   1   3
ATOM      2  N   UNL     1      34.902 -22.424 -16.345  0.00  0.00    +0.387 N 
ATOM      3  C   UNL     1      36.146 -20.645 -18.316  0.00  0.00    +0.015 C 
ATOM      4  C   UNL     1      35.847 -21.385 -15.916  0.00  0.00    -0.077 C 
ATOM      5  C   UNL     1      34.160 -22.004 -17.541  0.00  0.00    -0.077 C 
ATOM      6  C   UNL     1      36.854 -21.063 -17.022  0.00  0.00    -0.021 C 
ATOM      7  C   UNL     1      35.110 -21.704 -18.704  0.00  0.00    -0.021 C 
ATOM      8  H   UNL     1      35.439 -23.258 -16.585  0.00  0.00    -0.080 HD
BRANCH   2   9
ATOM      9  C   UNL     1      33.979 -22.757 -15.261  0.00  0.00    -0.077 C 
BRANCH   9  12
ATOM     10  O   UNL     1      38.247 -24.309 -10.994  0.00  0.00    -0.226 OA
ATOM     11  N   UNL     1      36.767 -24.816 -12.713  0.00  0.00    -0.246 N 
ATOM     12  C   UNL     1      34.587 -23.804 -14.331  0.00  0.00    -0.017 C 
ATOM     13  C   UNL     1      34.937 -23.187 -12.968  0.00  0.00    +0.020 C 
ATOM     14  C   UNL     1      35.838 -24.435 -14.964  0.00  0.00    +0.020 C 
ATOM     15  C   UNL     1      35.611 -24.208 -12.055  0.00  0.00    +0.097 C 
ATOM     16  C   UNL     1      36.495 -25.435 -14.014  0.00  0.00    +0.097 C 
ATOM     17  C   UNL     1      38.015 -24.827 -12.085  0.00  0.00    +0.405 C 
BRANCH  17  18
ATOM     18  O   UNL     1      38.969 -25.483 -12.817  0.00  0.00    -0.430 OA
ATOM     19  C   UNL     1      40.053 -24.683 -13.304  0.00  0.00    +0.257 C 
ENDBRANCH  17  18
ENDBRANCH   9  12
ENDBRANCH   2   9
ENDBRANCH   1   3
BRANCH   1  21
ATOM     20  O   UNL     1      36.450 -17.672 -19.873  0.00  0.00    -0.270 OA
ATOM     21  N   UNL     1      36.499 -19.866 -20.619  0.00  0.00    -0.301 N 
ATOM     22  C   UNL     1      36.205 -18.521 -20.727  0.00  0.00    +0.247 C 
ATOM     23  H   UNL     1      36.261 -20.467 -21.361  0.00  0.00    +0.150 HD
BRANCH  22  26
ATOM     24  N   UNL     1      34.282 -15.014 -23.351  0.00  0.00    -0.318 N 
ATOM     25  N   UNL     1      35.309 -15.641 -21.483  0.00  0.00    -0.318 N 
ATOM     26  C   UNL     1      35.515 -18.115 -21.978  0.00  0.00    +0.068 C 
ATOM     27  C   UNL     1      35.156 -16.788 -22.220  0.00  0.00    +0.063 C 
ATOM     28  C   UNL     1      35.197 -19.044 -22.973  0.00  0.00    +0.006 C 
ATOM     29  C   UNL     1      34.514 -16.370 -23.382  0.00  0.00    +0.059 C 
ATOM     30  C   UNL     1      34.771 -14.610 -22.200  0.00  0.00    +0.144 C 
ATOM     31  C   UNL     1      34.552 -18.655 -24.150  0.00  0.00    +0.001 C 
ATOM     32  C   UNL     1      34.201 -17.318 -24.371  0.00  0.00    +0.016 C 
ATOM     33  H   UNL     1      33.845 -14.465 -24.042  0.00  0.00    +0.148 HD
ATOM     34  H   UNL     1      35.731 -15.574 -20.596  0.00  0.00    +0.148 HD
BRANCH  30  35
ATOM     35  C   UNL     1      34.724 -13.199 -21.776  0.00  0.00    +0.037 C 
ATOM     36  C   UNL     1      34.417 -12.222 -22.937  0.00  0.00    +0.003 C 
ATOM     37  C   UNL     1      33.730 -12.941 -20.618  0.00  0.00    +0.003 C 
ENDBRANCH  30  35
ENDBRANCH  22  26
ENDBRANCH   1  21
TORSDOF 7
ENDMDL
MODEL 8
REMARK VINA RESULT:     -11.1      3.583     11.612
REMARK  Name = 11961293
REMARK  7 active torsions:
REMARK  status: ('A' for Active; 'I' for Inactive)
REMARK    1  A    between atoms: C_1  and  C_3
REMARK    2  A    between atoms: C_1  and  N_21
REMARK    3  A    between atoms: N_2  and  C_9
REMARK    4  A    between atoms: C_9  and  C_12
REMARK    5  A    between atoms: C_17  and  O_18
REMARK    6  A    between atoms: C_22  and  C_26
REMARK    7  A    between atoms: C_30  and  C_35
REMARK                            x       y       z     vdW  Elec       q    Type
REMARK                         _______ _______ _______ _____ _____    ______ ____
ROOT
ATOM      1  C   UNL     1      34.314 -21.511 -19.160  0.00  0.00    +0.089 C 
ENDROOT
BRANCH   1   3
ATOM      2  N   UNL     1      35.739 -18.098 -21.391  0.00  0.00    +0.387 N 
ATOM      3  C   UNL     1      34.742 -20.080 -19.475  0.00  0.00    +0.015 C 
ATOM      4  C   UNL     1      34.337 -18.069 -20.954  0.00  0.00    -0.077 C 
ATOM      5  C   UNL     1      36.614 -18.612 -20.329  0.00  0.00    -0.077 C 
ATOM      6  C   UNL     1      33.852 -19.466 -20.562  0.00  0.00    -0.021 C 
ATOM      7  C   UNL     1      36.208 -20.029 -19.916  0.00  0.00    -0.021 C 
ATOM      8  H   UNL     1      35.808 -18.730 -22.188  0.00  0.00    -0.080 HD
BRANCH   2   9
ATOM      9  C   UNL     1      36.173 -16.765 -21.811  0.00  0.00    -0.077 C 
BRANCH   9  12
ATOM     10  O   UNL     1      33.909 -12.402 -25.642  0.00  0.00    -0.226 OA
ATOM     11  N   UNL     1      33.884 -13.634 -23.671  0.00  0.00    -0.246 N 
ATOM     12  C   UNL     1      34.989 -15.940 -22.310  0.00  0.00    -0.017 C 
ATOM     13  C   UNL     1      35.017 -15.814 -23.841  0.00  0.00    +0.020 C 
ATOM     14  C   UNL     1      34.985 -14.545 -21.663  0.00  0.00    +0.020 C 
ATOM     15  C   UNL     1      33.877 -14.932 -24.344  0.00  0.00    +0.097 C 
ATOM     16  C   UNL     1      33.844 -13.686 -22.206  0.00  0.00    +0.097 C 
ATOM     17  C   UNL     1      33.878 -12.450 -24.414  0.00  0.00    +0.405 C 
BRANCH  17  18
ATOM     18  O   UNL     1      33.829 -11.332 -23.624  0.00  0.00    -0.430 OA
ATOM     19  C   UNL     1      34.611 -10.214 -24.063  0.00  0.00    +0.257 C 
ENDBRANCH  17  18
ENDBRANCH   9  12
ENDBRANCH   2   9
ENDBRANCH   1   3
BRANCH   1  21
ATOM     20  O   UNL     1      33.741 -23.932 -17.728  0.00  0.00    -0.270 OA
ATOM     21  N   UNL     1      33.813 -21.617 -17.798  0.00  0.00    -0.301 N 
ATOM     22  C   UNL     1      33.569 -22.836 -17.199  0.00  0.00    +0.247 C 
ATOM     23  H   UNL     1      33.643 -20.792 -17.288  0.00  0.00    +0.150 HD
BRANCH  22  26
ATOM     24  N   UNL     1      29.803 -22.184 -14.322  0.00  0.00    -0.318 N 
ATOM     25  N   UNL     1      30.620 -22.276 -16.387  0.00  0.00    -0.318 N 
ATOM     26  C   UNL     1      33.035 -22.774 -15.815  0.00  0.00    +0.068 C 
ATOM     27  C   UNL     1      31.687 -22.516 -15.559  0.00  0.00    +0.063 C 
ATOM     28  C   UNL     1      33.859 -22.976 -14.702  0.00  0.00    +0.006 C 
ATOM     29  C   UNL     1      31.151 -22.454 -14.276  0.00  0.00    +0.059 C 
ATOM     30  C   UNL     1      29.518 -22.084 -15.602  0.00  0.00    +0.144 C 
ATOM     31  C   UNL     1      33.349 -22.920 -13.403  0.00  0.00    +0.001 C 
ATOM     32  C   UNL     1      31.993 -22.658 -13.170  0.00  0.00    +0.016 C 
ATOM     33  H   UNL     1      29.184 -22.088 -13.562  0.00  0.00    +0.148 HD
ATOM     34  H   UNL     1      30.645 -22.247 -17.371  0.00  0.00    +0.148 HD
BRANCH  30  35
ATOM     35  C   UNL     1      28.156 -21.798 -16.086  0.00  0.00    +0.037 C 
ATOM     36  C   UNL     1      27.663 -22.804 -17.155  0.00  0.00    +0.003 C 
ATOM     37  C   UNL     1      27.108 -21.710 -14.949  0.00  0.00    +0.003 C 
ENDBRANCH  30  35
ENDBRANCH  22  26
ENDBRANCH   1  21
TORSDOF 7
ENDMDL
MODEL 9
REMARK VINA RESULT:     -10.7      1.951      2.723
REMARK  Name = 11961293
REMARK  7 active torsions:
REMARK  status: ('A' for Active; 'I' for Inactive)
REMARK    1  A    between atoms: C_1  and  C_3
REMARK    2  A    between atoms: C_1  and  N_21
REMARK    3  A    between atoms: N_2  and  C_9
REMARK    4  A    between atoms: C_9  and  C_12
REMARK    5  A    between atoms: C_17  and  O_18
REMARK    6  A    between atoms: C_22  and  C_26
REMARK    7  A    between atoms: C_30  and  C_35
REMARK                            x       y       z     vdW  Elec       q    Type
REMARK                         _______ _______ _______ _____ _____    ______ ____
ROOT
ATOM      1  C   UNL     1      35.315 -14.973 -22.508  0.00  0.00    +0.089 C 
ENDROOT
BRANCH   1   3
ATOM      2  N   UNL     1      35.784 -19.014 -21.056  0.00  0.00    +0.387 N 
ATOM      3  C   UNL     1      34.958 -16.392 -22.075  0.00  0.00    +0.015 C 
ATOM      4  C   UNL     1      35.056 -18.077 -20.191  0.00  0.00    -0.077 C 
ATOM      5  C   UNL     1      35.390 -18.853 -22.461  0.00  0.00    -0.077 C 
ATOM      6  C   UNL     1      35.319 -16.627 -20.604  0.00  0.00    -0.021 C 
ATOM      7  C   UNL     1      35.665 -17.430 -22.953  0.00  0.00    -0.021 C 
ATOM      8  H   UNL     1      36.780 -18.802 -20.982  0.00  0.00    -0.080 HD
BRANCH   2   9
ATOM      9  C   UNL     1      35.565 -20.392 -20.617  0.00  0.00    -0.077 C 
BRANCH   9  12
ATOM     10  O   UNL     1      37.105 -23.118 -15.229  0.00  0.00    -0.226 OA
ATOM     11  N   UNL     1      35.672 -21.891 -16.587  0.00  0.00    -0.246 N 
ATOM     12  C   UNL     1      35.437 -20.466 -19.097  0.00  0.00    -0.017 C 
ATOM     13  C   UNL     1      36.801 -20.738 -18.446  0.00  0.00    +0.020 C 
ATOM     14  C   UNL     1      34.428 -21.550 -18.686  0.00  0.00    +0.020 C 
ATOM     15  C   UNL     1      36.673 -20.883 -16.932  0.00  0.00    +0.097 C 
ATOM     16  C   UNL     1      34.341 -21.680 -17.167  0.00  0.00    +0.097 C 
ATOM     17  C   UNL     1      35.991 -22.939 -15.719  0.00  0.00    +0.405 C 
BRANCH  17  18
ATOM     18  O   UNL     1      34.922 -23.756 -15.462  0.00  0.00    -0.430 OA
ATOM     19  C   UNL     1      34.445 -23.766 -14.111  0.00  0.00    +0.257 C 
ENDBRANCH  17  18
ENDBRANCH   9  12
ENDBRANCH   2   9
ENDBRANCH   1   3
BRANCH   1  21
ATOM     20  O   UNL     1      33.185 -13.348 -23.539  0.00  0.00    -0.270 OA
ATOM     21  N   UNL     1      34.535 -13.992 -21.769  0.00  0.00    -0.301 N 
ATOM     22  C   UNL     1      33.527 -13.259 -22.362  0.00  0.00    +0.247 C 
ATOM     23  H   UNL     1      34.732 -13.846 -20.815  0.00  0.00    +0.150 HD
BRANCH  22  26
ATOM     24  N   UNL     1      32.242  -8.722 -21.555  0.00  0.00    -0.318 N 
ATOM     25  N   UNL     1      33.266 -10.201 -22.860  0.00  0.00    -0.318 N 
ATOM     26  C   UNL     1      32.842 -12.280 -21.480  0.00  0.00    +0.068 C 
ATOM     27  C   UNL     1      32.782 -10.922 -21.799  0.00  0.00    +0.063 C 
ATOM     28  C   UNL     1      32.224 -12.675 -20.290  0.00  0.00    +0.006 C 
ATOM     29  C   UNL     1      32.146  -9.977 -20.999  0.00  0.00    +0.059 C 
ATOM     30  C   UNL     1      32.919  -8.893 -22.669  0.00  0.00    +0.144 C 
ATOM     31  C   UNL     1      31.578 -11.749 -19.466  0.00  0.00    +0.001 C 
ATOM     32  C   UNL     1      31.530 -10.391 -19.806  0.00  0.00    +0.016 C 
ATOM     33  H   UNL     1      31.882  -7.879 -21.197  0.00  0.00    +0.148 HD
ATOM     34  H   UNL     1      33.774 -10.561 -23.623  0.00  0.00    +0.148 HD
BRANCH  30  35
ATOM     35  C   UNL     1      33.241  -7.775 -23.574  0.00  0.00    +0.037 C 
ATOM     36  C   UNL     1      32.544  -6.450 -23.181  0.00  0.00    +0.003 C 
ATOM     37  C   UNL     1      34.762  -7.527 -23.723  0.00  0.00    +0.003 C 
ENDBRANCH  30  35
ENDBRANCH  22  26
ENDBRANCH   1  21
TORSDOF 7
ENDMDL
