MODEL 1
REMARK VINA RESULT:     -11.2      0.000      0.000
REMARK  Name = 2079916
REMARK  5 active torsions:
REMARK  status: ('A' for Active; 'I' for Inactive)
REMARK    1  A    between atoms: C_4  and  C_10
REMARK    2  A    between atoms: C_5  and  S_15
REMARK    3  A    between atoms: S_15  and  C_16
REMARK    4  A    between atoms: C_16  and  C_18
REMARK    5  A    between atoms: C_21  and  O_24
REMARK                            x       y       z     vdW  Elec       q    Type
REMARK                         _______ _______ _______ _____ _____    ______ ____
ROOT
ATOM      1  O   UNL     1      35.169 -17.291 -21.042  0.00  0.00    -0.411 OA
ATOM      2  N   UNL     1      34.944 -18.794 -22.683  0.00  0.00    -0.106 NA
ATOM      3  N   UNL     1      35.009 -17.539 -23.259  0.00  0.00    -0.101 NA
ATOM      4  C   UNL     1      35.042 -18.595 -21.396  0.00  0.00    +0.251 A 
ATOM      5  C   UNL     1      35.139 -16.693 -22.264  0.00  0.00    +0.279 A 
ENDROOT
BRANCH   4  10
ATOM      6  O   UNL     1      32.792 -21.535 -18.196  0.00  0.00    -0.435 OA
ATOM      7  O   UNL     1      34.877 -22.226 -17.204  0.00  0.00    -0.435 OA
ATOM      8  C   UNL     1      33.866 -20.942 -18.785  0.00  0.00    +0.177 C 
ATOM      9  C   UNL     1      35.056 -21.337 -18.219  0.00  0.00    +0.176 C 
ATOM     10  C   UNL     1      35.035 -19.539 -20.304  0.00  0.00    +0.058 C 
ATOM     11  C   UNL     1      33.821 -20.043 -19.832  0.00  0.00    +0.045 C 
ATOM     12  C   UNL     1      36.268 -20.854 -18.667  0.00  0.00    +0.040 C 
ATOM     13  C   UNL     1      36.252 -19.941 -19.726  0.00  0.00    +0.008 C 
ATOM     14  C   UNL     1      33.439 -22.347 -17.195  0.00  0.00    +0.429 C 
ENDBRANCH   4  10
BRANCH   5  15
ATOM     15  S   UNL     1      35.265 -14.972 -22.473  0.00  0.00    -0.050 S 
BRANCH  15  16
ATOM     16  C   UNL     1      34.627 -14.384 -20.879  0.00  0.00    +0.093 C 
BRANCH  16  18
ATOM     17  F   UNL     1      30.992 -11.566 -19.293  0.00  0.00    -0.201 F 
ATOM     18  C   UNL     1      33.727 -13.189 -21.035  0.00  0.00    -0.008 C 
ATOM     19  C   UNL     1      32.761 -12.928 -20.073  0.00  0.00    +0.029 C 
ATOM     20  C   UNL     1      33.873 -12.362 -22.142  0.00  0.00    -0.000 C 
ATOM     21  C   UNL     1      32.064 -10.984 -21.327  0.00  0.00    +0.166 C 
ATOM     22  C   UNL     1      31.926 -11.821 -20.220  0.00  0.00    +0.174 C 
ATOM     23  C   UNL     1      33.038 -11.255 -22.288  0.00  0.00    +0.039 C 
BRANCH  21  24
ATOM     24  O   UNL     1      31.249  -9.904 -21.473  0.00  0.00    -0.469 OA
ATOM     25  C   UNL     1      31.830  -8.721 -22.019  0.00  0.00    +0.253 C 
ENDBRANCH  21  24
ENDBRANCH  16  18
ENDBRANCH  15  16
ENDBRANCH   5  15
TORSDOF 5
ENDMDL
MODEL 2
REMARK VINA RESULT:     -10.9      6.669     11.423
REMARK  Name = 2079916
REMARK  5 active torsions:
REMARK  status: ('A' for Active; 'I' for Inactive)
REMARK    1  A    between atoms: C_4  and  C_10
REMARK    2  A    between atoms: C_5  and  S_15
REMARK    3  A    between atoms: S_15  and  C_16
REMARK    4  A    between atoms: C_16  and  C_18
REMARK    5  A    between atoms: C_21  and  O_24
REMARK                            x       y       z     vdW  Elec       q    Type
REMARK                         _______ _______ _______ _____ _____    ______ ____
ROOT
ATOM      1  O   UNL     1      33.947 -22.537 -16.077  0.00  0.00    -0.411 OA
ATOM      2  N   UNL     1      31.962 -22.109 -17.014  0.00  0.00    -0.106 NA
ATOM      3  N   UNL     1      31.742 -22.849 -15.867  0.00  0.00    -0.101 NA
ATOM      4  C   UNL     1      33.256 -21.955 -17.090  0.00  0.00    +0.251 A 
ATOM      5  C   UNL     1      32.928 -23.077 -15.354  0.00  0.00    +0.279 A 
ENDROOT
BRANCH   4  10
ATOM      6  O   UNL     1      33.812 -19.177 -21.080  0.00  0.00    -0.435 OA
ATOM      7  O   UNL     1      36.216 -19.275 -20.942  0.00  0.00    -0.435 OA
ATOM      8  C   UNL     1      34.239 -19.914 -20.019  0.00  0.00    +0.177 C 
ATOM      9  C   UNL     1      35.611 -19.970 -19.940  0.00  0.00    +0.176 C 
ATOM     10  C   UNL     1      34.056 -21.268 -18.075  0.00  0.00    +0.058 C 
ATOM     11  C   UNL     1      33.431 -20.553 -19.100  0.00  0.00    +0.045 C 
ATOM     12  C   UNL     1      36.253 -20.669 -18.938  0.00  0.00    +0.040 C 
ATOM     13  C   UNL     1      35.459 -21.326 -17.994  0.00  0.00    +0.008 C 
ATOM     14  C   UNL     1      35.069 -18.774 -21.660  0.00  0.00    +0.429 C 
ENDBRANCH   4  10
BRANCH   5  15
ATOM     15  S   UNL     1      33.188 -23.978 -13.890  0.00  0.00    -0.050 S 
BRANCH  15  16
ATOM     16  C   UNL     1      34.666 -23.154 -13.236  0.00  0.00    +0.093 C 
BRANCH  16  18
ATOM     17  F   UNL     1      37.190 -26.560 -15.624  0.00  0.00    -0.201 F 
ATOM     18  C   UNL     1      35.905 -23.988 -13.413  0.00  0.00    -0.008 C 
ATOM     19  C   UNL     1      35.973 -24.902 -14.456  0.00  0.00    +0.029 C 
ATOM     20  C   UNL     1      36.965 -23.836 -12.528  0.00  0.00    -0.000 C 
ATOM     21  C   UNL     1      38.191 -25.532 -13.735  0.00  0.00    +0.166 C 
ATOM     22  C   UNL     1      37.121 -25.677 -14.617  0.00  0.00    +0.174 C 
ATOM     23  C   UNL     1      38.113 -24.610 -12.690  0.00  0.00    +0.039 C 
BRANCH  21  24
ATOM     24  O   UNL     1      39.312 -26.288 -13.890  0.00  0.00    -0.469 OA
ATOM     25  C   UNL     1      40.552 -25.593 -14.017  0.00  0.00    +0.253 C 
ENDBRANCH  21  24
ENDBRANCH  16  18
ENDBRANCH  15  16
ENDBRANCH   5  15
TORSDOF 5
ENDMDL
MODEL 3
REMARK VINA RESULT:     -10.9      6.152     11.100
REMARK  Name = 2079916
REMARK  5 active torsions:
REMARK  status: ('A' for Active; 'I' for Inactive)
REMARK    1  A    between atoms: C_4  and  C_10
REMARK    2  A    between atoms: C_5  and  S_15
REMARK    3  A    between atoms: S_15  and  C_16
REMARK    4  A    between atoms: C_16  and  C_18
REMARK    5  A    between atoms: C_21  and  O_24
REMARK                            x       y       z     vdW  Elec       q    Type
REMARK                         _______ _______ _______ _____ _____    ______ ____
ROOT
ATOM      1  O   UNL     1      34.588 -21.969 -17.111  0.00  0.00    -0.411 OA
ATOM      2  N   UNL     1      32.717 -21.522 -18.250  0.00  0.00    -0.106 NA
ATOM      3  N   UNL     1      32.391 -22.376 -17.213  0.00  0.00    -0.101 NA
ATOM      4  C   UNL     1      34.002 -21.317 -18.146  0.00  0.00    +0.251 A 
ATOM      5  C   UNL     1      33.513 -22.611 -16.575  0.00  0.00    +0.279 A 
ENDROOT
BRANCH   4  10
ATOM      6  O   UNL     1      34.912 -18.104 -21.723  0.00  0.00    -0.435 OA
ATOM      7  O   UNL     1      37.288 -18.178 -21.328  0.00  0.00    -0.435 OA
ATOM      8  C   UNL     1      35.241 -18.948 -20.707  0.00  0.00    +0.177 C 
ATOM      9  C   UNL     1      36.598 -18.990 -20.482  0.00  0.00    +0.176 C 
ATOM     10  C   UNL     1      34.885 -20.512 -18.955  0.00  0.00    +0.058 C 
ATOM     11  C   UNL     1      34.356 -19.698 -19.959  0.00  0.00    +0.045 C 
ATOM     12  C   UNL     1      37.146 -19.785 -19.496  0.00  0.00    +0.040 C 
ATOM     13  C   UNL     1      36.271 -20.556 -18.724  0.00  0.00    +0.008 C 
ATOM     14  C   UNL     1      36.213 -17.619 -22.111  0.00  0.00    +0.429 C 
ENDBRANCH   4  10
BRANCH   5  15
ATOM     15  S   UNL     1      33.632 -23.638 -15.178  0.00  0.00    -0.050 S 
BRANCH  15  16
ATOM     16  C   UNL     1      34.871 -22.747 -14.198  0.00  0.00    +0.093 C 
BRANCH  16  18
ATOM     17  F   UNL     1      39.042 -23.555 -11.825  0.00  0.00    -0.201 F 
ATOM     18  C   UNL     1      36.099 -23.578 -13.945  0.00  0.00    -0.008 C 
ATOM     19  C   UNL     1      37.015 -23.173 -12.984  0.00  0.00    +0.029 C 
ATOM     20  C   UNL     1      36.302 -24.739 -14.679  0.00  0.00    -0.000 C 
ATOM     21  C   UNL     1      38.368 -25.111 -13.484  0.00  0.00    +0.166 C 
ATOM     22  C   UNL     1      38.155 -23.943 -12.753  0.00  0.00    +0.174 C 
ATOM     23  C   UNL     1      37.441 -25.510 -14.447  0.00  0.00    +0.039 C 
BRANCH  21  24
ATOM     24  O   UNL     1      39.480 -25.863 -13.261  0.00  0.00    -0.469 OA
ATOM     25  C   UNL     1      40.645 -25.543 -14.021  0.00  0.00    +0.253 C 
ENDBRANCH  21  24
ENDBRANCH  16  18
ENDBRANCH  15  16
ENDBRANCH   5  15
TORSDOF 5
ENDMDL
MODEL 4
REMARK VINA RESULT:     -10.9      2.799      9.273
REMARK  Name = 2079916
REMARK  5 active torsions:
REMARK  status: ('A' for Active; 'I' for Inactive)
REMARK    1  A    between atoms: C_4  and  C_10
REMARK    2  A    between atoms: C_5  and  S_15
REMARK    3  A    between atoms: S_15  and  C_16
REMARK    4  A    between atoms: C_16  and  C_18
REMARK    5  A    between atoms: C_21  and  O_24
REMARK                            x       y       z     vdW  Elec       q    Type
REMARK                         _______ _______ _______ _____ _____    ______ ____
ROOT
ATOM      1  O   UNL     1      34.960 -15.435 -21.762  0.00  0.00    -0.411 OA
ATOM      2  N   UNL     1      35.016 -14.890 -19.594  0.00  0.00    -0.106 NA
ATOM      3  N   UNL     1      35.548 -16.159 -19.728  0.00  0.00    -0.101 NA
ATOM      4  C   UNL     1      34.691 -14.515 -20.802  0.00  0.00    +0.251 A 
ATOM      5  C   UNL     1      35.495 -16.437 -21.010  0.00  0.00    +0.279 A 
ENDROOT
BRANCH   4  10
ATOM      6  O   UNL     1      31.496 -10.824 -20.466  0.00  0.00    -0.435 OA
ATOM      7  O   UNL     1      32.315  -9.793 -22.485  0.00  0.00    -0.435 OA
ATOM      8  C   UNL     1      32.514 -11.529 -21.031  0.00  0.00    +0.177 C 
ATOM      9  C   UNL     1      32.981 -10.941 -22.183  0.00  0.00    +0.176 C 
ATOM     10  C   UNL     1      34.096 -13.286 -21.267  0.00  0.00    +0.058 C 
ATOM     11  C   UNL     1      33.052 -12.704 -20.545  0.00  0.00    +0.045 C 
ATOM     12  C   UNL     1      34.012 -11.494 -22.915  0.00  0.00    +0.040 C 
ATOM     13  C   UNL     1      34.574 -12.684 -22.445  0.00  0.00    +0.008 C 
ATOM     14  C   UNL     1      31.376  -9.725 -21.392  0.00  0.00    +0.429 C 
ENDBRANCH   4  10
BRANCH   5  15
ATOM     15  S   UNL     1      36.051 -17.934 -21.695  0.00  0.00    -0.050 S 
BRANCH  15  16
ATOM     16  C   UNL     1      34.581 -18.977 -21.483  0.00  0.00    +0.093 C 
BRANCH  16  18
ATOM     17  F   UNL     1      37.204 -21.234 -18.063  0.00  0.00    -0.201 F 
ATOM     18  C   UNL     1      34.674 -19.845 -20.258  0.00  0.00    -0.008 C 
ATOM     19  C   UNL     1      35.919 -20.140 -19.720  0.00  0.00    +0.029 C 
ATOM     20  C   UNL     1      33.512 -20.342 -19.683  0.00  0.00    -0.000 C 
ATOM     21  C   UNL     1      34.843 -21.450 -18.000  0.00  0.00    +0.166 C 
ATOM     22  C   UNL     1      36.004 -20.947 -18.585  0.00  0.00    +0.174 C 
ATOM     23  C   UNL     1      33.596 -21.148 -18.548  0.00  0.00    +0.039 C 
BRANCH  21  24
ATOM     24  O   UNL     1      34.924 -22.239 -16.893  0.00  0.00    -0.469 OA
ATOM     25  C   UNL     1      33.693 -22.651 -16.298  0.00  0.00    +0.253 C 
ENDBRANCH  21  24
ENDBRANCH  16  18
ENDBRANCH  15  16
ENDBRANCH   5  15
TORSDOF 5
ENDMDL
MODEL 5
REMARK VINA RESULT:     -10.8      3.758      5.694
REMARK  Name = 2079916
REMARK  5 active torsions:
REMARK  status: ('A' for Active; 'I' for Inactive)
REMARK    1  A    between atoms: C_4  and  C_10
REMARK    2  A    between atoms: C_5  and  S_15
REMARK    3  A    between atoms: S_15  and  C_16
REMARK    4  A    between atoms: C_16  and  C_18
REMARK    5  A    between atoms: C_21  and  O_24
REMARK                            x       y       z     vdW  Elec       q    Type
REMARK                         _______ _______ _______ _____ _____    ______ ____
ROOT
ATOM      1  O   UNL     1      34.832 -21.135 -17.934  0.00  0.00    -0.411 OA
ATOM      2  N   UNL     1      33.229 -22.308 -16.908  0.00  0.00    -0.106 NA
ATOM      3  N   UNL     1      32.660 -21.666 -17.992  0.00  0.00    -0.101 NA
ATOM      4  C   UNL     1      34.489 -21.967 -16.919  0.00  0.00    +0.251 A 
ATOM      5  C   UNL     1      33.632 -20.993 -18.561  0.00  0.00    +0.279 A 
ENDROOT
BRANCH   4  10
ATOM      6  O   UNL     1      36.374 -24.533 -13.202  0.00  0.00    -0.435 OA
ATOM      7  O   UNL     1      38.527 -23.472 -13.424  0.00  0.00    -0.435 OA
ATOM      8  C   UNL     1      36.400 -23.621 -14.213  0.00  0.00    +0.177 C 
ATOM      9  C   UNL     1      37.628 -23.016 -14.339  0.00  0.00    +0.176 C 
ATOM     10  C   UNL     1      35.562 -22.336 -16.027  0.00  0.00    +0.058 C 
ATOM     11  C   UNL     1      35.344 -23.303 -15.043  0.00  0.00    +0.045 C 
ATOM     12  C   UNL     1      37.871 -22.059 -15.303  0.00  0.00    +0.040 C 
ATOM     13  C   UNL     1      36.818 -21.717 -16.157  0.00  0.00    +0.008 C 
ATOM     14  C   UNL     1      37.725 -24.433 -12.707  0.00  0.00    +0.429 C 
ENDBRANCH   4  10
BRANCH   5  15
ATOM     15  S   UNL     1      33.422 -20.011 -19.980  0.00  0.00    -0.050 S 
BRANCH  15  16
ATOM     16  C   UNL     1      35.135 -19.512 -20.310  0.00  0.00    +0.093 C 
BRANCH  16  18
ATOM     17  F   UNL     1      35.331 -14.654 -20.130  0.00  0.00    -0.201 F 
ATOM     18  C   UNL     1      35.214 -18.174 -20.993  0.00  0.00    -0.008 C 
ATOM     19  C   UNL     1      35.238 -17.015 -20.230  0.00  0.00    +0.029 C 
ATOM     20  C   UNL     1      35.260 -18.116 -22.380  0.00  0.00    -0.000 C 
ATOM     21  C   UNL     1      35.355 -15.705 -22.256  0.00  0.00    +0.166 C 
ATOM     22  C   UNL     1      35.308 -15.775 -20.864  0.00  0.00    +0.174 C 
ATOM     23  C   UNL     1      35.331 -16.876 -23.014  0.00  0.00    +0.039 C 
BRANCH  21  24
ATOM     24  O   UNL     1      35.422 -14.496 -22.877  0.00  0.00    -0.469 OA
ATOM     25  C   UNL     1      34.187 -13.896 -23.266  0.00  0.00    +0.253 C 
ENDBRANCH  21  24
ENDBRANCH  16  18
ENDBRANCH  15  16
ENDBRANCH   5  15
TORSDOF 5
ENDMDL
MODEL 6
REMARK VINA RESULT:     -10.8      2.620      9.333
REMARK  Name = 2079916
REMARK  5 active torsions:
REMARK  status: ('A' for Active; 'I' for Inactive)
REMARK    1  A    between atoms: C_4  and  C_10
REMARK    2  A    between atoms: C_5  and  S_15
REMARK    3  A    between atoms: S_15  and  C_16
REMARK    4  A    between atoms: C_16  and  C_18
REMARK    5  A    between atoms: C_21  and  O_24
REMARK                            x       y       z     vdW  Elec       q    Type
REMARK                         _______ _______ _______ _____ _____    ______ ____
ROOT
ATOM      1  O   UNL     1      34.699 -15.015 -21.305  0.00  0.00    -0.411 OA
ATOM      2  N   UNL     1      34.538 -14.559 -23.488  0.00  0.00    -0.106 NA
ATOM      3  N   UNL     1      35.264 -15.727 -23.349  0.00  0.00    -0.101 NA
ATOM      4  C   UNL     1      34.233 -14.187 -22.274  0.00  0.00    +0.251 A 
ATOM      5  C   UNL     1      35.334 -15.955 -22.058  0.00  0.00    +0.279 A 
ENDROOT
BRANCH   4  10
ATOM      6  O   UNL     1      32.717  -9.547 -22.616  0.00  0.00    -0.435 OA
ATOM      7  O   UNL     1      31.412  -9.714 -20.597  0.00  0.00    -0.435 OA
ATOM      8  C   UNL     1      32.797 -10.782 -22.049  0.00  0.00    +0.177 C 
ATOM      9  C   UNL     1      32.052 -10.878 -20.897  0.00  0.00    +0.176 C 
ATOM     10  C   UNL     1      33.487 -13.043 -21.810  0.00  0.00    +0.058 C 
ATOM     11  C   UNL     1      33.527 -11.849 -22.534  0.00  0.00    +0.045 C 
ATOM     12  C   UNL     1      31.995 -12.045 -20.164  0.00  0.00    +0.040 C 
ATOM     13  C   UNL     1      32.725 -13.141 -20.632  0.00  0.00    +0.008 C 
ATOM     14  C   UNL     1      31.838  -8.876 -21.690  0.00  0.00    +0.429 C 
ENDBRANCH   4  10
BRANCH   5  15
ATOM     15  S   UNL     1      36.153 -17.321 -21.363  0.00  0.00    -0.050 S 
BRANCH  15  16
ATOM     16  C   UNL     1      34.897 -18.615 -21.564  0.00  0.00    +0.093 C 
BRANCH  16  18
ATOM     17  F   UNL     1      37.173 -21.259 -18.173  0.00  0.00    -0.201 F 
ATOM     18  C   UNL     1      34.864 -19.560 -20.394  0.00  0.00    -0.008 C 
ATOM     19  C   UNL     1      36.056 -19.977 -19.816  0.00  0.00    +0.029 C 
ATOM     20  C   UNL     1      33.642 -20.005 -19.909  0.00  0.00    -0.000 C 
ATOM     21  C   UNL     1      34.802 -21.308 -18.238  0.00  0.00    +0.166 C 
ATOM     22  C   UNL     1      36.024 -20.855 -18.733  0.00  0.00    +0.174 C 
ATOM     23  C   UNL     1      33.610 -20.883 -18.825  0.00  0.00    +0.039 C 
BRANCH  21  24
ATOM     24  O   UNL     1      34.770 -22.166 -17.182  0.00  0.00    -0.469 OA
ATOM     25  C   UNL     1      33.496 -22.694 -16.812  0.00  0.00    +0.253 C 
ENDBRANCH  21  24
ENDBRANCH  16  18
ENDBRANCH  15  16
ENDBRANCH   5  15
TORSDOF 5
ENDMDL
MODEL 7
REMARK VINA RESULT:     -10.7      5.021      7.822
REMARK  Name = 2079916
REMARK  5 active torsions:
REMARK  status: ('A' for Active; 'I' for Inactive)
REMARK    1  A    between atoms: C_4  and  C_10
REMARK    2  A    between atoms: C_5  and  S_15
REMARK    3  A    between atoms: S_15  and  C_16
REMARK    4  A    between atoms: C_16  and  C_18
REMARK    5  A    between atoms: C_21  and  O_24
REMARK                            x       y       z     vdW  Elec       q    Type
REMARK                         _______ _______ _______ _____ _____    ______ ____
ROOT
ATOM      1  O   UNL     1      34.878 -22.483 -16.175  0.00  0.00    -0.411 OA
ATOM      2  N   UNL     1      32.919 -22.808 -15.147  0.00  0.00    -0.106 NA
ATOM      3  N   UNL     1      32.661 -22.492 -16.468  0.00  0.00    -0.101 NA
ATOM      4  C   UNL     1      34.219 -22.790 -15.029  0.00  0.00    +0.251 A 
ATOM      5  C   UNL     1      33.833 -22.310 -17.029  0.00  0.00    +0.279 A 
ENDROOT
BRANCH   4  10
ATOM      6  O   UNL     1      38.540 -22.962 -12.737  0.00  0.00    -0.435 OA
ATOM      7  O   UNL     1      37.539 -23.732 -10.684  0.00  0.00    -0.435 OA
ATOM      8  C   UNL     1      37.189 -23.100 -12.840  0.00  0.00    +0.177 C 
ATOM      9  C   UNL     1      36.618 -23.539 -11.668  0.00  0.00    +0.176 C 
ATOM     10  C   UNL     1      35.054 -23.044 -13.880  0.00  0.00    +0.058 C 
ATOM     11  C   UNL     1      36.433 -22.842 -13.966  0.00  0.00    +0.045 C 
ATOM     12  C   UNL     1      35.259 -23.746 -11.556  0.00  0.00    +0.040 C 
ATOM     13  C   UNL     1      34.470 -23.493 -12.682  0.00  0.00    +0.008 C 
ATOM     14  C   UNL     1      38.754 -23.364 -11.369  0.00  0.00    +0.429 C 
ENDBRANCH   4  10
BRANCH   5  15
ATOM     15  S   UNL     1      34.045 -21.889 -18.702  0.00  0.00    -0.050 S 
BRANCH  15  16
ATOM     16  C   UNL     1      35.605 -20.965 -18.631  0.00  0.00    +0.093 C 
BRANCH  16  18
ATOM     17  F   UNL     1      38.192 -17.862 -21.341  0.00  0.00    -0.201 F 
ATOM     18  C   UNL     1      35.690 -19.913 -19.701  0.00  0.00    -0.008 C 
ATOM     19  C   UNL     1      36.924 -19.368 -20.030  0.00  0.00    +0.029 C 
ATOM     20  C   UNL     1      34.533 -19.497 -20.346  0.00  0.00    -0.000 C 
ATOM     21  C   UNL     1      35.846 -17.966 -21.675  0.00  0.00    +0.166 C 
ATOM     22  C   UNL     1      37.002 -18.390 -21.022  0.00  0.00    +0.174 C 
ATOM     23  C   UNL     1      34.611 -18.520 -21.338  0.00  0.00    +0.039 C 
BRANCH  21  24
ATOM     24  O   UNL     1      35.919 -17.011 -22.642  0.00  0.00    -0.469 OA
ATOM     25  C   UNL     1      35.378 -15.727 -22.330  0.00  0.00    +0.253 C 
ENDBRANCH  21  24
ENDBRANCH  16  18
ENDBRANCH  15  16
ENDBRANCH   5  15
TORSDOF 5
ENDMDL
MODEL 8
REMARK VINA RESULT:     -10.7      4.361      5.902
REMARK  Name = 2079916
REMARK  5 active torsions:
REMARK  status: ('A' for Active; 'I' for Inactive)
REMARK    1  A    between atoms: C_4  and  C_10
REMARK    2  A    between atoms: C_5  and  S_15
REMARK    3  A    between atoms: S_15  and  C_16
REMARK    4  A    between atoms: C_16  and  C_18
REMARK    5  A    between atoms: C_21  and  O_24
REMARK                            x       y       z     vdW  Elec       q    Type
REMARK                         _______ _______ _______ _____ _____    ______ ____
ROOT
ATOM      1  O   UNL     1      34.809 -21.462 -17.957  0.00  0.00    -0.411 OA
ATOM      2  N   UNL     1      32.652 -21.269 -18.514  0.00  0.00    -0.106 NA
ATOM      3  N   UNL     1      33.406 -20.698 -19.523  0.00  0.00    -0.101 NA
ATOM      4  C   UNL     1      33.513 -21.697 -17.631  0.00  0.00    +0.251 A 
ATOM      5  C   UNL     1      34.658 -20.833 -19.155  0.00  0.00    +0.279 A 
ENDROOT
BRANCH   4  10
ATOM      6  O   UNL     1      30.661 -23.608 -14.143  0.00  0.00    -0.435 OA
ATOM      7  O   UNL     1      32.556 -24.288 -12.819  0.00  0.00    -0.435 OA
ATOM      8  C   UNL     1      31.845 -23.278 -14.728  0.00  0.00    +0.177 C 
ATOM      9  C   UNL     1      32.927 -23.666 -13.972  0.00  0.00    +0.176 C 
ATOM     10  C   UNL     1      33.299 -22.374 -16.374  0.00  0.00    +0.058 C 
ATOM     11  C   UNL     1      31.998 -22.629 -15.936  0.00  0.00    +0.045 C 
ATOM     12  C   UNL     1      34.222 -23.427 -14.382  0.00  0.00    +0.040 C 
ATOM     13  C   UNL     1      34.405 -22.771 -15.602  0.00  0.00    +0.008 C 
ATOM     14  C   UNL     1      31.119 -24.247 -12.935  0.00  0.00    +0.429 C 
ENDBRANCH   4  10
BRANCH   5  15
ATOM     15  S   UNL     1      36.006 -20.269 -20.097  0.00  0.00    -0.050 S 
BRANCH  15  16
ATOM     16  C   UNL     1      35.748 -18.474 -20.028  0.00  0.00    +0.093 C 
BRANCH  16  18
ATOM     17  F   UNL     1      34.237 -19.012 -24.621  0.00  0.00    -0.201 F 
ATOM     18  C   UNL     1      35.410 -17.898 -21.375  0.00  0.00    -0.008 C 
ATOM     19  C   UNL     1      34.972 -18.739 -22.389  0.00  0.00    +0.029 C 
ATOM     20  C   UNL     1      35.542 -16.532 -21.588  0.00  0.00    -0.000 C 
ATOM     21  C   UNL     1      34.789 -16.833 -23.863  0.00  0.00    +0.166 C 
ATOM     22  C   UNL     1      34.660 -18.204 -23.639  0.00  0.00    +0.174 C 
ATOM     23  C   UNL     1      35.230 -15.997 -22.837  0.00  0.00    +0.039 C 
BRANCH  21  24
ATOM     24  O   UNL     1      34.487 -16.310 -25.082  0.00  0.00    -0.469 OA
ATOM     25  C   UNL     1      33.726 -15.102 -25.100  0.00  0.00    +0.253 C 
ENDBRANCH  21  24
ENDBRANCH  16  18
ENDBRANCH  15  16
ENDBRANCH   5  15
TORSDOF 5
ENDMDL
MODEL 9
REMARK VINA RESULT:     -10.7      6.119      8.858
REMARK  Name = 2079916
REMARK  5 active torsions:
REMARK  status: ('A' for Active; 'I' for Inactive)
REMARK    1  A    between atoms: C_4  and  C_10
REMARK    2  A    between atoms: C_5  and  S_15
REMARK    3  A    between atoms: S_15  and  C_16
REMARK    4  A    between atoms: C_16  and  C_18
REMARK    5  A    between atoms: C_21  and  O_24
REMARK                            x       y       z     vdW  Elec       q    Type
REMARK                         _______ _______ _______ _____ _____    ______ ____
ROOT
ATOM      1  O   UNL     1      34.824 -22.978 -15.211  0.00  0.00    -0.411 OA
ATOM      2  N   UNL     1      34.004 -23.561 -13.213  0.00  0.00    -0.106 NA
ATOM      3  N   UNL     1      32.946 -23.162 -14.009  0.00  0.00    -0.101 NA
ATOM      4  C   UNL     1      35.070 -23.436 -13.957  0.00  0.00    +0.251 A 
ATOM      5  C   UNL     1      33.472 -22.830 -15.165  0.00  0.00    +0.279 A 
ENDROOT
BRANCH   4  10
ATOM      6  O   UNL     1      39.364 -25.630 -14.795  0.00  0.00    -0.435 OA
ATOM      7  O   UNL     1      40.398 -24.565 -12.896  0.00  0.00    -0.435 OA
ATOM      8  C   UNL     1      38.504 -24.811 -14.129  0.00  0.00    +0.177 C 
ATOM      9  C   UNL     1      39.094 -24.203 -13.046  0.00  0.00    +0.176 C 
ATOM     10  C   UNL     1      36.455 -23.707 -13.654  0.00  0.00    +0.058 C 
ATOM     11  C   UNL     1      37.183 -24.583 -14.461  0.00  0.00    +0.045 C 
ATOM     12  C   UNL     1      38.397 -23.333 -12.233  0.00  0.00    +0.040 C 
ATOM     13  C   UNL     1      37.058 -23.085 -12.546  0.00  0.00    +0.008 C 
ATOM     14  C   UNL     1      40.562 -25.468 -14.008  0.00  0.00    +0.429 C 
ENDBRANCH   4  10
BRANCH   5  15
ATOM     15  S   UNL     1      32.542 -22.256 -16.517  0.00  0.00    -0.050 S 
BRANCH  15  16
ATOM     16  C   UNL     1      33.613 -22.737 -17.901  0.00  0.00    +0.093 C 
BRANCH  16  18
ATOM     17  F   UNL     1      37.160 -19.916 -19.671  0.00  0.00    -0.201 F 
ATOM     18  C   UNL     1      34.070 -21.550 -18.703  0.00  0.00    -0.008 C 
ATOM     19  C   UNL     1      35.427 -21.281 -18.817  0.00  0.00    +0.029 C 
ATOM     20  C   UNL     1      33.128 -20.735 -19.317  0.00  0.00    -0.000 C 
ATOM     21  C   UNL     1      34.912 -19.355 -20.180  0.00  0.00    +0.166 C 
ATOM     22  C   UNL     1      35.850 -20.179 -19.559  0.00  0.00    +0.174 C 
ATOM     23  C   UNL     1      33.551 -19.633 -20.059  0.00  0.00    +0.039 C 
BRANCH  21  24
ATOM     24  O   UNL     1      35.323 -18.277 -20.903  0.00  0.00    -0.469 OA
ATOM     25  C   UNL     1      35.057 -18.297 -22.305  0.00  0.00    +0.253 C 
ENDBRANCH  21  24
ENDBRANCH  16  18
ENDBRANCH  15  16
ENDBRANCH   5  15
TORSDOF 5
ENDMDL
