MODEL 1
REMARK VINA RESULT:     -12.8      0.000      0.000
REMARK  Name = 11581936
REMARK  5 active torsions:
REMARK  status: ('A' for Active; 'I' for Inactive)
REMARK    1  A    between atoms: C_1  and  C_9
REMARK    2  A    between atoms: C_4  and  O_19
REMARK    3  A    between atoms: C_10  and  C_14
REMARK    4  A    between atoms: O_19  and  C_20
REMARK    5  A    between atoms: C_20  and  C_22
REMARK                            x       y       z     vdW  Elec       q    Type
REMARK                         _______ _______ _______ _____ _____    ______ ____
ROOT
ATOM      1  C   UNL     1      34.035 -22.246 -16.513  0.00  0.00    +0.019 C 
ATOM      2  C   UNL     1      33.216 -22.028 -17.620  0.00  0.00    +0.005 C 
ATOM      3  C   UNL     1      35.379 -21.875 -16.556  0.00  0.00    +0.005 C 
ATOM      4  C   UNL     1      35.081 -21.069 -18.805  0.00  0.00    +0.139 C 
ATOM      5  C   UNL     1      33.741 -21.437 -18.770  0.00  0.00    +0.037 C 
ATOM      6  C   UNL     1      35.904 -21.283 -17.705  0.00  0.00    +0.037 C 
ENDROOT
BRANCH   1   9
ATOM      7  N   UNL     1      32.056 -23.478 -13.928  0.00  0.00    -0.208 N 
ATOM      8  N   UNL     1      32.177 -22.828 -15.098  0.00  0.00    -0.178 NA
ATOM      9  C   UNL     1      33.496 -22.854 -15.329  0.00  0.00    +0.100 C 
ATOM     10  C   UNL     1      34.206 -23.519 -14.308  0.00  0.00    +0.036 C 
ATOM     11  C   UNL     1      33.242 -23.912 -13.413  0.00  0.00    +0.086 C 
ATOM     12  C   UNL     1      30.750 -23.655 -13.339  0.00  0.00    +0.140 C 
BRANCH  10  14
ATOM     13  N   UNL     1      38.331 -24.301 -13.785  0.00  0.00    -0.242 NA
ATOM     14  C   UNL     1      35.602 -23.783 -14.132  0.00  0.00    +0.006 C 
ATOM     15  C   UNL     1      36.412 -22.866 -13.467  0.00  0.00    +0.021 C 
ATOM     16  C   UNL     1      36.161 -24.960 -14.622  0.00  0.00    +0.021 C 
ATOM     17  C   UNL     1      37.756 -23.169 -13.322  0.00  0.00    +0.099 C 
ATOM     18  C   UNL     1      37.516 -25.170 -14.426  0.00  0.00    +0.099 C 
ENDBRANCH  10  14
ENDBRANCH   1   9
BRANCH   4  19
ATOM     19  O   UNL     1      35.596 -20.488 -19.934  0.00  0.00    -0.468 OA
BRANCH  19  20
ATOM     20  C   UNL     1      36.523 -19.428 -19.742  0.00  0.00    +0.264 C 
BRANCH  20  22
ATOM     21  N   UNL     1      35.713 -17.151 -19.893  0.00  0.00    -0.406 NA
ATOM     22  C   UNL     1      36.110 -18.255 -20.568  0.00  0.00    +0.152 C 
ATOM     23  C   UNL     1      35.337 -16.071 -22.015  0.00  0.00    +0.026 C 
ATOM     24  C   UNL     1      35.332 -16.073 -20.604  0.00  0.00    +0.113 C 
ATOM     25  C   UNL     1      36.148 -18.347 -21.944  0.00  0.00    +0.031 C 
ATOM     26  C   UNL     1      35.755 -17.235 -22.674  0.00  0.00    +0.005 C 
ATOM     27  C   UNL     1      34.932 -14.928 -22.724  0.00  0.00    +0.002 C 
ATOM     28  C   UNL     1      34.918 -14.916 -19.949  0.00  0.00    +0.085 C 
ATOM     29  C   UNL     1      34.522 -13.785 -22.045  0.00  0.00    -0.004 C 
ATOM     30  C   UNL     1      34.514 -13.779 -20.655  0.00  0.00    -0.019 C 
ENDBRANCH  20  22
ENDBRANCH  19  20
ENDBRANCH   4  19
TORSDOF 5
ENDMDL
MODEL 2
REMARK VINA RESULT:     -12.3      1.346      1.959
REMARK  Name = 11581936
REMARK  5 active torsions:
REMARK  status: ('A' for Active; 'I' for Inactive)
REMARK    1  A    between atoms: C_1  and  C_9
REMARK    2  A    between atoms: C_4  and  O_19
REMARK    3  A    between atoms: C_10  and  C_14
REMARK    4  A    between atoms: O_19  and  C_20
REMARK    5  A    between atoms: C_20  and  C_22
REMARK                            x       y       z     vdW  Elec       q    Type
REMARK                         _______ _______ _______ _____ _____    ______ ____
ROOT
ATOM      1  C   UNL     1      33.765 -21.445 -17.856  0.00  0.00    +0.019 C 
ATOM      2  C   UNL     1      33.109 -20.631 -18.779  0.00  0.00    +0.005 C 
ATOM      3  C   UNL     1      35.149 -21.605 -17.926  0.00  0.00    +0.005 C 
ATOM      4  C   UNL     1      35.217 -20.141 -19.836  0.00  0.00    +0.139 C 
ATOM      5  C   UNL     1      33.838 -19.977 -19.772  0.00  0.00    +0.037 C 
ATOM      6  C   UNL     1      35.878 -20.951 -18.919  0.00  0.00    +0.037 C 
ENDROOT
BRANCH   1   9
ATOM      7  N   UNL     1      31.342 -22.859 -15.794  0.00  0.00    -0.208 N 
ATOM      8  N   UNL     1      31.678 -22.165 -16.895  0.00  0.00    -0.178 NA
ATOM      9  C   UNL     1      33.015 -22.119 -16.833  0.00  0.00    +0.100 C 
ATOM     10  C   UNL     1      33.522 -22.783 -15.696  0.00  0.00    +0.036 C 
ATOM     11  C   UNL     1      32.410 -23.253 -15.043  0.00  0.00    +0.086 C 
ATOM     12  C   UNL     1      29.951 -23.120 -15.510  0.00  0.00    +0.140 C 
BRANCH  10  14
ATOM     13  N   UNL     1      37.474 -23.382 -14.308  0.00  0.00    -0.242 NA
ATOM     14  C   UNL     1      34.859 -22.985 -15.226  0.00  0.00    +0.006 C 
ATOM     15  C   UNL     1      35.337 -24.274 -15.004  0.00  0.00    +0.021 C 
ATOM     16  C   UNL     1      35.692 -21.895 -14.987  0.00  0.00    +0.021 C 
ATOM     17  C   UNL     1      36.639 -24.417 -14.550  0.00  0.00    +0.099 C 
ATOM     18  C   UNL     1      36.977 -22.144 -14.534  0.00  0.00    +0.099 C 
ENDBRANCH  10  14
ENDBRANCH   1   9
BRANCH   4  19
ATOM     19  O   UNL     1      35.933 -19.497 -20.812  0.00  0.00    -0.468 OA
BRANCH  19  20
ATOM     20  C   UNL     1      36.248 -18.130 -20.578  0.00  0.00    +0.264 C 
BRANCH  20  22
ATOM     21  N   UNL     1      35.474 -15.982 -21.382  0.00  0.00    -0.406 NA
ATOM     22  C   UNL     1      35.648 -17.294 -21.660  0.00  0.00    +0.152 C 
ATOM     23  C   UNL     1      34.556 -15.704 -23.592  0.00  0.00    +0.026 C 
ATOM     24  C   UNL     1      34.936 -15.195 -22.334  0.00  0.00    +0.113 C 
ATOM     25  C   UNL     1      35.307 -17.882 -22.861  0.00  0.00    +0.031 C 
ATOM     26  C   UNL     1      34.753 -17.069 -23.839  0.00  0.00    +0.005 C 
ATOM     27  C   UNL     1      33.996 -14.855 -24.561  0.00  0.00    +0.002 C 
ATOM     28  C   UNL     1      34.740 -13.839 -22.089  0.00  0.00    +0.085 C 
ATOM     29  C   UNL     1      33.810 -13.502 -24.291  0.00  0.00    -0.004 C 
ATOM     30  C   UNL     1      34.183 -12.993 -23.053  0.00  0.00    -0.019 C 
ENDBRANCH  20  22
ENDBRANCH  19  20
ENDBRANCH   4  19
TORSDOF 5
ENDMDL
MODEL 3
REMARK VINA RESULT:     -12.2      3.958     11.576
REMARK  Name = 11581936
REMARK  5 active torsions:
REMARK  status: ('A' for Active; 'I' for Inactive)
REMARK    1  A    between atoms: C_1  and  C_9
REMARK    2  A    between atoms: C_4  and  O_19
REMARK    3  A    between atoms: C_10  and  C_14
REMARK    4  A    between atoms: O_19  and  C_20
REMARK    5  A    between atoms: C_20  and  C_22
REMARK                            x       y       z     vdW  Elec       q    Type
REMARK                         _______ _______ _______ _____ _____    ______ ____
ROOT
ATOM      1  C   UNL     1      33.769 -13.109 -22.071  0.00  0.00    +0.019 C 
ATOM      2  C   UNL     1      33.759 -13.662 -23.351  0.00  0.00    +0.005 C 
ATOM      3  C   UNL     1      34.461 -13.746 -21.041  0.00  0.00    +0.005 C 
ATOM      4  C   UNL     1      35.128 -15.482 -22.570  0.00  0.00    +0.139 C 
ATOM      5  C   UNL     1      34.441 -14.853 -23.601  0.00  0.00    +0.037 C 
ATOM      6  C   UNL     1      35.144 -14.936 -21.291  0.00  0.00    +0.037 C 
ENDROOT
BRANCH   1   9
ATOM      7  N   UNL     1      31.716 -10.551 -20.903  0.00  0.00    -0.208 N 
ATOM      8  N   UNL     1      32.142 -11.824 -20.846  0.00  0.00    -0.178 NA
ATOM      9  C   UNL     1      33.067 -11.883 -21.813  0.00  0.00    +0.100 C 
ATOM     10  C   UNL     1      33.225 -10.649 -22.479  0.00  0.00    +0.036 C 
ATOM     11  C   UNL     1      32.333  -9.805 -21.864  0.00  0.00    +0.086 C 
ATOM     12  C   UNL     1      30.693 -10.098 -19.992  0.00  0.00    +0.140 C 
BRANCH  10  14
ATOM     13  N   UNL     1      35.744  -9.461 -25.664  0.00  0.00    -0.242 NA
ATOM     14  C   UNL     1      34.078 -10.248 -23.557  0.00  0.00    +0.006 C 
ATOM     15  C   UNL     1      33.927 -10.814 -24.820  0.00  0.00    +0.021 C 
ATOM     16  C   UNL     1      35.064  -9.287 -23.350  0.00  0.00    +0.021 C 
ATOM     17  C   UNL     1      34.777 -10.391 -25.829  0.00  0.00    +0.099 C 
ATOM     18  C   UNL     1      35.863  -8.932 -24.425  0.00  0.00    +0.099 C 
ENDBRANCH  10  14
ENDBRANCH   1   9
BRANCH   4  19
ATOM     19  O   UNL     1      35.799 -16.652 -22.816  0.00  0.00    -0.468 OA
BRANCH  19  20
ATOM     20  C   UNL     1      35.025 -17.845 -22.819  0.00  0.00    +0.264 C 
BRANCH  20  22
ATOM     21  N   UNL     1      34.305 -19.324 -21.043  0.00  0.00    -0.406 NA
ATOM     22  C   UNL     1      35.333 -18.637 -21.592  0.00  0.00    +0.152 C 
ATOM     23  C   UNL     1      35.824 -20.107 -19.344  0.00  0.00    +0.026 C 
ATOM     24  C   UNL     1      34.545 -20.051 -19.935  0.00  0.00    +0.113 C 
ATOM     25  C   UNL     1      36.617 -18.631 -21.086  0.00  0.00    +0.031 C 
ATOM     26  C   UNL     1      36.861 -19.380 -19.944  0.00  0.00    +0.005 C 
ATOM     27  C   UNL     1      36.038 -20.874 -18.187  0.00  0.00    +0.002 C 
ATOM     28  C   UNL     1      33.515 -20.774 -19.339  0.00  0.00    +0.085 C 
ATOM     29  C   UNL     1      34.991 -21.588 -17.610  0.00  0.00    -0.004 C 
ATOM     30  C   UNL     1      33.728 -21.537 -18.187  0.00  0.00    -0.019 C 
ENDBRANCH  20  22
ENDBRANCH  19  20
ENDBRANCH   4  19
TORSDOF 5
ENDMDL
MODEL 4
REMARK VINA RESULT:     -12.1      1.340      3.499
REMARK  Name = 11581936
REMARK  5 active torsions:
REMARK  status: ('A' for Active; 'I' for Inactive)
REMARK    1  A    between atoms: C_1  and  C_9
REMARK    2  A    between atoms: C_4  and  O_19
REMARK    3  A    between atoms: C_10  and  C_14
REMARK    4  A    between atoms: O_19  and  C_20
REMARK    5  A    between atoms: C_20  and  C_22
REMARK                            x       y       z     vdW  Elec       q    Type
REMARK                         _______ _______ _______ _____ _____    ______ ____
ROOT
ATOM      1  C   UNL     1      34.859 -22.257 -16.264  0.00  0.00    +0.019 C 
ATOM      2  C   UNL     1      36.038 -21.644 -16.687  0.00  0.00    +0.005 C 
ATOM      3  C   UNL     1      33.719 -22.208 -17.067  0.00  0.00    +0.005 C 
ATOM      4  C   UNL     1      34.938 -20.939 -18.710  0.00  0.00    +0.139 C 
ATOM      5  C   UNL     1      36.077 -20.983 -17.915  0.00  0.00    +0.037 C 
ATOM      6  C   UNL     1      33.759 -21.547 -18.295  0.00  0.00    +0.037 C 
ENDROOT
BRANCH   1   9
ATOM      7  N   UNL     1      35.524 -23.898 -13.266  0.00  0.00    -0.208 N 
ATOM      8  N   UNL     1      35.954 -23.302 -14.392  0.00  0.00    -0.178 NA
ATOM      9  C   UNL     1      34.818 -22.938 -15.000  0.00  0.00    +0.100 C 
ATOM     10  C   UNL     1      33.673 -23.303 -14.261  0.00  0.00    +0.036 C 
ATOM     11  C   UNL     1      34.167 -23.924 -13.140  0.00  0.00    +0.086 C 
ATOM     12  C   UNL     1      36.483 -24.434 -12.330  0.00  0.00    +0.140 C 
BRANCH  10  14
ATOM     13  N   UNL     1      29.542 -22.779 -15.008  0.00  0.00    -0.242 NA
ATOM     14  C   UNL     1      32.275 -23.125 -14.515  0.00  0.00    +0.006 C 
ATOM     15  C   UNL     1      31.567 -24.079 -15.241  0.00  0.00    +0.021 C 
ATOM     16  C   UNL     1      31.613 -21.998 -14.036  0.00  0.00    +0.021 C 
ATOM     17  C   UNL     1      30.216 -23.861 -15.458  0.00  0.00    +0.099 C 
ATOM     18  C   UNL     1      30.260 -21.873 -14.307  0.00  0.00    +0.099 C 
ENDBRANCH  10  14
ENDBRANCH   1   9
BRANCH   4  19
ATOM     19  O   UNL     1      34.977 -20.289 -19.917  0.00  0.00    -0.468 OA
BRANCH  19  20
ATOM     20  C   UNL     1      36.177 -19.595 -20.231  0.00  0.00    +0.264 C 
BRANCH  20  22
ATOM     21  N   UNL     1      35.552 -17.258 -20.133  0.00  0.00    -0.406 NA
ATOM     22  C   UNL     1      35.841 -18.316 -20.925  0.00  0.00    +0.152 C 
ATOM     23  C   UNL     1      35.215 -15.945 -22.126  0.00  0.00    +0.026 C 
ATOM     24  C   UNL     1      35.244 -16.087 -20.723  0.00  0.00    +0.113 C 
ATOM     25  C   UNL     1      35.838 -18.274 -22.304  0.00  0.00    +0.031 C 
ATOM     26  C   UNL     1      35.520 -17.066 -22.909  0.00  0.00    +0.005 C 
ATOM     27  C   UNL     1      34.887 -14.709 -22.707  0.00  0.00    +0.002 C 
ATOM     28  C   UNL     1      34.941 -14.973 -19.945  0.00  0.00    +0.085 C 
ATOM     29  C   UNL     1      34.588 -13.610 -21.906  0.00  0.00    -0.004 C 
ATOM     30  C   UNL     1      34.615 -13.743 -20.523  0.00  0.00    -0.019 C 
ENDBRANCH  20  22
ENDBRANCH  19  20
ENDBRANCH   4  19
TORSDOF 5
ENDMDL
MODEL 5
REMARK VINA RESULT:     -12.0      1.115      2.250
REMARK  Name = 11581936
REMARK  5 active torsions:
REMARK  status: ('A' for Active; 'I' for Inactive)
REMARK    1  A    between atoms: C_1  and  C_9
REMARK    2  A    between atoms: C_4  and  O_19
REMARK    3  A    between atoms: C_10  and  C_14
REMARK    4  A    between atoms: O_19  and  C_20
REMARK    5  A    between atoms: C_20  and  C_22
REMARK                            x       y       z     vdW  Elec       q    Type
REMARK                         _______ _______ _______ _____ _____    ______ ____
ROOT
ATOM      1  C   UNL     1      34.145 -22.322 -16.365  0.00  0.00    +0.019 C 
ATOM      2  C   UNL     1      35.461 -21.862 -16.395  0.00  0.00    +0.005 C 
ATOM      3  C   UNL     1      33.354 -22.249 -17.511  0.00  0.00    +0.005 C 
ATOM      4  C   UNL     1      35.192 -21.259 -18.711  0.00  0.00    +0.139 C 
ATOM      5  C   UNL     1      35.986 -21.328 -17.573  0.00  0.00    +0.037 C 
ATOM      6  C   UNL     1      33.879 -21.717 -18.689  0.00  0.00    +0.037 C 
ENDROOT
BRANCH   1   9
ATOM      7  N   UNL     1      32.181 -23.335 -13.675  0.00  0.00    -0.208 N 
ATOM      8  N   UNL     1      32.312 -22.698 -14.851  0.00  0.00    -0.178 NA
ATOM      9  C   UNL     1      33.605 -22.871 -15.153  0.00  0.00    +0.100 C 
ATOM     10  C   UNL     1      34.290 -23.616 -14.170  0.00  0.00    +0.036 C 
ATOM     11  C   UNL     1      33.336 -23.903 -13.224  0.00  0.00    +0.086 C 
ATOM     12  C   UNL     1      30.897 -23.368 -13.017  0.00  0.00    +0.140 C 
BRANCH  10  14
ATOM     13  N   UNL     1      38.323 -24.858 -13.875  0.00  0.00    -0.242 NA
ATOM     14  C   UNL     1      35.655 -24.037 -14.070  0.00  0.00    +0.006 C 
ATOM     15  C   UNL     1      36.082 -25.192 -14.718  0.00  0.00    +0.021 C 
ATOM     16  C   UNL     1      36.565 -23.293 -13.324  0.00  0.00    +0.021 C 
ATOM     17  C   UNL     1      37.413 -25.556 -14.590  0.00  0.00    +0.099 C 
ATOM     18  C   UNL     1      37.874 -23.742 -13.258  0.00  0.00    +0.099 C 
ENDBRANCH  10  14
ENDBRANCH   1   9
BRANCH   4  19
ATOM     19  O   UNL     1      35.708 -20.736 -19.868  0.00  0.00    -0.468 OA
BRANCH  19  20
ATOM     20  C   UNL     1      36.472 -19.543 -19.746  0.00  0.00    +0.264 C 
BRANCH  20  22
ATOM     21  N   UNL     1      35.393 -19.044 -21.855  0.00  0.00    -0.406 NA
ATOM     22  C   UNL     1      35.997 -18.547 -20.751  0.00  0.00    +0.152 C 
ATOM     23  C   UNL     1      35.103 -16.781 -22.633  0.00  0.00    +0.026 C 
ATOM     24  C   UNL     1      34.950 -18.175 -22.784  0.00  0.00    +0.113 C 
ATOM     25  C   UNL     1      36.191 -17.201 -20.516  0.00  0.00    +0.031 C 
ATOM     26  C   UNL     1      35.734 -16.309 -21.475  0.00  0.00    +0.005 C 
ATOM     27  C   UNL     1      34.631 -15.904 -23.623  0.00  0.00    +0.002 C 
ATOM     28  C   UNL     1      34.323 -18.645 -23.935  0.00  0.00    +0.085 C 
ATOM     29  C   UNL     1      34.006 -16.400 -24.765  0.00  0.00    -0.004 C 
ATOM     30  C   UNL     1      33.853 -17.772 -24.921  0.00  0.00    -0.019 C 
ENDBRANCH  20  22
ENDBRANCH  19  20
ENDBRANCH   4  19
TORSDOF 5
ENDMDL
MODEL 6
REMARK VINA RESULT:     -11.8      3.948     11.634
REMARK  Name = 11581936
REMARK  5 active torsions:
REMARK  status: ('A' for Active; 'I' for Inactive)
REMARK    1  A    between atoms: C_1  and  C_9
REMARK    2  A    between atoms: C_4  and  O_19
REMARK    3  A    between atoms: C_10  and  C_14
REMARK    4  A    between atoms: O_19  and  C_20
REMARK    5  A    between atoms: C_20  and  C_22
REMARK                            x       y       z     vdW  Elec       q    Type
REMARK                         _______ _______ _______ _____ _____    ______ ____
ROOT
ATOM      1  C   UNL     1      33.821 -13.143 -22.357  0.00  0.00    +0.019 C 
ATOM      2  C   UNL     1      33.621 -13.754 -23.594  0.00  0.00    +0.005 C 
ATOM      3  C   UNL     1      34.596 -13.774 -21.384  0.00  0.00    +0.005 C 
ATOM      4  C   UNL     1      34.966 -15.621 -22.883  0.00  0.00    +0.139 C 
ATOM      5  C   UNL     1      34.195 -14.998 -23.858  0.00  0.00    +0.037 C 
ATOM      6  C   UNL     1      35.171 -15.017 -21.648  0.00  0.00    +0.037 C 
ENDROOT
BRANCH   1   9
ATOM      7  N   UNL     1      32.050 -10.413 -21.119  0.00  0.00    -0.208 N 
ATOM      8  N   UNL     1      32.387 -11.712 -21.056  0.00  0.00    -0.178 NA
ATOM      9  C   UNL     1      33.230 -11.862 -22.085  0.00  0.00    +0.100 C 
ATOM     10  C   UNL     1      33.426 -10.660 -22.798  0.00  0.00    +0.036 C 
ATOM     11  C   UNL     1      32.645  -9.738 -22.144  0.00  0.00    +0.086 C 
ATOM     12  C   UNL     1      31.133  -9.863 -20.150  0.00  0.00    +0.140 C 
BRANCH  10  14
ATOM     13  N   UNL     1      35.782  -9.743 -26.189  0.00  0.00    -0.242 NA
ATOM     14  C   UNL     1      34.222 -10.349 -23.946  0.00  0.00    +0.006 C 
ATOM     15  C   UNL     1      35.273  -9.441 -23.846  0.00  0.00    +0.021 C 
ATOM     16  C   UNL     1      33.955 -10.954 -25.171  0.00  0.00    +0.021 C 
ATOM     17  C   UNL     1      36.014  -9.174 -24.985  0.00  0.00    +0.099 C 
ATOM     18  C   UNL     1      34.755 -10.620 -26.251  0.00  0.00    +0.099 C 
ENDBRANCH  10  14
ENDBRANCH   1   9
BRANCH   4  19
ATOM     19  O   UNL     1      35.531 -16.843 -23.143  0.00  0.00    -0.468 OA
BRANCH  19  20
ATOM     20  C   UNL     1      36.446 -17.343 -22.176  0.00  0.00    +0.264 C 
BRANCH  20  22
ATOM     21  N   UNL     1      36.499 -18.922 -20.343  0.00  0.00    -0.406 NA
ATOM     22  C   UNL     1      35.749 -18.330 -21.300  0.00  0.00    +0.152 C 
ATOM     23  C   UNL     1      34.540 -20.149 -19.662  0.00  0.00    +0.026 C 
ATOM     24  C   UNL     1      35.905 -19.819 -19.533  0.00  0.00    +0.113 C 
ATOM     25  C   UNL     1      34.409 -18.588 -21.502  0.00  0.00    +0.031 C 
ATOM     26  C   UNL     1      33.799 -19.513 -20.666  0.00  0.00    +0.005 C 
ATOM     27  C   UNL     1      33.953 -21.091 -18.800  0.00  0.00    +0.002 C 
ATOM     28  C   UNL     1      36.640 -20.451 -18.534  0.00  0.00    +0.085 C 
ATOM     29  C   UNL     1      34.711 -21.709 -17.809  0.00  0.00    -0.004 C 
ATOM     30  C   UNL     1      36.057 -21.389 -17.676  0.00  0.00    -0.019 C 
ENDBRANCH  20  22
ENDBRANCH  19  20
ENDBRANCH   4  19
TORSDOF 5
ENDMDL
MODEL 7
REMARK VINA RESULT:     -11.8      1.683      3.808
REMARK  Name = 11581936
REMARK  5 active torsions:
REMARK  status: ('A' for Active; 'I' for Inactive)
REMARK    1  A    between atoms: C_1  and  C_9
REMARK    2  A    between atoms: C_4  and  O_19
REMARK    3  A    between atoms: C_10  and  C_14
REMARK    4  A    between atoms: O_19  and  C_20
REMARK    5  A    between atoms: C_20  and  C_22
REMARK                            x       y       z     vdW  Elec       q    Type
REMARK                         _______ _______ _______ _____ _____    ______ ____
ROOT
ATOM      1  C   UNL     1      34.949 -22.408 -15.738  0.00  0.00    +0.019 C 
ATOM      2  C   UNL     1      36.071 -21.754 -16.247  0.00  0.00    +0.005 C 
ATOM      3  C   UNL     1      33.789 -22.504 -16.507  0.00  0.00    +0.005 C 
ATOM      4  C   UNL     1      34.873 -21.296 -18.285  0.00  0.00    +0.139 C 
ATOM      5  C   UNL     1      36.032 -21.196 -17.525  0.00  0.00    +0.037 C 
ATOM      6  C   UNL     1      33.751 -21.947 -17.785  0.00  0.00    +0.037 C 
ENDROOT
BRANCH   1   9
ATOM      7  N   UNL     1      35.805 -23.718 -12.628  0.00  0.00    -0.208 N 
ATOM      8  N   UNL     1      36.161 -23.178 -13.805  0.00  0.00    -0.178 NA
ATOM      9  C   UNL     1      34.989 -22.983 -14.423  0.00  0.00    +0.100 C 
ATOM     10  C   UNL     1      33.894 -23.400 -13.637  0.00  0.00    +0.036 C 
ATOM     11  C   UNL     1      34.458 -23.872 -12.477  0.00  0.00    +0.086 C 
ATOM     12  C   UNL     1      36.820 -24.075 -11.667  0.00  0.00    +0.140 C 
BRANCH  10  14
ATOM     13  N   UNL     1      29.726 -23.359 -14.361  0.00  0.00    -0.242 NA
ATOM     14  C   UNL     1      32.483 -23.386 -13.881  0.00  0.00    +0.006 C 
ATOM     15  C   UNL     1      31.796 -22.178 -13.957  0.00  0.00    +0.021 C 
ATOM     16  C   UNL     1      31.788 -24.581 -14.047  0.00  0.00    +0.021 C 
ATOM     17  C   UNL     1      30.432 -22.219 -14.196  0.00  0.00    +0.099 C 
ATOM     18  C   UNL     1      30.424 -24.515 -14.282  0.00  0.00    +0.099 C 
ENDBRANCH  10  14
ENDBRANCH   1   9
BRANCH   4  19
ATOM     19  O   UNL     1      34.835 -20.748 -19.541  0.00  0.00    -0.468 OA
BRANCH  19  20
ATOM     20  C   UNL     1      36.054 -20.219 -20.045  0.00  0.00    +0.264 C 
BRANCH  20  22
ATOM     21  N   UNL     1      35.189 -19.188 -22.058  0.00  0.00    -0.406 NA
ATOM     22  C   UNL     1      35.766 -18.995 -20.849  0.00  0.00    +0.152 C 
ATOM     23  C   UNL     1      35.211 -16.800 -22.376  0.00  0.00    +0.026 C 
ATOM     24  C   UNL     1      34.914 -18.107 -22.812  0.00  0.00    +0.113 C 
ATOM     25  C   UNL     1      36.093 -17.755 -20.339  0.00  0.00    +0.031 C 
ATOM     26  C   UNL     1      35.808 -16.643 -21.118  0.00  0.00    +0.005 C 
ATOM     27  C   UNL     1      34.911 -15.694 -23.190  0.00  0.00    +0.002 C 
ATOM     28  C   UNL     1      34.319 -18.262 -24.062  0.00  0.00    +0.085 C 
ATOM     29  C   UNL     1      34.317 -15.877 -24.436  0.00  0.00    -0.004 C 
ATOM     30  C   UNL     1      34.021 -17.162 -24.872  0.00  0.00    -0.019 C 
ENDBRANCH  20  22
ENDBRANCH  19  20
ENDBRANCH   4  19
TORSDOF 5
ENDMDL
MODEL 8
REMARK VINA RESULT:     -11.3      4.480     11.940
REMARK  Name = 11581936
REMARK  5 active torsions:
REMARK  status: ('A' for Active; 'I' for Inactive)
REMARK    1  A    between atoms: C_1  and  C_9
REMARK    2  A    between atoms: C_4  and  O_19
REMARK    3  A    between atoms: C_10  and  C_14
REMARK    4  A    between atoms: O_19  and  C_20
REMARK    5  A    between atoms: C_20  and  C_22
REMARK                            x       y       z     vdW  Elec       q    Type
REMARK                         _______ _______ _______ _____ _____    ______ ____
ROOT
ATOM      1  C   UNL     1      34.167 -11.865 -22.912  0.00  0.00    +0.019 C 
ATOM      2  C   UNL     1      33.827 -12.699 -23.977  0.00  0.00    +0.005 C 
ATOM      3  C   UNL     1      34.639 -12.413 -21.720  0.00  0.00    +0.005 C 
ATOM      4  C   UNL     1      34.432 -14.621 -22.658  0.00  0.00    +0.139 C 
ATOM      5  C   UNL     1      33.960 -14.082 -23.849  0.00  0.00    +0.037 C 
ATOM      6  C   UNL     1      34.773 -13.796 -21.592  0.00  0.00    +0.037 C 
ENDROOT
BRANCH   1   9
ATOM      7  N   UNL     1      34.326  -8.506 -23.814  0.00  0.00    -0.208 N 
ATOM      8  N   UNL     1      34.696  -9.784 -24.002  0.00  0.00    -0.178 NA
ATOM      9  C   UNL     1      34.030 -10.442 -23.043  0.00  0.00    +0.100 C 
ATOM     10  C   UNL     1      33.241  -9.580 -22.252  0.00  0.00    +0.036 C 
ATOM     11  C   UNL     1      33.455  -8.330 -22.779  0.00  0.00    +0.086 C 
ATOM     12  C   UNL     1      34.851  -7.475 -24.676  0.00  0.00    +0.140 C 
BRANCH  10  14
ATOM     13  N   UNL     1      30.694 -10.317 -18.955  0.00  0.00    -0.242 NA
ATOM     14  C   UNL     1      32.380  -9.831 -21.136  0.00  0.00    +0.006 C 
ATOM     15  C   UNL     1      32.556  -9.134 -19.943  0.00  0.00    +0.021 C 
ATOM     16  C   UNL     1      31.357 -10.770 -21.235  0.00  0.00    +0.021 C 
ATOM     17  C   UNL     1      31.696  -9.412 -18.893  0.00  0.00    +0.099 C 
ATOM     18  C   UNL     1      30.551 -10.975 -20.128  0.00  0.00    +0.099 C 
ENDBRANCH  10  14
ENDBRANCH   1   9
BRANCH   4  19
ATOM     19  O   UNL     1      34.563 -15.980 -22.533  0.00  0.00    -0.468 OA
BRANCH  19  20
ATOM     20  C   UNL     1      35.887 -16.488 -22.431  0.00  0.00    +0.264 C 
BRANCH  20  22
ATOM     21  N   UNL     1      34.700 -18.176 -21.166  0.00  0.00    -0.406 NA
ATOM     22  C   UNL     1      35.902 -17.643 -21.485  0.00  0.00    +0.152 C 
ATOM     23  C   UNL     1      35.852 -19.757 -19.759  0.00  0.00    +0.026 C 
ATOM     24  C   UNL     1      34.673 -19.220 -20.315  0.00  0.00    +0.113 C 
ATOM     25  C   UNL     1      37.107 -18.100 -20.992  0.00  0.00    +0.031 C 
ATOM     26  C   UNL     1      37.075 -19.175 -20.116  0.00  0.00    +0.005 C 
ATOM     27  C   UNL     1      35.786 -20.846 -18.873  0.00  0.00    +0.002 C 
ATOM     28  C   UNL     1      33.457 -19.799 -19.960  0.00  0.00    +0.085 C 
ATOM     29  C   UNL     1      34.557 -21.407 -18.535  0.00  0.00    -0.004 C 
ATOM     30  C   UNL     1      33.392 -20.882 -19.079  0.00  0.00    -0.019 C 
ENDBRANCH  20  22
ENDBRANCH  19  20
ENDBRANCH   4  19
TORSDOF 5
ENDMDL
MODEL 9
REMARK VINA RESULT:     -11.3      7.438     14.892
REMARK  Name = 11581936
REMARK  5 active torsions:
REMARK  status: ('A' for Active; 'I' for Inactive)
REMARK    1  A    between atoms: C_1  and  C_9
REMARK    2  A    between atoms: C_4  and  O_19
REMARK    3  A    between atoms: C_10  and  C_14
REMARK    4  A    between atoms: O_19  and  C_20
REMARK    5  A    between atoms: C_20  and  C_22
REMARK                            x       y       z     vdW  Elec       q    Type
REMARK                         _______ _______ _______ _____ _____    ______ ____
ROOT
ATOM      1  C   UNL     1      33.372  -7.187 -23.500  0.00  0.00    +0.019 C 
ATOM      2  C   UNL     1      34.754  -7.371 -23.551  0.00  0.00    +0.005 C 
ATOM      3  C   UNL     1      32.520  -8.291 -23.500  0.00  0.00    +0.005 C 
ATOM      4  C   UNL     1      34.428  -9.757 -23.600  0.00  0.00    +0.139 C 
ATOM      5  C   UNL     1      35.283  -8.661 -23.601  0.00  0.00    +0.037 C 
ATOM      6  C   UNL     1      33.049  -9.581 -23.549  0.00  0.00    +0.037 C 
ENDROOT
BRANCH   1   9
ATOM      7  N   UNL     1      32.125  -4.000 -24.140  0.00  0.00    -0.208 N 
ATOM      8  N   UNL     1      32.634  -5.164 -24.577  0.00  0.00    -0.178 NA
ATOM      9  C   UNL     1      32.827  -5.859 -23.449  0.00  0.00    +0.100 C 
ATOM     10  C   UNL     1      32.440  -5.136 -22.301  0.00  0.00    +0.036 C 
ATOM     11  C   UNL     1      31.988  -3.932 -22.784  0.00  0.00    +0.086 C 
ATOM     12  C   UNL     1      31.781  -2.968 -25.088  0.00  0.00    +0.140 C 
BRANCH  10  14
ATOM     13  N   UNL     1      32.514  -6.119 -18.187  0.00  0.00    -0.242 NA
ATOM     14  C   UNL     1      32.466  -5.469 -20.909  0.00  0.00    +0.006 C 
ATOM     15  C   UNL     1      32.467  -4.462 -19.947  0.00  0.00    +0.021 C 
ATOM     16  C   UNL     1      32.489  -6.801 -20.506  0.00  0.00    +0.021 C 
ATOM     17  C   UNL     1      32.492  -4.837 -18.613  0.00  0.00    +0.099 C 
ATOM     18  C   UNL     1      32.513  -7.071 -19.148  0.00  0.00    +0.099 C 
ENDBRANCH  10  14
ENDBRANCH   1   9
BRANCH   4  19
ATOM     19  O   UNL     1      34.948 -11.024 -23.648  0.00  0.00    -0.468 OA
BRANCH  19  20
ATOM     20  C   UNL     1      34.020 -12.092 -23.786  0.00  0.00    +0.264 C 
BRANCH  20  22
ATOM     21  N   UNL     1      34.716 -14.367 -23.337  0.00  0.00    -0.406 NA
ATOM     22  C   UNL     1      34.360 -13.171 -22.813  0.00  0.00    +0.152 C 
ATOM     23  C   UNL     1      34.995 -15.192 -21.090  0.00  0.00    +0.026 C 
ATOM     24  C   UNL     1      35.031 -15.365 -22.489  0.00  0.00    +0.113 C 
ATOM     25  C   UNL     1      34.296 -12.908 -21.459  0.00  0.00    +0.031 C 
ATOM     26  C   UNL     1      34.620 -13.939 -20.589  0.00  0.00    +0.005 C 
ATOM     27  C   UNL     1      35.328 -16.257 -20.235  0.00  0.00    +0.002 C 
ATOM     28  C   UNL     1      35.403 -16.611 -22.987  0.00  0.00    +0.085 C 
ATOM     29  C   UNL     1      35.697 -17.493 -20.759  0.00  0.00    -0.004 C 
ATOM     30  C   UNL     1      35.734 -17.670 -22.136  0.00  0.00    -0.019 C 
ENDBRANCH  20  22
ENDBRANCH  19  20
ENDBRANCH   4  19
TORSDOF 5
ENDMDL
