MODEL 1
REMARK VINA RESULT:     -13.2      0.000      0.000
REMARK  Name = 4887
REMARK  9 active torsions:
REMARK  status: ('A' for Active; 'I' for Inactive)
REMARK    1  A    between atoms: N_2  and  C_8
REMARK    2  A    between atoms: C_3  and  C_23
REMARK    3  A    between atoms: C_14  and  C_20
REMARK    4  A    between atoms: C_22  and  O_28
REMARK    5  A    between atoms: O_28  and  C_29
REMARK    6  A    between atoms: C_29  and  C_30
REMARK    7  A    between atoms: C_30  and  C_31
REMARK    8  A    between atoms: C_31  and  C_32
REMARK    9  A    between atoms: C_32  and  C_33
REMARK                            x       y       z     vdW  Elec       q    Type
REMARK                         _______ _______ _______ _____ _____    ______ ____
ROOT
ATOM      1  O   UNL     1      33.826 -23.148 -18.184  0.00  0.00    -0.270 OA
ATOM      2  N   UNL     1      32.447 -21.487 -17.251  0.00  0.00    -0.278 N 
ATOM      3  C   UNL     1      33.424 -21.991 -18.119  0.00  0.00    +0.250 C 
ATOM      4  H   UNL     1      32.246 -20.528 -17.337  0.00  0.00    +0.155 HD
ENDROOT
BRANCH   2   8
ATOM      5  O   UNL     1      33.727 -22.638 -15.115  0.00  0.00    -0.442 OA
ATOM      6  O   UNL     1      31.730 -24.682 -12.215  0.00  0.00    -0.286 OA
ATOM      7  C   UNL     1      32.363 -22.771 -15.187  0.00  0.00    +0.163 C 
ATOM      8  C   UNL     1      31.723 -22.182 -16.278  0.00  0.00    +0.086 C 
ATOM      9  C   UNL     1      31.618 -23.456 -14.231  0.00  0.00    +0.075 C 
ATOM     10  C   UNL     1      30.338 -22.283 -16.407  0.00  0.00    +0.018 C 
ATOM     11  C   UNL     1      30.231 -23.560 -14.356  0.00  0.00    +0.006 C 
ATOM     12  C   UNL     1      32.319 -24.066 -13.092  0.00  0.00    +0.202 C 
ATOM     13  C   UNL     1      29.593 -22.970 -15.448  0.00  0.00    +0.002 C 
ATOM     14  C   UNL     1      34.400 -23.213 -14.043  0.00  0.00    +0.213 C 
ATOM     15  C   UNL     1      33.785 -23.896 -13.063  0.00  0.00    +0.090 C 
BRANCH  14  20
ATOM     16  N   UNL     1      36.570 -22.857 -15.196  0.00  0.00    -0.107 NA
ATOM     17  N   UNL     1      36.536 -22.924 -12.932  0.00  0.00    -0.084 NA
ATOM     18  N   UNL     1      37.772 -22.693 -14.626  0.00  0.00    -0.140 N 
ATOM     19  N   UNL     1      37.799 -22.725 -13.286  0.00  0.00    -0.022 NA
ATOM     20  C   UNL     1      35.827 -22.997 -14.095  0.00  0.00    +0.109 C 
ATOM     21  H   UNL     1      38.588 -22.556 -15.160  0.00  0.00    +0.197 HD
ENDBRANCH  14  20
ENDBRANCH   2   8
BRANCH   3  23
ATOM     22  C   UNL     1      35.197 -19.115 -20.740  0.00  0.00    +0.139 C 
ATOM     23  C   UNL     1      34.040 -20.991 -19.030  0.00  0.00    +0.054 C 
ATOM     24  C   UNL     1      36.008 -19.966 -19.986  0.00  0.00    +0.037 C 
ATOM     25  C   UNL     1      33.809 -19.203 -20.639  0.00  0.00    +0.037 C 
ATOM     26  C   UNL     1      35.429 -20.903 -19.131  0.00  0.00    +0.008 C 
ATOM     27  C   UNL     1      33.230 -20.141 -19.784  0.00  0.00    +0.008 C 
BRANCH  22  28
ATOM     28  O   UNL     1      35.762 -18.202 -21.576  0.00  0.00    -0.475 OA
BRANCH  28  29
ATOM     29  C   UNL     1      35.176 -18.056 -22.869  0.00  0.00    +0.205 C 
BRANCH  29  30
ATOM     30  C   UNL     1      35.260 -16.594 -23.284  0.00  0.00    +0.048 C 
BRANCH  30  31
ATOM     31  C   UNL     1      35.170 -15.660 -22.078  0.00  0.00    +0.009 C 
BRANCH  31  32
ATOM     32  C   UNL     1      34.933 -14.213 -22.515  0.00  0.00    +0.026 C 
BRANCH  32  33
ATOM     33  C   UNL     1      33.886 -13.539 -21.664  0.00  0.00    -0.022 C 
ATOM     34  C   UNL     1      33.180 -12.445 -22.163  0.00  0.00    -0.004 C 
ATOM     35  C   UNL     1      33.626 -14.008 -20.378  0.00  0.00    -0.004 C 
ATOM     36  C   UNL     1      32.213 -11.820 -21.376  0.00  0.00    -0.000 C 
ATOM     37  C   UNL     1      32.658 -13.385 -19.590  0.00  0.00    -0.000 C 
ATOM     38  C   UNL     1      31.952 -12.291 -20.089  0.00  0.00    -0.000 C 
ENDBRANCH  32  33
ENDBRANCH  31  32
ENDBRANCH  30  31
ENDBRANCH  29  30
ENDBRANCH  28  29
ENDBRANCH  22  28
ENDBRANCH   3  23
TORSDOF 9
ENDMDL
MODEL 2
REMARK VINA RESULT:     -12.9      1.746      3.903
REMARK  Name = 4887
REMARK  9 active torsions:
REMARK  status: ('A' for Active; 'I' for Inactive)
REMARK    1  A    between atoms: N_2  and  C_8
REMARK    2  A    between atoms: C_3  and  C_23
REMARK    3  A    between atoms: C_14  and  C_20
REMARK    4  A    between atoms: C_22  and  O_28
REMARK    5  A    between atoms: O_28  and  C_29
REMARK    6  A    between atoms: C_29  and  C_30
REMARK    7  A    between atoms: C_30  and  C_31
REMARK    8  A    between atoms: C_31  and  C_32
REMARK    9  A    between atoms: C_32  and  C_33
REMARK                            x       y       z     vdW  Elec       q    Type
REMARK                         _______ _______ _______ _____ _____    ______ ____
ROOT
ATOM      1  O   UNL     1      33.816 -23.438 -18.029  0.00  0.00    -0.270 OA
ATOM      2  N   UNL     1      33.966 -21.794 -16.355  0.00  0.00    -0.278 N 
ATOM      3  C   UNL     1      33.943 -22.272 -17.671  0.00  0.00    +0.250 C 
ATOM      4  H   UNL     1      34.076 -20.821 -16.251  0.00  0.00    +0.155 HD
ENDROOT
BRANCH   2   8
ATOM      5  O   UNL     1      31.505 -22.562 -15.420  0.00  0.00    -0.442 OA
ATOM      6  O   UNL     1      31.044 -24.709 -11.990  0.00  0.00    -0.286 OA
ATOM      7  C   UNL     1      32.606 -22.926 -14.687  0.00  0.00    +0.163 C 
ATOM      8  C   UNL     1      33.853 -22.529 -15.172  0.00  0.00    +0.086 C 
ATOM      9  C   UNL     1      32.521 -23.659 -13.506  0.00  0.00    +0.075 C 
ATOM     10  C   UNL     1      35.010 -22.869 -14.471  0.00  0.00    +0.018 C 
ATOM     11  C   UNL     1      33.677 -24.002 -12.801  0.00  0.00    +0.006 C 
ATOM     12  C   UNL     1      31.195 -24.063 -13.018  0.00  0.00    +0.202 C 
ATOM     13  C   UNL     1      34.923 -23.604 -13.288  0.00  0.00    +0.002 C 
ATOM     14  C   UNL     1      30.245 -22.938 -14.966  0.00  0.00    +0.213 C 
ATOM     15  C   UNL     1      30.043 -23.646 -13.842  0.00  0.00    +0.090 C 
BRANCH  14  20
ATOM     16  N   UNL     1      28.762 -23.080 -16.953  0.00  0.00    -0.107 NA
ATOM     17  N   UNL     1      28.499 -21.348 -15.517  0.00  0.00    -0.084 NA
ATOM     18  N   UNL     1      27.786 -22.228 -17.298  0.00  0.00    -0.140 N 
ATOM     19  N   UNL     1      27.596 -21.187 -16.476  0.00  0.00    -0.022 NA
ATOM     20  C   UNL     1      29.180 -22.488 -15.831  0.00  0.00    +0.109 C 
ATOM     21  H   UNL     1      27.242 -22.359 -18.107  0.00  0.00    +0.197 HD
ENDBRANCH  14  20
ENDBRANCH   2   8
BRANCH   3  23
ATOM     22  C   UNL     1      34.440 -19.299 -20.704  0.00  0.00    +0.139 C 
ATOM     23  C   UNL     1      34.115 -21.239 -18.725  0.00  0.00    +0.054 C 
ATOM     24  C   UNL     1      35.556 -19.944 -20.169  0.00  0.00    +0.037 C 
ATOM     25  C   UNL     1      33.163 -19.624 -20.249  0.00  0.00    +0.037 C 
ATOM     26  C   UNL     1      35.394 -20.913 -19.179  0.00  0.00    +0.008 C 
ATOM     27  C   UNL     1      32.999 -20.594 -19.260  0.00  0.00    +0.008 C 
BRANCH  22  28
ATOM     28  O   UNL     1      34.599 -18.355 -21.671  0.00  0.00    -0.475 OA
BRANCH  28  29
ATOM     29  C   UNL     1      35.541 -17.315 -21.414  0.00  0.00    +0.205 C 
BRANCH  29  30
ATOM     30  C   UNL     1      35.717 -16.488 -22.680  0.00  0.00    +0.048 C 
BRANCH  30  31
ATOM     31  C   UNL     1      35.221 -15.055 -22.490  0.00  0.00    +0.009 C 
BRANCH  31  32
ATOM     32  C   UNL     1      34.884 -14.776 -21.023  0.00  0.00    +0.026 C 
BRANCH  32  33
ATOM     33  C   UNL     1      33.848 -13.688 -20.888  0.00  0.00    -0.022 C 
ATOM     34  C   UNL     1      33.773 -12.674 -21.842  0.00  0.00    -0.004 C 
ATOM     35  C   UNL     1      32.965 -13.696 -19.809  0.00  0.00    -0.004 C 
ATOM     36  C   UNL     1      32.816 -11.667 -21.717  0.00  0.00    -0.000 C 
ATOM     37  C   UNL     1      32.007 -12.691 -19.683  0.00  0.00    -0.000 C 
ATOM     38  C   UNL     1      31.932 -11.676 -20.637  0.00  0.00    -0.000 C 
ENDBRANCH  32  33
ENDBRANCH  31  32
ENDBRANCH  30  31
ENDBRANCH  29  30
ENDBRANCH  28  29
ENDBRANCH  22  28
ENDBRANCH   3  23
TORSDOF 9
ENDMDL
MODEL 3
REMARK VINA RESULT:     -12.9      1.809      4.183
REMARK  Name = 4887
REMARK  9 active torsions:
REMARK  status: ('A' for Active; 'I' for Inactive)
REMARK    1  A    between atoms: N_2  and  C_8
REMARK    2  A    between atoms: C_3  and  C_23
REMARK    3  A    between atoms: C_14  and  C_20
REMARK    4  A    between atoms: C_22  and  O_28
REMARK    5  A    between atoms: O_28  and  C_29
REMARK    6  A    between atoms: C_29  and  C_30
REMARK    7  A    between atoms: C_30  and  C_31
REMARK    8  A    between atoms: C_31  and  C_32
REMARK    9  A    between atoms: C_32  and  C_33
REMARK                            x       y       z     vdW  Elec       q    Type
REMARK                         _______ _______ _______ _____ _____    ______ ____
ROOT
ATOM      1  O   UNL     1      33.818 -23.370 -18.141  0.00  0.00    -0.270 OA
ATOM      2  N   UNL     1      34.089 -21.787 -16.424  0.00  0.00    -0.278 N 
ATOM      3  C   UNL     1      33.992 -22.220 -17.752  0.00  0.00    +0.250 C 
ATOM      4  H   UNL     1      34.229 -20.821 -16.294  0.00  0.00    +0.155 HD
ENDROOT
BRANCH   2   8
ATOM      5  O   UNL     1      31.659 -22.621 -15.464  0.00  0.00    -0.442 OA
ATOM      6  O   UNL     1      31.300 -24.874 -12.090  0.00  0.00    -0.286 OA
ATOM      7  C   UNL     1      32.780 -22.988 -14.764  0.00  0.00    +0.163 C 
ATOM      8  C   UNL     1      34.011 -22.558 -15.261  0.00  0.00    +0.086 C 
ATOM      9  C   UNL     1      32.730 -23.757 -13.603  0.00  0.00    +0.075 C 
ATOM     10  C   UNL     1      35.187 -22.899 -14.594  0.00  0.00    +0.018 C 
ATOM     11  C   UNL     1      33.905 -24.101 -12.931  0.00  0.00    +0.006 C 
ATOM     12  C   UNL     1      31.420 -24.196 -13.102  0.00  0.00    +0.202 C 
ATOM     13  C   UNL     1      35.135 -23.669 -13.431  0.00  0.00    +0.002 C 
ATOM     14  C   UNL     1      30.415 -23.030 -14.997  0.00  0.00    +0.213 C 
ATOM     15  C   UNL     1      30.246 -23.773 -13.891  0.00  0.00    +0.090 C 
BRANCH  14  20
ATOM     16  N   UNL     1      28.837 -23.186 -16.909  0.00  0.00    -0.107 NA
ATOM     17  N   UNL     1      28.697 -21.401 -15.521  0.00  0.00    -0.084 NA
ATOM     18  N   UNL     1      27.874 -22.312 -17.237  0.00  0.00    -0.140 N 
ATOM     19  N   UNL     1      27.756 -21.240 -16.443  0.00  0.00    -0.022 NA
ATOM     20  C   UNL     1      29.325 -22.572 -15.827  0.00  0.00    +0.109 C 
ATOM     21  H   UNL     1      27.289 -22.451 -18.016  0.00  0.00    +0.197 HD
ENDBRANCH  14  20
ENDBRANCH   2   8
BRANCH   3  23
ATOM     22  C   UNL     1      34.426 -19.163 -20.710  0.00  0.00    +0.139 C 
ATOM     23  C   UNL     1      34.143 -21.157 -18.780  0.00  0.00    +0.054 C 
ATOM     24  C   UNL     1      33.154 -19.546 -20.283  0.00  0.00    +0.037 C 
ATOM     25  C   UNL     1      35.556 -19.778 -20.172  0.00  0.00    +0.037 C 
ATOM     26  C   UNL     1      33.012 -20.543 -19.319  0.00  0.00    +0.008 C 
ATOM     27  C   UNL     1      35.416 -20.775 -19.207  0.00  0.00    +0.008 C 
BRANCH  22  28
ATOM     28  O   UNL     1      34.563 -18.188 -21.649  0.00  0.00    -0.475 OA
BRANCH  28  29
ATOM     29  C   UNL     1      35.412 -18.473 -22.760  0.00  0.00    +0.205 C 
BRANCH  29  30
ATOM     30  C   UNL     1      34.563 -18.549 -24.021  0.00  0.00    +0.048 C 
BRANCH  30  31
ATOM     31  C   UNL     1      33.901 -17.208 -24.336  0.00  0.00    +0.009 C 
BRANCH  31  32
ATOM     32  C   UNL     1      34.937 -16.084 -24.416  0.00  0.00    +0.026 C 
BRANCH  32  33
ATOM     33  C   UNL     1      34.560 -14.916 -23.540  0.00  0.00    -0.022 C 
ATOM     34  C   UNL     1      35.009 -14.861 -22.221  0.00  0.00    -0.004 C 
ATOM     35  C   UNL     1      33.761 -13.893 -24.048  0.00  0.00    -0.004 C 
ATOM     36  C   UNL     1      34.659 -13.782 -21.409  0.00  0.00    -0.000 C 
ATOM     37  C   UNL     1      33.412 -12.812 -23.238  0.00  0.00    -0.000 C 
ATOM     38  C   UNL     1      33.861 -12.757 -21.919  0.00  0.00    -0.000 C 
ENDBRANCH  32  33
ENDBRANCH  31  32
ENDBRANCH  30  31
ENDBRANCH  29  30
ENDBRANCH  28  29
ENDBRANCH  22  28
ENDBRANCH   3  23
TORSDOF 9
ENDMDL
MODEL 4
REMARK VINA RESULT:     -12.7      1.276      1.910
REMARK  Name = 4887
REMARK  9 active torsions:
REMARK  status: ('A' for Active; 'I' for Inactive)
REMARK    1  A    between atoms: N_2  and  C_8
REMARK    2  A    between atoms: C_3  and  C_23
REMARK    3  A    between atoms: C_14  and  C_20
REMARK    4  A    between atoms: C_22  and  O_28
REMARK    5  A    between atoms: O_28  and  C_29
REMARK    6  A    between atoms: C_29  and  C_30
REMARK    7  A    between atoms: C_30  and  C_31
REMARK    8  A    between atoms: C_31  and  C_32
REMARK    9  A    between atoms: C_32  and  C_33
REMARK                            x       y       z     vdW  Elec       q    Type
REMARK                         _______ _______ _______ _____ _____    ______ ____
ROOT
ATOM      1  O   UNL     1      33.814 -23.138 -18.403  0.00  0.00    -0.270 OA
ATOM      2  N   UNL     1      32.597 -21.443 -17.321  0.00  0.00    -0.278 N 
ATOM      3  C   UNL     1      33.513 -21.960 -18.245  0.00  0.00    +0.250 C 
ATOM      4  H   UNL     1      32.477 -20.466 -17.332  0.00  0.00    +0.155 HD
ENDROOT
BRANCH   2   8
ATOM      5  O   UNL     1      33.789 -22.652 -15.168  0.00  0.00    -0.442 OA
ATOM      6  O   UNL     1      31.670 -24.722 -12.374  0.00  0.00    -0.286 OA
ATOM      7  C   UNL     1      32.428 -22.764 -15.286  0.00  0.00    +0.163 C 
ATOM      8  C   UNL     1      31.831 -22.145 -16.386  0.00  0.00    +0.086 C 
ATOM      9  C   UNL     1      31.642 -23.456 -14.368  0.00  0.00    +0.075 C 
ATOM     10  C   UNL     1      30.450 -22.223 -16.562  0.00  0.00    +0.018 C 
ATOM     11  C   UNL     1      30.258 -23.537 -14.540  0.00  0.00    +0.006 C 
ATOM     12  C   UNL     1      32.297 -24.098 -13.220  0.00  0.00    +0.202 C 
ATOM     13  C   UNL     1      29.664 -22.917 -15.640  0.00  0.00    +0.002 C 
ATOM     14  C   UNL     1      34.419 -23.257 -14.085  0.00  0.00    +0.213 C 
ATOM     15  C   UNL     1      33.763 -23.950 -13.139  0.00  0.00    +0.090 C 
BRANCH  14  20
ATOM     16  N   UNL     1      36.665 -23.161 -15.141  0.00  0.00    -0.107 NA
ATOM     17  N   UNL     1      36.484 -22.745 -12.922  0.00  0.00    -0.084 NA
ATOM     18  N   UNL     1      37.831 -22.883 -14.540  0.00  0.00    -0.140 N 
ATOM     19  N   UNL     1      37.771 -22.630 -13.226  0.00  0.00    -0.022 NA
ATOM     20  C   UNL     1      35.850 -23.062 -14.087  0.00  0.00    +0.109 C 
ATOM     21  H   UNL     1      38.681 -22.866 -15.036  0.00  0.00    +0.197 HD
ENDBRANCH  14  20
ENDBRANCH   2   8
BRANCH   3  23
ATOM     22  C   UNL     1      35.483 -19.055 -20.686  0.00  0.00    +0.139 C 
ATOM     23  C   UNL     1      34.198 -20.950 -19.094  0.00  0.00    +0.054 C 
ATOM     24  C   UNL     1      36.232 -19.904 -19.872  0.00  0.00    +0.037 C 
ATOM     25  C   UNL     1      34.092 -19.152 -20.705  0.00  0.00    +0.037 C 
ATOM     26  C   UNL     1      35.589 -20.852 -19.075  0.00  0.00    +0.008 C 
ATOM     27  C   UNL     1      33.449 -20.100 -19.909  0.00  0.00    +0.008 C 
BRANCH  22  28
ATOM     28  O   UNL     1      36.111 -18.132 -21.465  0.00  0.00    -0.475 OA
BRANCH  28  29
ATOM     29  C   UNL     1      35.655 -16.783 -21.369  0.00  0.00    +0.205 C 
BRANCH  29  30
ATOM     30  C   UNL     1      35.188 -16.323 -22.742  0.00  0.00    +0.048 C 
BRANCH  30  31
ATOM     31  C   UNL     1      34.906 -14.821 -22.768  0.00  0.00    +0.009 C 
BRANCH  31  32
ATOM     32  C   UNL     1      33.960 -14.454 -23.913  0.00  0.00    +0.026 C 
BRANCH  32  33
ATOM     33  C   UNL     1      33.983 -12.974 -24.201  0.00  0.00    -0.022 C 
ATOM     34  C   UNL     1      34.162 -12.064 -23.160  0.00  0.00    -0.004 C 
ATOM     35  C   UNL     1      33.825 -12.515 -25.508  0.00  0.00    -0.004 C 
ATOM     36  C   UNL     1      34.183 -10.695 -23.425  0.00  0.00    -0.000 C 
ATOM     37  C   UNL     1      33.846 -11.146 -25.774  0.00  0.00    -0.000 C 
ATOM     38  C   UNL     1      34.025 -10.236 -24.733  0.00  0.00    -0.000 C 
ENDBRANCH  32  33
ENDBRANCH  31  32
ENDBRANCH  30  31
ENDBRANCH  29  30
ENDBRANCH  28  29
ENDBRANCH  22  28
ENDBRANCH   3  23
TORSDOF 9
ENDMDL
MODEL 5
REMARK VINA RESULT:     -12.6      1.617      3.856
REMARK  Name = 4887
REMARK  9 active torsions:
REMARK  status: ('A' for Active; 'I' for Inactive)
REMARK    1  A    between atoms: N_2  and  C_8
REMARK    2  A    between atoms: C_3  and  C_23
REMARK    3  A    between atoms: C_14  and  C_20
REMARK    4  A    between atoms: C_22  and  O_28
REMARK    5  A    between atoms: O_28  and  C_29
REMARK    6  A    between atoms: C_29  and  C_30
REMARK    7  A    between atoms: C_30  and  C_31
REMARK    8  A    between atoms: C_31  and  C_32
REMARK    9  A    between atoms: C_32  and  C_33
REMARK                            x       y       z     vdW  Elec       q    Type
REMARK                         _______ _______ _______ _____ _____    ______ ____
ROOT
ATOM      1  O   UNL     1      34.430 -22.778 -17.884  0.00  0.00    -0.270 OA
ATOM      2  N   UNL     1      35.844 -21.304 -16.721  0.00  0.00    -0.278 N 
ATOM      3  C   UNL     1      35.042 -21.720 -17.790  0.00  0.00    +0.250 C 
ATOM      4  H   UNL     1      36.263 -20.418 -16.813  0.00  0.00    +0.155 HD
ENDROOT
BRANCH   2   8
ATOM      5  O   UNL     1      33.810 -22.251 -15.144  0.00  0.00    -0.442 OA
ATOM      6  O   UNL     1      34.493 -24.280 -11.680  0.00  0.00    -0.286 OA
ATOM      7  C   UNL     1      35.097 -22.481 -14.728  0.00  0.00    +0.163 C 
ATOM      8  C   UNL     1      36.124 -21.995 -15.538  0.00  0.00    +0.086 C 
ATOM      9  C   UNL     1      35.402 -23.167 -13.555  0.00  0.00    +0.075 C 
ATOM     10  C   UNL     1      37.454 -22.197 -15.169  0.00  0.00    +0.018 C 
ATOM     11  C   UNL     1      36.732 -23.372 -13.181  0.00  0.00    +0.006 C 
ATOM     12  C   UNL     1      34.300 -23.668 -12.722  0.00  0.00    +0.202 C 
ATOM     13  C   UNL     1      37.757 -22.884 -13.993  0.00  0.00    +0.002 C 
ATOM     14  C   UNL     1      32.760 -22.720 -14.362  0.00  0.00    +0.213 C 
ATOM     15  C   UNL     1      32.935 -23.394 -13.213  0.00  0.00    +0.090 C 
BRANCH  14  20
ATOM     16  N   UNL     1      30.314 -22.308 -14.243  0.00  0.00    -0.107 NA
ATOM     17  N   UNL     1      31.345 -22.182 -16.256  0.00  0.00    -0.084 NA
ATOM     18  N   UNL     1      29.493 -22.007 -15.259  0.00  0.00    -0.140 N 
ATOM     19  N   UNL     1      30.061 -21.923 -16.470  0.00  0.00    -0.022 NA
ATOM     20  C   UNL     1      31.464 -22.407 -14.916  0.00  0.00    +0.109 C 
ATOM     21  H   UNL     1      28.530 -21.858 -15.124  0.00  0.00    +0.197 HD
ENDBRANCH  14  20
ENDBRANCH   2   8
BRANCH   3  23
ATOM     22  C   UNL     1      34.803 -18.984 -21.068  0.00  0.00    +0.139 C 
ATOM     23  C   UNL     1      34.959 -20.768 -18.929  0.00  0.00    +0.054 C 
ATOM     24  C   UNL     1      33.636 -19.497 -20.500  0.00  0.00    +0.037 C 
ATOM     25  C   UNL     1      36.048 -19.363 -20.566  0.00  0.00    +0.037 C 
ATOM     26  C   UNL     1      33.714 -20.389 -19.432  0.00  0.00    +0.008 C 
ATOM     27  C   UNL     1      36.127 -20.255 -19.497  0.00  0.00    +0.008 C 
BRANCH  22  28
ATOM     28  O   UNL     1      34.727 -18.111 -22.109  0.00  0.00    -0.475 OA
BRANCH  28  29
ATOM     29  C   UNL     1      35.745 -17.115 -22.197  0.00  0.00    +0.205 C 
BRANCH  29  30
ATOM     30  C   UNL     1      35.170 -15.885 -22.885  0.00  0.00    +0.048 C 
BRANCH  30  31
ATOM     31  C   UNL     1      34.950 -14.739 -21.897  0.00  0.00    +0.009 C 
BRANCH  31  32
ATOM     32  C   UNL     1      34.213 -13.572 -22.559  0.00  0.00    +0.026 C 
BRANCH  32  33
ATOM     33  C   UNL     1      33.320 -12.852 -21.580  0.00  0.00    -0.022 C 
ATOM     34  C   UNL     1      32.972 -13.462 -20.375  0.00  0.00    -0.004 C 
ATOM     35  C   UNL     1      32.842 -11.577 -21.879  0.00  0.00    -0.004 C 
ATOM     36  C   UNL     1      32.145 -12.797 -19.469  0.00  0.00    -0.000 C 
ATOM     37  C   UNL     1      32.016 -10.911 -20.974  0.00  0.00    -0.000 C 
ATOM     38  C   UNL     1      31.668 -11.521 -19.769  0.00  0.00    -0.000 C 
ENDBRANCH  32  33
ENDBRANCH  31  32
ENDBRANCH  30  31
ENDBRANCH  29  30
ENDBRANCH  28  29
ENDBRANCH  22  28
ENDBRANCH   3  23
TORSDOF 9
ENDMDL
MODEL 6
REMARK VINA RESULT:     -12.0      6.468     13.024
REMARK  Name = 4887
REMARK  9 active torsions:
REMARK  status: ('A' for Active; 'I' for Inactive)
REMARK    1  A    between atoms: N_2  and  C_8
REMARK    2  A    between atoms: C_3  and  C_23
REMARK    3  A    between atoms: C_14  and  C_20
REMARK    4  A    between atoms: C_22  and  O_28
REMARK    5  A    between atoms: O_28  and  C_29
REMARK    6  A    between atoms: C_29  and  C_30
REMARK    7  A    between atoms: C_30  and  C_31
REMARK    8  A    between atoms: C_31  and  C_32
REMARK    9  A    between atoms: C_32  and  C_33
REMARK                            x       y       z     vdW  Elec       q    Type
REMARK                         _______ _______ _______ _____ _____    ______ ____
ROOT
ATOM      1  O   UNL     1      33.455 -11.988 -25.515  0.00  0.00    -0.270 OA
ATOM      2  N   UNL     1      34.818 -11.161 -23.788  0.00  0.00    -0.278 N 
ATOM      3  C   UNL     1      34.179 -12.154 -24.540  0.00  0.00    +0.250 C 
ATOM      4  H   UNL     1      35.366 -11.476 -23.033  0.00  0.00    +0.155 HD
ENDROOT
BRANCH   2   8
ATOM      5  O   UNL     1      33.140  -9.600 -22.281  0.00  0.00    -0.442 OA
ATOM      6  O   UNL     1      32.917  -5.560 -22.737  0.00  0.00    -0.286 OA
ATOM      7  C   UNL     1      33.922  -8.973 -23.217  0.00  0.00    +0.163 C 
ATOM      8  C   UNL     1      34.772  -9.777 -23.978  0.00  0.00    +0.086 C 
ATOM      9  C   UNL     1      33.897  -7.596 -23.426  0.00  0.00    +0.075 C 
ATOM     10  C   UNL     1      35.593  -9.198 -24.946  0.00  0.00    +0.018 C 
ATOM     11  C   UNL     1      34.716  -7.012 -24.393  0.00  0.00    +0.006 C 
ATOM     12  C   UNL     1      32.992  -6.775 -22.610  0.00  0.00    +0.202 C 
ATOM     13  C   UNL     1      35.565  -7.818 -25.153  0.00  0.00    +0.002 C 
ATOM     14  C   UNL     1      32.279  -8.832 -21.505  0.00  0.00    +0.213 C 
ATOM     15  C   UNL     1      32.171  -7.498 -21.618  0.00  0.00    +0.090 C 
BRANCH  14  20
ATOM     16  N   UNL     1      30.760 -10.683 -20.849  0.00  0.00    -0.107 NA
ATOM     17  N   UNL     1      31.533  -9.286 -19.242  0.00  0.00    -0.084 NA
ATOM     18  N   UNL     1      30.321 -10.973 -19.615  0.00  0.00    -0.140 N 
ATOM     19  N   UNL     1      30.755 -10.171 -18.633  0.00  0.00    -0.022 NA
ATOM     20  C   UNL     1      31.516  -9.620 -20.565  0.00  0.00    +0.109 C 
ATOM     21  H   UNL     1      29.717 -11.730 -19.442  0.00  0.00    +0.197 HD
ENDBRANCH  14  20
ENDBRANCH   2   8
BRANCH   3  23
ATOM     22  C   UNL     1      34.815 -16.161 -23.188  0.00  0.00    +0.139 C 
ATOM     23  C   UNL     1      34.400 -13.547 -24.070  0.00  0.00    +0.054 C 
ATOM     24  C   UNL     1      35.079 -15.087 -22.337  0.00  0.00    +0.037 C 
ATOM     25  C   UNL     1      34.343 -15.927 -24.480  0.00  0.00    +0.037 C 
ATOM     26  C   UNL     1      34.872 -13.780 -22.779  0.00  0.00    +0.008 C 
ATOM     27  C   UNL     1      34.135 -14.621 -24.921  0.00  0.00    +0.008 C 
BRANCH  22  28
ATOM     28  O   UNL     1      35.015 -17.436 -22.757  0.00  0.00    -0.475 OA
BRANCH  28  29
ATOM     29  C   UNL     1      36.219 -17.696 -22.036  0.00  0.00    +0.205 C 
BRANCH  29  30
ATOM     30  C   UNL     1      35.867 -18.011 -20.589  0.00  0.00    +0.048 C 
BRANCH  30  31
ATOM     31  C   UNL     1      35.570 -19.497 -20.392  0.00  0.00    +0.009 C 
BRANCH  31  32
ATOM     32  C   UNL     1      36.557 -20.133 -19.410  0.00  0.00    +0.026 C 
BRANCH  32  33
ATOM     33  C   UNL     1      35.847 -20.929 -18.345  0.00  0.00    -0.022 C 
ATOM     34  C   UNL     1      34.524 -21.326 -18.538  0.00  0.00    -0.004 C 
ATOM     35  C   UNL     1      36.511 -21.268 -17.168  0.00  0.00    -0.004 C 
ATOM     36  C   UNL     1      33.866 -22.062 -17.553  0.00  0.00    -0.000 C 
ATOM     37  C   UNL     1      35.855 -22.005 -16.182  0.00  0.00    -0.000 C 
ATOM     38  C   UNL     1      34.532 -22.402 -16.375  0.00  0.00    -0.000 C 
ENDBRANCH  32  33
ENDBRANCH  31  32
ENDBRANCH  30  31
ENDBRANCH  29  30
ENDBRANCH  28  29
ENDBRANCH  22  28
ENDBRANCH   3  23
TORSDOF 9
ENDMDL
MODEL 7
REMARK VINA RESULT:     -11.9      1.944      4.153
REMARK  Name = 4887
REMARK  9 active torsions:
REMARK  status: ('A' for Active; 'I' for Inactive)
REMARK    1  A    between atoms: N_2  and  C_8
REMARK    2  A    between atoms: C_3  and  C_23
REMARK    3  A    between atoms: C_14  and  C_20
REMARK    4  A    between atoms: C_22  and  O_28
REMARK    5  A    between atoms: O_28  and  C_29
REMARK    6  A    between atoms: C_29  and  C_30
REMARK    7  A    between atoms: C_30  and  C_31
REMARK    8  A    between atoms: C_31  and  C_32
REMARK    9  A    between atoms: C_32  and  C_33
REMARK                            x       y       z     vdW  Elec       q    Type
REMARK                         _______ _______ _______ _____ _____    ______ ____
ROOT
ATOM      1  O   UNL     1      34.539 -22.766 -18.069  0.00  0.00    -0.270 OA
ATOM      2  N   UNL     1      35.791 -21.213 -16.826  0.00  0.00    -0.278 N 
ATOM      3  C   UNL     1      35.059 -21.664 -17.931  0.00  0.00    +0.250 C 
ATOM      4  H   UNL     1      36.138 -20.294 -16.884  0.00  0.00    +0.155 HD
ENDROOT
BRANCH   2   8
ATOM      5  O   UNL     1      33.783 -22.227 -15.257  0.00  0.00    -0.442 OA
ATOM      6  O   UNL     1      34.521 -24.275 -11.816  0.00  0.00    -0.286 OA
ATOM      7  C   UNL     1      35.075 -22.429 -14.846  0.00  0.00    +0.163 C 
ATOM      8  C   UNL     1      36.089 -21.909 -15.651  0.00  0.00    +0.086 C 
ATOM      9  C   UNL     1      35.400 -23.120 -13.680  0.00  0.00    +0.075 C 
ATOM     10  C   UNL     1      37.424 -22.082 -15.285  0.00  0.00    +0.018 C 
ATOM     11  C   UNL     1      36.735 -23.296 -13.310  0.00  0.00    +0.006 C 
ATOM     12  C   UNL     1      34.311 -23.657 -12.851  0.00  0.00    +0.202 C 
ATOM     13  C   UNL     1      37.746 -22.774 -14.117  0.00  0.00    +0.002 C 
ATOM     14  C   UNL     1      32.746 -22.730 -14.479  0.00  0.00    +0.213 C 
ATOM     15  C   UNL     1      32.939 -23.412 -13.338  0.00  0.00    +0.090 C 
BRANCH  14  20
ATOM     16  N   UNL     1      31.152 -22.210 -16.311  0.00  0.00    -0.107 NA
ATOM     17  N   UNL     1      30.361 -22.391 -14.197  0.00  0.00    -0.084 NA
ATOM     18  N   UNL     1      29.830 -22.015 -16.204  0.00  0.00    -0.140 N 
ATOM     19  N   UNL     1      29.319 -22.113 -14.969  0.00  0.00    -0.022 NA
ATOM     20  C   UNL     1      31.441 -22.443 -15.028  0.00  0.00    +0.109 C 
ATOM     21  H   UNL     1      29.268 -21.812 -16.986  0.00  0.00    +0.197 HD
ENDBRANCH  14  20
ENDBRANCH   2   8
BRANCH   3  23
ATOM     22  C   UNL     1      34.699 -18.873 -21.150  0.00  0.00    +0.139 C 
ATOM     23  C   UNL     1      34.934 -20.694 -19.050  0.00  0.00    +0.054 C 
ATOM     24  C   UNL     1      33.555 -19.440 -20.588  0.00  0.00    +0.037 C 
ATOM     25  C   UNL     1      35.960 -19.216 -20.662  0.00  0.00    +0.037 C 
ATOM     26  C   UNL     1      33.673 -20.351 -19.538  0.00  0.00    +0.008 C 
ATOM     27  C   UNL     1      36.078 -20.126 -19.612  0.00  0.00    +0.008 C 
BRANCH  22  28
ATOM     28  O   UNL     1      34.584 -17.983 -22.173  0.00  0.00    -0.475 OA
BRANCH  28  29
ATOM     29  C   UNL     1      35.777 -17.327 -22.599  0.00  0.00    +0.205 C 
BRANCH  29  30
ATOM     30  C   UNL     1      35.641 -15.835 -22.329  0.00  0.00    +0.048 C 
BRANCH  30  31
ATOM     31  C   UNL     1      34.526 -15.210 -23.165  0.00  0.00    +0.009 C 
BRANCH  31  32
ATOM     32  C   UNL     1      34.052 -13.888 -22.557  0.00  0.00    +0.026 C 
BRANCH  32  33
ATOM     33  C   UNL     1      34.019 -12.783 -23.583  0.00  0.00    -0.022 C 
ATOM     34  C   UNL     1      34.173 -11.456 -23.183  0.00  0.00    -0.004 C 
ATOM     35  C   UNL     1      33.835 -13.088 -24.931  0.00  0.00    -0.004 C 
ATOM     36  C   UNL     1      34.142 -10.434 -24.131  0.00  0.00    -0.000 C 
ATOM     37  C   UNL     1      33.805 -12.066 -25.880  0.00  0.00    -0.000 C 
ATOM     38  C   UNL     1      33.958 -10.739 -25.480  0.00  0.00    -0.000 C 
ENDBRANCH  32  33
ENDBRANCH  31  32
ENDBRANCH  30  31
ENDBRANCH  29  30
ENDBRANCH  28  29
ENDBRANCH  22  28
ENDBRANCH   3  23
TORSDOF 9
ENDMDL
MODEL 8
REMARK VINA RESULT:     -11.7      6.038     12.501
REMARK  Name = 4887
REMARK  9 active torsions:
REMARK  status: ('A' for Active; 'I' for Inactive)
REMARK    1  A    between atoms: N_2  and  C_8
REMARK    2  A    between atoms: C_3  and  C_23
REMARK    3  A    between atoms: C_14  and  C_20
REMARK    4  A    between atoms: C_22  and  O_28
REMARK    5  A    between atoms: O_28  and  C_29
REMARK    6  A    between atoms: C_29  and  C_30
REMARK    7  A    between atoms: C_30  and  C_31
REMARK    8  A    between atoms: C_31  and  C_32
REMARK    9  A    between atoms: C_32  and  C_33
REMARK                            x       y       z     vdW  Elec       q    Type
REMARK                         _______ _______ _______ _____ _____    ______ ____
ROOT
ATOM      1  O   UNL     1      33.502 -13.436 -24.275  0.00  0.00    -0.270 OA
ATOM      2  N   UNL     1      34.651 -11.945 -22.866  0.00  0.00    -0.278 N 
ATOM      3  C   UNL     1      34.211 -13.201 -23.302  0.00  0.00    +0.250 C 
ATOM      4  H   UNL     1      35.218 -11.941 -22.062  0.00  0.00    +0.155 HD
ENDROOT
BRANCH   2   8
ATOM      5  O   UNL     1      33.099 -10.115 -21.538  0.00  0.00    -0.442 OA
ATOM      6  O   UNL     1      32.246  -6.444 -23.082  0.00  0.00    -0.286 OA
ATOM      7  C   UNL     1      33.593  -9.758 -22.767  0.00  0.00    +0.163 C 
ATOM      8  C   UNL     1      34.382 -10.697 -23.433  0.00  0.00    +0.086 C 
ATOM      9  C   UNL     1      33.341  -8.520 -23.354  0.00  0.00    +0.075 C 
ATOM     10  C   UNL     1      34.913 -10.392 -24.686  0.00  0.00    +0.018 C 
ATOM     11  C   UNL     1      33.872  -8.210 -24.608  0.00  0.00    +0.006 C 
ATOM     12  C   UNL     1      32.508  -7.550 -22.629  0.00  0.00    +0.202 C 
ATOM     13  C   UNL     1      34.659  -9.151 -25.273  0.00  0.00    +0.002 C 
ATOM     14  C   UNL     1      32.308  -9.205 -20.845  0.00  0.00    +0.213 C 
ATOM     15  C   UNL     1      31.999  -7.984 -21.313  0.00  0.00    +0.090 C 
BRANCH  14  20
ATOM     16  N   UNL     1      30.927 -10.653 -19.374  0.00  0.00    -0.107 NA
ATOM     17  N   UNL     1      32.394  -9.213 -18.421  0.00  0.00    -0.084 NA
ATOM     18  N   UNL     1      30.940 -10.692 -18.034  0.00  0.00    -0.140 N 
ATOM     19  N   UNL     1      31.794  -9.856 -17.428  0.00  0.00    -0.022 NA
ATOM     20  C   UNL     1      31.854  -9.712 -19.571  0.00  0.00    +0.109 C 
ATOM     21  H   UNL     1      30.356 -11.299 -17.525  0.00  0.00    +0.197 HD
ENDBRANCH  14  20
ENDBRANCH   2   8
BRANCH   3  23
ATOM     22  C   UNL     1      35.459 -16.509 -20.897  0.00  0.00    +0.139 C 
ATOM     23  C   UNL     1      34.645 -14.351 -22.466  0.00  0.00    +0.054 C 
ATOM     24  C   UNL     1      35.038 -15.325 -20.291  0.00  0.00    +0.037 C 
ATOM     25  C   UNL     1      35.473 -16.614 -22.288  0.00  0.00    +0.037 C 
ATOM     26  C   UNL     1      34.631 -14.246 -21.075  0.00  0.00    +0.008 C 
ATOM     27  C   UNL     1      35.066 -15.535 -23.073  0.00  0.00    +0.008 C 
BRANCH  22  28
ATOM     28  O   UNL     1      35.854 -17.562 -20.131  0.00  0.00    -0.475 OA
BRANCH  28  29
ATOM     29  C   UNL     1      35.641 -18.868 -20.665  0.00  0.00    +0.205 C 
BRANCH  29  30
ATOM     30  C   UNL     1      34.221 -19.308 -20.337  0.00  0.00    +0.048 C 
BRANCH  30  31
ATOM     31  C   UNL     1      34.203 -20.415 -19.283  0.00  0.00    +0.009 C 
BRANCH  31  32
ATOM     32  C   UNL     1      35.614 -20.942 -19.011  0.00  0.00    +0.026 C 
BRANCH  32  33
ATOM     33  C   UNL     1      35.770 -21.402 -17.583  0.00  0.00    -0.022 C 
ATOM     34  C   UNL     1      34.721 -22.066 -16.946  0.00  0.00    -0.004 C 
ATOM     35  C   UNL     1      36.961 -21.164 -16.899  0.00  0.00    -0.004 C 
ATOM     36  C   UNL     1      34.864 -22.490 -15.626  0.00  0.00    -0.000 C 
ATOM     37  C   UNL     1      37.105 -21.589 -15.579  0.00  0.00    -0.000 C 
ATOM     38  C   UNL     1      36.056 -22.252 -14.942  0.00  0.00    -0.000 C 
ENDBRANCH  32  33
ENDBRANCH  31  32
ENDBRANCH  30  31
ENDBRANCH  29  30
ENDBRANCH  28  29
ENDBRANCH  22  28
ENDBRANCH   3  23
TORSDOF 9
ENDMDL
MODEL 9
REMARK VINA RESULT:     -11.5      7.082     13.283
REMARK  Name = 4887
REMARK  9 active torsions:
REMARK  status: ('A' for Active; 'I' for Inactive)
REMARK    1  A    between atoms: N_2  and  C_8
REMARK    2  A    between atoms: C_3  and  C_23
REMARK    3  A    between atoms: C_14  and  C_20
REMARK    4  A    between atoms: C_22  and  O_28
REMARK    5  A    between atoms: O_28  and  C_29
REMARK    6  A    between atoms: C_29  and  C_30
REMARK    7  A    between atoms: C_30  and  C_31
REMARK    8  A    between atoms: C_31  and  C_32
REMARK    9  A    between atoms: C_32  and  C_33
REMARK                            x       y       z     vdW  Elec       q    Type
REMARK                         _______ _______ _______ _____ _____    ______ ____
ROOT
ATOM      1  O   UNL     1      35.447  -9.472 -23.684  0.00  0.00    -0.270 OA
ATOM      2  N   UNL     1      33.113  -9.208 -23.601  0.00  0.00    -0.278 N 
ATOM      3  C   UNL     1      34.309  -9.925 -23.733  0.00  0.00    +0.250 C 
ATOM      4  H   UNL     1      32.284  -9.735 -23.666  0.00  0.00    +0.155 HD
ENDROOT
BRANCH   2   8
ATOM      5  O   UNL     1      32.459  -8.248 -21.116  0.00  0.00    -0.442 OA
ATOM      6  O   UNL     1      31.969  -4.275 -20.368  0.00  0.00    -0.286 OA
ATOM      7  C   UNL     1      32.621  -7.337 -22.128  0.00  0.00    +0.163 C 
ATOM      8  C   UNL     1      32.953  -7.836 -23.388  0.00  0.00    +0.086 C 
ATOM      9  C   UNL     1      32.468  -5.964 -21.943  0.00  0.00    +0.075 C 
ATOM     10  C   UNL     1      33.130  -6.959 -24.458  0.00  0.00    +0.018 C 
ATOM     11  C   UNL     1      32.645  -5.082 -23.011  0.00  0.00    +0.006 C 
ATOM     12  C   UNL     1      32.118  -5.467 -20.605  0.00  0.00    +0.202 C 
ATOM     13  C   UNL     1      32.977  -5.584 -24.270  0.00  0.00    +0.002 C 
ATOM     14  C   UNL     1      32.127  -7.787 -19.847  0.00  0.00    +0.213 C 
ATOM     15  C   UNL     1      31.955  -6.488 -19.552  0.00  0.00    +0.090 C 
BRANCH  14  20
ATOM     16  N   UNL     1      32.680  -8.997 -17.750  0.00  0.00    -0.107 NA
ATOM     17  N   UNL     1      31.068  -9.838 -19.101  0.00  0.00    -0.084 NA
ATOM     18  N   UNL     1      32.124 -10.129 -17.297  0.00  0.00    -0.140 N 
ATOM     19  N   UNL     1      31.164 -10.663 -18.066  0.00  0.00    -0.022 NA
ATOM     20  C   UNL     1      31.986  -8.853 -18.882  0.00  0.00    +0.109 C 
ATOM     21  H   UNL     1      32.403 -10.545 -16.450  0.00  0.00    +0.197 HD
ENDBRANCH  14  20
ENDBRANCH   2   8
BRANCH   3  23
ATOM     22  C   UNL     1      33.859 -14.116 -24.446  0.00  0.00    +0.139 C 
ATOM     23  C   UNL     1      34.152 -11.382 -23.981  0.00  0.00    +0.054 C 
ATOM     24  C   UNL     1      34.175 -13.656 -23.168  0.00  0.00    +0.037 C 
ATOM     25  C   UNL     1      33.690 -13.209 -25.492  0.00  0.00    +0.037 C 
ATOM     26  C   UNL     1      34.322 -12.289 -22.935  0.00  0.00    +0.008 C 
ATOM     27  C   UNL     1      33.836 -11.842 -25.260  0.00  0.00    +0.008 C 
BRANCH  22  28
ATOM     28  O   UNL     1      33.713 -15.450 -24.672  0.00  0.00    -0.475 OA
BRANCH  28  29
ATOM     29  C   UNL     1      34.696 -16.316 -24.105  0.00  0.00    +0.205 C 
BRANCH  29  30
ATOM     30  C   UNL     1      34.212 -17.754 -24.225  0.00  0.00    +0.048 C 
BRANCH  30  31
ATOM     31  C   UNL     1      34.901 -18.667 -23.211  0.00  0.00    +0.009 C 
BRANCH  31  32
ATOM     32  C   UNL     1      34.923 -18.030 -21.819  0.00  0.00    +0.026 C 
BRANCH  32  33
ATOM     33  C   UNL     1      34.926 -19.074 -20.730  0.00  0.00    -0.022 C 
ATOM     34  C   UNL     1      36.134 -19.516 -20.192  0.00  0.00    -0.004 C 
ATOM     35  C   UNL     1      33.722 -19.597 -20.263  0.00  0.00    -0.004 C 
ATOM     36  C   UNL     1      36.138 -20.481 -19.186  0.00  0.00    -0.000 C 
ATOM     37  C   UNL     1      33.725 -20.562 -19.256  0.00  0.00    -0.000 C 
ATOM     38  C   UNL     1      34.933 -21.004 -18.718  0.00  0.00    -0.000 C 
ENDBRANCH  32  33
ENDBRANCH  31  32
ENDBRANCH  30  31
ENDBRANCH  29  30
ENDBRANCH  28  29
ENDBRANCH  22  28
ENDBRANCH   3  23
TORSDOF 9
ENDMDL
