MODEL 1
REMARK VINA RESULT:     -11.7      0.000      0.000
REMARK  Name = 104758
REMARK  11 active torsions:
REMARK  status: ('A' for Active; 'I' for Inactive)
REMARK    1  A    between atoms: C_2  and  N_21
REMARK    2  A    between atoms: C_3  and  C_8
REMARK    3  A    between atoms: N_7  and  CA_10
REMARK    4  A    between atoms: CA_10  and  C_12
REMARK    5  A    between atoms: CA_10  and  CB_15
REMARK    6  A    between atoms: C_12  and  O_13
REMARK    7  A    between atoms: CB_15  and  CG_16
REMARK    8  A    between atoms: CG_16  and  CD_18
REMARK    9  A    between atoms: CD_18  and  OE1_19
REMARK   10  A    between atoms: N_21  and  C_23
REMARK   11  A    between atoms: C_23  and  C_27
REMARK                            x       y       z     vdW  Elec       q    Type
REMARK                         _______ _______ _______ _____ _____    ______ ____
ROOT
ATOM      1  S   UNL     1      34.946 -22.137 -16.652  0.00  0.00    -0.068 S 
ATOM      2  C   UNL     1      35.748 -21.172 -17.817  0.00  0.00    +0.079 C 
ATOM      3  C   UNL     1      36.295 -22.084 -15.600  0.00  0.00    +0.084 C 
ATOM      4  C   UNL     1      37.016 -20.820 -17.411  0.00  0.00    +0.022 C 
ATOM      5  C   UNL     1      37.333 -21.348 -16.127  0.00  0.00    +0.013 C 
ENDROOT
BRANCH   3   8
ATOM      6  O   UNL     1      35.155 -23.126 -13.803  0.00  0.00    -0.270 OA
ATOM      7  N   UNL     1      37.447 -23.023 -13.684  0.00  0.00    -0.293 N 
ATOM      8  C   ACE A   0      36.228 -22.768 -14.349  0.00  0.00    +0.252 C 
ATOM      9  H   UNL     1      38.282 -22.738 -14.121  0.00  0.00    +0.150 HD
BRANCH   7  10
ATOM     10  CA  UNL     1      37.537 -23.677 -12.398  0.00  0.00    +0.172 C 
BRANCH  10  12
ATOM     11  OXT UNL     1      37.332 -21.854 -10.798  0.00  0.00    -0.248 OA
ATOM     12  C   UNL     1      38.036 -22.655 -11.398  0.00  0.00    +0.332 C 
BRANCH  12  13
ATOM     13  O   UNL     1      39.377 -22.749 -11.203  0.00  0.00    -0.479 OA
ATOM     14  H   UNL     1      39.965 -22.653 -11.926  0.00  0.00    +0.295 HD
ENDBRANCH  12  13
ENDBRANCH  10  12
BRANCH  10  15
ATOM     15  CB  UNL     1      38.379 -24.958 -12.445  0.00  0.00    +0.043 C 
BRANCH  15  16
ATOM     16  CG  UNL     1      38.868 -25.388 -13.834  0.00  0.00    +0.112 C 
BRANCH  16  18
ATOM     17  OE2 UNL     1      40.907 -24.096 -13.502  0.00  0.00    -0.250 OA
ATOM     18  CD  UNL     1      40.241 -24.859 -14.187  0.00  0.00    +0.314 C 
BRANCH  18  19
ATOM     19  OE1 UNL     1      40.651 -25.306 -15.404  0.00  0.00    -0.480 OA
ATOM     20  HE1 UNL     1      40.182 -25.058 -16.177  0.00  0.00    +0.295 HD
ENDBRANCH  18  19
ENDBRANCH  16  18
ENDBRANCH  15  16
ENDBRANCH  10  15
ENDBRANCH   7  10
ENDBRANCH   3   8
BRANCH   2  21
ATOM     21  N   UNL     1      35.136 -20.820 -19.013  0.00  0.00    -0.297 N 
ATOM     22  C   UNL     1      33.685 -20.635 -19.087  0.00  0.00    +0.113 C 
BRANCH  21  23
ATOM     23  C   UNL     1      35.890 -20.615 -20.231  0.00  0.00    +0.118 C 
BRANCH  23  27
ATOM     24  O   UNL     1      34.179 -18.553 -24.632  0.00  0.00    -0.209 OA
ATOM     25  N   UNL     1      35.025 -15.394 -22.313  0.00  0.00    -0.290 N 
ATOM     26  N   UNL     1      34.244 -16.275 -24.386  0.00  0.00    -0.322 NA
ATOM     27  C   UNL     1      35.666 -19.244 -20.773  0.00  0.00    -0.002 C 
ATOM     28  C   UNL     1      34.961 -17.790 -22.565  0.00  0.00    +0.108 C 
ATOM     29  C   UNL     1      35.168 -19.078 -22.066  0.00  0.00    +0.011 C 
ATOM     30  C   UNL     1      35.247 -16.665 -21.778  0.00  0.00    +0.062 C 
ATOM     31  C   UNL     1      35.952 -18.128 -19.984  0.00  0.00    -0.001 C 
ATOM     32  C   UNL     1      35.744 -16.842 -20.484  0.00  0.00    +0.015 C 
ATOM     33  C   UNL     1      34.432 -17.571 -23.940  0.00  0.00    +0.207 C 
ATOM     34  C   UNL     1      34.536 -15.285 -23.593  0.00  0.00    +0.174 C 
ATOM     35  C   UNL     1      34.319 -13.885 -24.114  0.00  0.00    +0.085 C 
ATOM     36  H   UNL     1      35.217 -14.588 -21.781  0.00  0.00    +0.154 HD
ENDBRANCH  23  27
ENDBRANCH  21  23
ENDBRANCH   2  21
TORSDOF 11
ENDMDL
MODEL 2
REMARK VINA RESULT:     -11.6      1.445      2.848
REMARK  Name = 104758
REMARK  11 active torsions:
REMARK  status: ('A' for Active; 'I' for Inactive)
REMARK    1  A    between atoms: C_2  and  N_21
REMARK    2  A    between atoms: C_3  and  C_8
REMARK    3  A    between atoms: N_7  and  CA_10
REMARK    4  A    between atoms: CA_10  and  C_12
REMARK    5  A    between atoms: CA_10  and  CB_15
REMARK    6  A    between atoms: C_12  and  O_13
REMARK    7  A    between atoms: CB_15  and  CG_16
REMARK    8  A    between atoms: CG_16  and  CD_18
REMARK    9  A    between atoms: CD_18  and  OE1_19
REMARK   10  A    between atoms: N_21  and  C_23
REMARK   11  A    between atoms: C_23  and  C_27
REMARK                            x       y       z     vdW  Elec       q    Type
REMARK                         _______ _______ _______ _____ _____    ______ ____
ROOT
ATOM      1  S   UNL     1      36.575 -21.047 -17.595  0.00  0.00    -0.068 S 
ATOM      2  C   UNL     1      35.041 -21.007 -18.353  0.00  0.00    +0.079 C 
ATOM      3  C   UNL     1      35.997 -22.080 -16.358  0.00  0.00    +0.084 C 
ATOM      4  C   UNL     1      34.110 -21.765 -17.676  0.00  0.00    +0.022 C 
ATOM      5  C   UNL     1      34.665 -22.386 -16.521  0.00  0.00    +0.013 C 
ENDROOT
BRANCH   3   8
ATOM      6  O   UNL     1      37.881 -21.832 -14.942  0.00  0.00    -0.270 OA
ATOM      7  N   UNL     1      36.662 -23.769 -14.750  0.00  0.00    -0.293 N 
ATOM      8  C   ACE A   0      36.894 -22.503 -15.331  0.00  0.00    +0.252 C 
ATOM      9  H   UNL     1      35.886 -24.287 -15.062  0.00  0.00    +0.150 HD
BRANCH   7  10
ATOM     10  CA  UNL     1      37.500 -24.346 -13.723  0.00  0.00    +0.172 C 
BRANCH  10  12
ATOM     11  OXT UNL     1      39.131 -26.147 -13.864  0.00  0.00    -0.248 OA
ATOM     12  C   UNL     1      38.123 -25.603 -14.293  0.00  0.00    +0.332 C 
BRANCH  12  13
ATOM     13  O   UNL     1      37.405 -26.098 -15.335  0.00  0.00    -0.479 OA
ATOM     14  H   UNL     1      36.786 -25.552 -15.780  0.00  0.00    +0.295 HD
ENDBRANCH  12  13
ENDBRANCH  10  12
BRANCH  10  15
ATOM     15  CB  UNL     1      36.749 -24.570 -12.405  0.00  0.00    +0.043 C 
BRANCH  15  16
ATOM     16  CG  UNL     1      36.139 -23.319 -11.761  0.00  0.00    +0.112 C 
BRANCH  16  18
ATOM     17  OE2 UNL     1      36.640 -23.492  -9.382  0.00  0.00    -0.250 OA
ATOM     18  CD  UNL     1      36.794 -22.925 -10.455  0.00  0.00    +0.314 C 
BRANCH  18  19
ATOM     19  OE1 UNL     1      37.565 -21.814 -10.597  0.00  0.00    -0.480 OA
ATOM     20  HE1 UNL     1      38.252 -21.639  -9.983  0.00  0.00    +0.295 HD
ENDBRANCH  18  19
ENDBRANCH  16  18
ENDBRANCH  15  16
ENDBRANCH  10  15
ENDBRANCH   7  10
ENDBRANCH   3   8
BRANCH   2  21
ATOM     21  N   UNL     1      34.824 -20.277 -19.514  0.00  0.00    -0.297 N 
ATOM     22  C   UNL     1      33.476 -19.842 -19.885  0.00  0.00    +0.113 C 
BRANCH  21  23
ATOM     23  C   UNL     1      35.905 -19.905 -20.401  0.00  0.00    +0.118 C 
BRANCH  23  27
ATOM     24  O   UNL     1      34.086 -18.571 -25.035  0.00  0.00    -0.209 OA
ATOM     25  N   UNL     1      34.705 -15.080 -23.162  0.00  0.00    -0.290 N 
ATOM     26  N   UNL     1      33.996 -16.281 -25.096  0.00  0.00    -0.322 NA
ATOM     27  C   UNL     1      35.592 -18.637 -21.122  0.00  0.00    -0.002 C 
ATOM     28  C   UNL     1      34.803 -17.487 -23.090  0.00  0.00    +0.108 C 
ATOM     29  C   UNL     1      35.093 -18.681 -22.424  0.00  0.00    +0.011 C 
ATOM     30  C   UNL     1      35.008 -16.250 -22.462  0.00  0.00    +0.062 C 
ATOM     31  C   UNL     1      35.799 -17.409 -20.491  0.00  0.00    -0.001 C 
ATOM     32  C   UNL     1      35.508 -16.219 -21.158  0.00  0.00    +0.015 C 
ATOM     33  C   UNL     1      34.268 -17.491 -24.480  0.00  0.00    +0.207 C 
ATOM     34  C   UNL     1      34.217 -15.177 -24.444  0.00  0.00    +0.174 C 
ATOM     35  C   UNL     1      33.910 -13.877 -25.147  0.00  0.00    +0.085 C 
ATOM     36  H   UNL     1      34.839 -14.200 -22.744  0.00  0.00    +0.154 HD
ENDBRANCH  23  27
ENDBRANCH  21  23
ENDBRANCH   2  21
TORSDOF 11
ENDMDL
MODEL 3
REMARK VINA RESULT:     -11.5      1.914      3.344
REMARK  Name = 104758
REMARK  11 active torsions:
REMARK  status: ('A' for Active; 'I' for Inactive)
REMARK    1  A    between atoms: C_2  and  N_21
REMARK    2  A    between atoms: C_3  and  C_8
REMARK    3  A    between atoms: N_7  and  CA_10
REMARK    4  A    between atoms: CA_10  and  C_12
REMARK    5  A    between atoms: CA_10  and  CB_15
REMARK    6  A    between atoms: C_12  and  O_13
REMARK    7  A    between atoms: CB_15  and  CG_16
REMARK    8  A    between atoms: CG_16  and  CD_18
REMARK    9  A    between atoms: CD_18  and  OE1_19
REMARK   10  A    between atoms: N_21  and  C_23
REMARK   11  A    between atoms: C_23  and  C_27
REMARK                            x       y       z     vdW  Elec       q    Type
REMARK                         _______ _______ _______ _____ _____    ______ ____
ROOT
ATOM      1  S   UNL     1      36.677 -20.973 -17.642  0.00  0.00    -0.068 S 
ATOM      2  C   UNL     1      35.145 -20.958 -18.407  0.00  0.00    +0.079 C 
ATOM      3  C   UNL     1      36.108 -22.008 -16.403  0.00  0.00    +0.084 C 
ATOM      4  C   UNL     1      34.222 -21.726 -17.731  0.00  0.00    +0.022 C 
ATOM      5  C   UNL     1      34.781 -22.334 -16.570  0.00  0.00    +0.013 C 
ENDROOT
BRANCH   3   8
ATOM      6  O   UNL     1      37.906 -21.679 -14.895  0.00  0.00    -0.270 OA
ATOM      7  N   UNL     1      36.883 -23.735 -14.887  0.00  0.00    -0.293 N 
ATOM      8  C   ACE A   0      37.006 -22.414 -15.370  0.00  0.00    +0.252 C 
ATOM      9  H   UNL     1      36.174 -24.304 -15.267  0.00  0.00    +0.150 HD
BRANCH   7  10
ATOM     10  CA  UNL     1      37.738 -24.299 -13.868  0.00  0.00    +0.172 C 
BRANCH  10  12
ATOM     11  OXT UNL     1      39.250 -26.205 -13.971  0.00  0.00    -0.248 OA
ATOM     12  C   UNL     1      38.256 -25.625 -14.386  0.00  0.00    +0.332 C 
BRANCH  12  13
ATOM     13  O   UNL     1      37.457 -26.135 -15.360  0.00  0.00    -0.479 OA
ATOM     14  H   UNL     1      37.753 -26.857 -15.879  0.00  0.00    +0.295 HD
ENDBRANCH  12  13
ENDBRANCH  10  12
BRANCH  10  15
ATOM     15  CB  UNL     1      37.046 -24.397 -12.503  0.00  0.00    +0.043 C 
BRANCH  15  16
ATOM     16  CG  UNL     1      37.908 -24.029 -11.288  0.00  0.00    +0.112 C 
BRANCH  16  18
ATOM     17  OE2 UNL     1      36.519 -23.438  -9.375  0.00  0.00    -0.250 OA
ATOM     18  CD  UNL     1      37.223 -23.095 -10.315  0.00  0.00    +0.314 C 
BRANCH  18  19
ATOM     19  OE1 UNL     1      37.448 -21.792 -10.630  0.00  0.00    -0.480 OA
ATOM     20  HE1 UNL     1      37.209 -21.466 -11.476  0.00  0.00    +0.295 HD
ENDBRANCH  18  19
ENDBRANCH  16  18
ENDBRANCH  15  16
ENDBRANCH  10  15
ENDBRANCH   7  10
ENDBRANCH   3   8
BRANCH   2  21
ATOM     21  N   UNL     1      34.923 -20.236 -19.572  0.00  0.00    -0.297 N 
ATOM     22  C   UNL     1      33.564 -19.881 -19.987  0.00  0.00    +0.113 C 
BRANCH  21  23
ATOM     23  C   UNL     1      36.008 -19.796 -20.422  0.00  0.00    +0.118 C 
BRANCH  23  27
ATOM     24  O   UNL     1      35.281 -14.800 -19.386  0.00  0.00    -0.209 OA
ATOM     25  N   UNL     1      34.555 -15.120 -23.316  0.00  0.00    -0.290 N 
ATOM     26  N   UNL     1      34.696 -13.777 -21.352  0.00  0.00    -0.322 NA
ATOM     27  C   UNL     1      35.626 -18.572 -21.185  0.00  0.00    -0.002 C 
ATOM     28  C   UNL     1      35.169 -16.204 -21.253  0.00  0.00    +0.108 C 
ATOM     29  C   UNL     1      35.527 -17.344 -20.529  0.00  0.00    +0.011 C 
ATOM     30  C   UNL     1      34.909 -16.284 -22.629  0.00  0.00    +0.062 C 
ATOM     31  C   UNL     1      35.368 -18.658 -22.554  0.00  0.00    -0.001 C 
ATOM     32  C   UNL     1      35.011 -17.518 -23.275  0.00  0.00    +0.015 C 
ATOM     33  C   UNL     1      35.054 -14.876 -20.590  0.00  0.00    +0.207 C 
ATOM     34  C   UNL     1      34.470 -13.936 -22.624  0.00  0.00    +0.174 C 
ATOM     35  C   UNL     1      34.082 -12.715 -23.423  0.00  0.00    +0.085 C 
ATOM     36  H   UNL     1      34.368 -15.149 -24.282  0.00  0.00    +0.154 HD
ENDBRANCH  23  27
ENDBRANCH  21  23
ENDBRANCH   2  21
TORSDOF 11
ENDMDL
MODEL 4
REMARK VINA RESULT:     -11.0      1.570      2.147
REMARK  Name = 104758
REMARK  11 active torsions:
REMARK  status: ('A' for Active; 'I' for Inactive)
REMARK    1  A    between atoms: C_2  and  N_21
REMARK    2  A    between atoms: C_3  and  C_8
REMARK    3  A    between atoms: N_7  and  CA_10
REMARK    4  A    between atoms: CA_10  and  C_12
REMARK    5  A    between atoms: CA_10  and  CB_15
REMARK    6  A    between atoms: C_12  and  O_13
REMARK    7  A    between atoms: CB_15  and  CG_16
REMARK    8  A    between atoms: CG_16  and  CD_18
REMARK    9  A    between atoms: CD_18  and  OE1_19
REMARK   10  A    between atoms: N_21  and  C_23
REMARK   11  A    between atoms: C_23  and  C_27
REMARK                            x       y       z     vdW  Elec       q    Type
REMARK                         _______ _______ _______ _____ _____    ______ ____
ROOT
ATOM      1  S   UNL     1      34.691 -22.109 -17.281  0.00  0.00    -0.068 S 
ATOM      2  C   UNL     1      35.612 -20.987 -18.188  0.00  0.00    +0.079 C 
ATOM      3  C   UNL     1      35.909 -22.224 -16.084  0.00  0.00    +0.084 C 
ATOM      4  C   UNL     1      36.821 -20.707 -17.590  0.00  0.00    +0.022 C 
ATOM      5  C   UNL     1      36.992 -21.423 -16.370  0.00  0.00    +0.013 C 
ENDROOT
BRANCH   3   8
ATOM      6  O   UNL     1      34.574 -23.452 -14.560  0.00  0.00    -0.270 OA
ATOM      7  N   UNL     1      36.850 -23.520 -14.264  0.00  0.00    -0.293 N 
ATOM      8  C   ACE A   0      35.704 -23.086 -14.965  0.00  0.00    +0.252 C 
ATOM      9  H   UNL     1      37.732 -23.226 -14.589  0.00  0.00    +0.150 HD
BRANCH   7  10
ATOM     10  CA  UNL     1      36.802 -24.369 -13.095  0.00  0.00    +0.172 C 
BRANCH  10  12
ATOM     11  OXT UNL     1      36.459 -22.525 -11.543  0.00  0.00    -0.248 OA
ATOM     12  C   UNL     1      36.094 -23.600 -11.999  0.00  0.00    +0.332 C 
BRANCH  12  13
ATOM     13  O   UNL     1      34.961 -24.228 -11.590  0.00  0.00    -0.479 OA
ATOM     14  H   UNL     1      34.356 -24.563 -12.223  0.00  0.00    +0.295 HD
ENDBRANCH  12  13
ENDBRANCH  10  12
BRANCH  10  15
ATOM     15  CB  UNL     1      38.184 -24.895 -12.689  0.00  0.00    +0.043 C 
BRANCH  15  16
ATOM     16  CG  UNL     1      38.955 -25.658 -13.774  0.00  0.00    +0.112 C 
BRANCH  16  18
ATOM     17  OE2 UNL     1      40.905 -24.221 -13.504  0.00  0.00    -0.250 OA
ATOM     18  CD  UNL     1      40.243 -24.984 -14.195  0.00  0.00    +0.314 C 
BRANCH  18  19
ATOM     19  OE1 UNL     1      40.575 -25.294 -15.476  0.00  0.00    -0.480 OA
ATOM     20  HE1 UNL     1      39.903 -25.502 -16.096  0.00  0.00    +0.295 HD
ENDBRANCH  18  19
ENDBRANCH  16  18
ENDBRANCH  15  16
ENDBRANCH  10  15
ENDBRANCH   7  10
ENDBRANCH   3   8
BRANCH   2  21
ATOM     21  N   UNL     1      35.139 -20.456 -19.382  0.00  0.00    -0.297 N 
ATOM     22  C   UNL     1      33.719 -20.142 -19.551  0.00  0.00    +0.113 C 
BRANCH  21  23
ATOM     23  C   UNL     1      36.014 -20.184 -20.502  0.00  0.00    +0.118 C 
BRANCH  23  27
ATOM     24  O   UNL     1      35.371 -15.288 -19.027  0.00  0.00    -0.209 OA
ATOM     25  N   UNL     1      34.665 -15.243 -22.973  0.00  0.00    -0.290 N 
ATOM     26  N   UNL     1      34.818 -14.083 -20.896  0.00  0.00    -0.322 NA
ATOM     27  C   UNL     1      35.659 -18.891 -21.154  0.00  0.00    -0.002 C 
ATOM     28  C   UNL     1      35.246 -16.518 -21.012  0.00  0.00    +0.108 C 
ATOM     29  C   UNL     1      35.579 -17.725 -20.392  0.00  0.00    +0.011 C 
ATOM     30  C   UNL     1      34.994 -16.469 -22.391  0.00  0.00    +0.062 C 
ATOM     31  C   UNL     1      35.409 -18.849 -22.527  0.00  0.00    -0.001 C 
ATOM     32  C   UNL     1      35.077 -17.642 -23.145  0.00  0.00    +0.015 C 
ATOM     33  C   UNL     1      35.150 -15.252 -20.234  0.00  0.00    +0.207 C 
ATOM     34  C   UNL     1      34.597 -14.123 -22.178  0.00  0.00    +0.174 C 
ATOM     35  C   UNL     1      34.236 -12.829 -22.867  0.00  0.00    +0.085 C 
ATOM     36  H   UNL     1      34.484 -15.181 -23.939  0.00  0.00    +0.154 HD
ENDBRANCH  23  27
ENDBRANCH  21  23
ENDBRANCH   2  21
TORSDOF 11
ENDMDL
MODEL 5
REMARK VINA RESULT:     -10.9      3.494      5.155
REMARK  Name = 104758
REMARK  11 active torsions:
REMARK  status: ('A' for Active; 'I' for Inactive)
REMARK    1  A    between atoms: C_2  and  N_21
REMARK    2  A    between atoms: C_3  and  C_8
REMARK    3  A    between atoms: N_7  and  CA_10
REMARK    4  A    between atoms: CA_10  and  C_12
REMARK    5  A    between atoms: CA_10  and  CB_15
REMARK    6  A    between atoms: C_12  and  O_13
REMARK    7  A    between atoms: CB_15  and  CG_16
REMARK    8  A    between atoms: CG_16  and  CD_18
REMARK    9  A    between atoms: CD_18  and  OE1_19
REMARK   10  A    between atoms: N_21  and  C_23
REMARK   11  A    between atoms: C_23  and  C_27
REMARK                            x       y       z     vdW  Elec       q    Type
REMARK                         _______ _______ _______ _____ _____    ______ ____
ROOT
ATOM      1  S   UNL     1      35.227 -20.946 -18.753  0.00  0.00    -0.068 S 
ATOM      2  C   UNL     1      34.834 -19.816 -19.978  0.00  0.00    +0.079 C 
ATOM      3  C   UNL     1      33.574 -21.220 -18.401  0.00  0.00    +0.084 C 
ATOM      4  C   UNL     1      33.473 -19.652 -20.113  0.00  0.00    +0.022 C 
ATOM      5  C   UNL     1      32.743 -20.466 -19.200  0.00  0.00    +0.013 C 
ENDROOT
BRANCH   3   8
ATOM      6  O   UNL     1      33.928 -23.142 -17.061  0.00  0.00    -0.270 OA
ATOM      7  N   UNL     1      32.006 -21.938 -16.696  0.00  0.00    -0.293 N 
ATOM      8  C   ACE A   0      33.228 -22.147 -17.372  0.00  0.00    +0.252 C 
ATOM      9  H   UNL     1      31.465 -21.156 -16.949  0.00  0.00    +0.150 HD
BRANCH   7  10
ATOM     10  CA  UNL     1      31.507 -22.807 -15.656  0.00  0.00    +0.172 C 
BRANCH  10  12
ATOM     11  OXT UNL     1      29.309 -23.816 -15.375  0.00  0.00    -0.248 OA
ATOM     12  C   UNL     1      30.007 -22.924 -15.836  0.00  0.00    +0.332 C 
BRANCH  12  13
ATOM     13  O   UNL     1      29.501 -21.885 -16.551  0.00  0.00    -0.479 OA
ATOM     14  H   UNL     1      29.261 -22.006 -17.449  0.00  0.00    +0.295 HD
ENDBRANCH  12  13
ENDBRANCH  10  12
BRANCH  10  15
ATOM     15  CB  UNL     1      31.927 -22.353 -14.253  0.00  0.00    +0.043 C 
BRANCH  15  16
ATOM     16  CG  UNL     1      32.397 -23.462 -13.303  0.00  0.00    +0.112 C 
BRANCH  16  18
ATOM     17  OE2 UNL     1      34.693 -23.923 -13.977  0.00  0.00    -0.250 OA
ATOM     18  CD  UNL     1      33.899 -23.525 -13.135  0.00  0.00    +0.314 C 
BRANCH  18  19
ATOM     19  OE1 UNL     1      34.282 -23.117 -11.896  0.00  0.00    -0.480 OA
ATOM     20  HE1 UNL     1      34.340 -22.202 -11.701  0.00  0.00    +0.295 HD
ENDBRANCH  18  19
ENDBRANCH  16  18
ENDBRANCH  15  16
ENDBRANCH  10  15
ENDBRANCH   7  10
ENDBRANCH   3   8
BRANCH   2  21
ATOM     21  N   UNL     1      35.820 -19.171 -20.714  0.00  0.00    -0.297 N 
ATOM     22  C   UNL     1      37.143 -18.922 -20.138  0.00  0.00    +0.113 C 
BRANCH  21  23
ATOM     23  C   UNL     1      35.598 -18.726 -22.072  0.00  0.00    +0.118 C 
BRANCH  23  27
ATOM     24  O   UNL     1      34.105 -15.292 -25.613  0.00  0.00    -0.209 OA
ATOM     25  N   UNL     1      34.488 -13.150 -22.246  0.00  0.00    -0.290 N 
ATOM     26  N   UNL     1      33.961 -13.257 -24.568  0.00  0.00    -0.322 NA
ATOM     27  C   UNL     1      35.308 -17.263 -22.113  0.00  0.00    -0.002 C 
ATOM     28  C   UNL     1      34.643 -15.293 -23.337  0.00  0.00    +0.108 C 
ATOM     29  C   UNL     1      34.911 -16.664 -23.309  0.00  0.00    +0.011 C 
ATOM     30  C   UNL     1      34.767 -14.517 -22.176  0.00  0.00    +0.062 C 
ATOM     31  C   UNL     1      35.434 -16.496 -20.953  0.00  0.00    -0.001 C 
ATOM     32  C   UNL     1      35.164 -15.127 -20.983  0.00  0.00    +0.015 C 
ATOM     33  C   UNL     1      34.216 -14.617 -24.594  0.00  0.00    +0.207 C 
ATOM     34  C   UNL     1      34.102 -12.608 -23.449  0.00  0.00    +0.174 C 
ATOM     35  C   UNL     1      33.816 -11.126 -23.459  0.00  0.00    +0.085 C 
ATOM     36  H   UNL     1      34.566 -12.583 -21.445  0.00  0.00    +0.154 HD
ENDBRANCH  23  27
ENDBRANCH  21  23
ENDBRANCH   2  21
TORSDOF 11
ENDMDL
MODEL 6
REMARK VINA RESULT:     -10.8      1.278      1.666
REMARK  Name = 104758
REMARK  11 active torsions:
REMARK  status: ('A' for Active; 'I' for Inactive)
REMARK    1  A    between atoms: C_2  and  N_21
REMARK    2  A    between atoms: C_3  and  C_8
REMARK    3  A    between atoms: N_7  and  CA_10
REMARK    4  A    between atoms: CA_10  and  C_12
REMARK    5  A    between atoms: CA_10  and  CB_15
REMARK    6  A    between atoms: C_12  and  O_13
REMARK    7  A    between atoms: CB_15  and  CG_16
REMARK    8  A    between atoms: CG_16  and  CD_18
REMARK    9  A    between atoms: CD_18  and  OE1_19
REMARK   10  A    between atoms: N_21  and  C_23
REMARK   11  A    between atoms: C_23  and  C_27
REMARK                            x       y       z     vdW  Elec       q    Type
REMARK                         _______ _______ _______ _____ _____    ______ ____
ROOT
ATOM      1  S   UNL     1      34.249 -21.651 -17.718  0.00  0.00    -0.068 S 
ATOM      2  C   UNL     1      35.324 -20.708 -18.660  0.00  0.00    +0.079 C 
ATOM      3  C   UNL     1      35.477 -22.012 -16.580  0.00  0.00    +0.084 C 
ATOM      4  C   UNL     1      36.590 -20.671 -18.117  0.00  0.00    +0.022 C 
ATOM      5  C   UNL     1      36.678 -21.426 -16.913  0.00  0.00    +0.013 C 
ENDROOT
BRANCH   3   8
ATOM      6  O   UNL     1      34.000 -23.202 -15.161  0.00  0.00    -0.270 OA
ATOM      7  N   UNL     1      36.234 -23.236 -14.629  0.00  0.00    -0.293 N 
ATOM      8  C   ACE A   0      35.163 -22.838 -15.460  0.00  0.00    +0.252 C 
ATOM      9  H   UNL     1      37.143 -22.944 -14.872  0.00  0.00    +0.150 HD
BRANCH   7  10
ATOM     10  CA  UNL     1      36.071 -24.045 -13.443  0.00  0.00    +0.172 C 
BRANCH  10  12
ATOM     11  OXT UNL     1      36.908 -22.469 -11.787  0.00  0.00    -0.248 OA
ATOM     12  C   UNL     1      35.976 -23.107 -12.257  0.00  0.00    +0.332 C 
BRANCH  12  13
ATOM     13  O   UNL     1      34.706 -23.018 -11.783  0.00  0.00    -0.479 OA
ATOM     14  H   UNL     1      34.350 -23.710 -11.261  0.00  0.00    +0.295 HD
ENDBRANCH  12  13
ENDBRANCH  10  12
BRANCH  10  15
ATOM     15  CB  UNL     1      37.163 -25.113 -13.301  0.00  0.00    +0.043 C 
BRANCH  15  16
ATOM     16  CG  UNL     1      38.419 -24.903 -14.156  0.00  0.00    +0.112 C 
BRANCH  16  18
ATOM     17  OE2 UNL     1      40.788 -25.012 -13.593  0.00  0.00    -0.250 OA
ATOM     18  CD  UNL     1      39.662 -24.599 -13.348  0.00  0.00    +0.314 C 
BRANCH  18  19
ATOM     19  OE1 UNL     1      39.379 -23.827 -12.266  0.00  0.00    -0.480 OA
ATOM     20  HE1 UNL     1      39.270 -24.224 -11.423  0.00  0.00    +0.295 HD
ENDBRANCH  18  19
ENDBRANCH  16  18
ENDBRANCH  15  16
ENDBRANCH  10  15
ENDBRANCH   7  10
ENDBRANCH   3   8
BRANCH   2  21
ATOM     21  N   UNL     1      34.907 -20.079 -19.826  0.00  0.00    -0.297 N 
ATOM     22  C   UNL     1      33.483 -19.869 -20.095  0.00  0.00    +0.113 C 
BRANCH  21  23
ATOM     23  C   UNL     1      35.843 -19.599 -20.818  0.00  0.00    +0.118 C 
BRANCH  23  27
ATOM     24  O   UNL     1      34.443 -17.103 -25.103  0.00  0.00    -0.209 OA
ATOM     25  N   UNL     1      34.669 -14.238 -22.309  0.00  0.00    -0.290 N 
ATOM     26  N   UNL     1      34.233 -14.886 -24.561  0.00  0.00    -0.322 NA
ATOM     27  C   UNL     1      35.537 -18.192 -21.204  0.00  0.00    -0.002 C 
ATOM     28  C   UNL     1      34.893 -16.571 -22.871  0.00  0.00    +0.108 C 
ATOM     29  C   UNL     1      35.179 -17.892 -22.519  0.00  0.00    +0.011 C 
ATOM     30  C   UNL     1      34.963 -15.546 -21.916  0.00  0.00    +0.062 C 
ATOM     31  C   UNL     1      35.609 -17.176 -20.249  0.00  0.00    -0.001 C 
ATOM     32  C   UNL     1      35.323 -15.857 -20.603  0.00  0.00    +0.015 C 
ATOM     33  C   UNL     1      34.506 -16.210 -24.264  0.00  0.00    +0.207 C 
ATOM     34  C   UNL     1      34.323 -13.995 -23.617  0.00  0.00    +0.174 C 
ATOM     35  C   UNL     1      34.019 -12.561 -23.977  0.00  0.00    +0.085 C 
ATOM     36  H   UNL     1      34.710 -13.501 -21.658  0.00  0.00    +0.154 HD
ENDBRANCH  23  27
ENDBRANCH  21  23
ENDBRANCH   2  21
TORSDOF 11
ENDMDL
MODEL 7
REMARK VINA RESULT:     -10.7      5.650     12.176
REMARK  Name = 104758
REMARK  11 active torsions:
REMARK  status: ('A' for Active; 'I' for Inactive)
REMARK    1  A    between atoms: C_2  and  N_21
REMARK    2  A    between atoms: C_3  and  C_8
REMARK    3  A    between atoms: N_7  and  CA_10
REMARK    4  A    between atoms: CA_10  and  C_12
REMARK    5  A    between atoms: CA_10  and  CB_15
REMARK    6  A    between atoms: C_12  and  O_13
REMARK    7  A    between atoms: CB_15  and  CG_16
REMARK    8  A    between atoms: CG_16  and  CD_18
REMARK    9  A    between atoms: CD_18  and  OE1_19
REMARK   10  A    between atoms: N_21  and  C_23
REMARK   11  A    between atoms: C_23  and  C_27
REMARK                            x       y       z     vdW  Elec       q    Type
REMARK                         _______ _______ _______ _____ _____    ______ ____
ROOT
ATOM      1  S   UNL     1      34.930 -15.055 -23.786  0.00  0.00    -0.068 S 
ATOM      2  C   UNL     1      35.227 -15.936 -22.348  0.00  0.00    +0.079 C 
ATOM      3  C   UNL     1      34.504 -13.652 -22.903  0.00  0.00    +0.084 C 
ATOM      4  C   UNL     1      35.005 -15.175 -21.221  0.00  0.00    +0.022 C 
ATOM      5  C   UNL     1      34.587 -13.852 -21.543  0.00  0.00    +0.013 C 
ENDROOT
BRANCH   3   8
ATOM      6  O   UNL     1      33.700 -12.474 -24.794  0.00  0.00    -0.270 OA
ATOM      7  N   UNL     1      34.267 -11.239 -22.942  0.00  0.00    -0.293 N 
ATOM      8  C   ACE A   0      34.123 -12.474 -23.613  0.00  0.00    +0.252 C 
ATOM      9  H   UNL     1      34.600 -11.251 -22.016  0.00  0.00    +0.150 HD
BRANCH   7  10
ATOM     10  CA  UNL     1      33.953  -9.961 -23.539  0.00  0.00    +0.172 C 
BRANCH  10  12
ATOM     11  OXT UNL     1      35.401  -9.541 -25.451  0.00  0.00    -0.248 OA
ATOM     12  C   UNL     1      35.198  -9.467 -24.247  0.00  0.00    +0.332 C 
BRANCH  12  13
ATOM     13  O   UNL     1      36.072  -8.884 -23.386  0.00  0.00    -0.479 OA
ATOM     14  H   UNL     1      35.757  -8.459 -22.613  0.00  0.00    +0.295 HD
ENDBRANCH  12  13
ENDBRANCH  10  12
BRANCH  10  15
ATOM     15  CB  UNL     1      33.378  -8.962 -22.528  0.00  0.00    +0.043 C 
BRANCH  15  16
ATOM     16  CG  UNL     1      31.906  -9.167 -22.148  0.00  0.00    +0.112 C 
BRANCH  16  18
ATOM     17  OE2 UNL     1      31.681  -9.667 -19.773  0.00  0.00    -0.250 OA
ATOM     18  CD  UNL     1      31.707 -10.049 -20.935  0.00  0.00    +0.314 C 
BRANCH  18  19
ATOM     19  OE1 UNL     1      31.598 -11.359 -21.282  0.00  0.00    -0.480 OA
ATOM     20  HE1 UNL     1      32.070 -12.012 -20.803  0.00  0.00    +0.295 HD
ENDBRANCH  18  19
ENDBRANCH  16  18
ENDBRANCH  15  16
ENDBRANCH  10  15
ENDBRANCH   7  10
ENDBRANCH   3   8
BRANCH   2  21
ATOM     21  N   UNL     1      35.641 -17.261 -22.381  0.00  0.00    -0.297 N 
ATOM     22  C   UNL     1      34.956 -18.239 -23.229  0.00  0.00    +0.113 C 
BRANCH  21  23
ATOM     23  C   UNL     1      36.760 -17.737 -21.597  0.00  0.00    +0.118 C 
BRANCH  23  27
ATOM     24  O   UNL     1      32.293 -19.786 -20.047  0.00  0.00    -0.209 OA
ATOM     25  N   UNL     1      35.068 -21.651 -17.834  0.00  0.00    -0.290 N 
ATOM     26  N   UNL     1      32.781 -21.331 -18.426  0.00  0.00    -0.322 NA
ATOM     27  C   UNL     1      36.321 -18.764 -20.608  0.00  0.00    -0.002 C 
ATOM     28  C   UNL     1      34.564 -20.024 -19.539  0.00  0.00    +0.108 C 
ATOM     29  C   UNL     1      34.964 -19.060 -20.468  0.00  0.00    +0.011 C 
ATOM     30  C   UNL     1      35.510 -20.694 -18.750  0.00  0.00    +0.062 C 
ATOM     31  C   UNL     1      37.268 -19.427 -19.827  0.00  0.00    -0.001 C 
ATOM     32  C   UNL     1      36.865 -20.390 -18.900  0.00  0.00    +0.015 C 
ATOM     33  C   UNL     1      33.126 -20.369 -19.359  0.00  0.00    +0.207 C 
ATOM     34  C   UNL     1      33.721 -21.905 -17.732  0.00  0.00    +0.174 C 
ATOM     35  C   UNL     1      33.307 -22.950 -16.724  0.00  0.00    +0.085 C 
ATOM     36  H   UNL     1      35.712 -22.136 -17.270  0.00  0.00    +0.154 HD
ENDBRANCH  23  27
ENDBRANCH  21  23
ENDBRANCH   2  21
TORSDOF 11
ENDMDL
MODEL 8
REMARK VINA RESULT:     -10.5      1.952      3.027
REMARK  Name = 104758
REMARK  11 active torsions:
REMARK  status: ('A' for Active; 'I' for Inactive)
REMARK    1  A    between atoms: C_2  and  N_21
REMARK    2  A    between atoms: C_3  and  C_8
REMARK    3  A    between atoms: N_7  and  CA_10
REMARK    4  A    between atoms: CA_10  and  C_12
REMARK    5  A    between atoms: CA_10  and  CB_15
REMARK    6  A    between atoms: C_12  and  O_13
REMARK    7  A    between atoms: CB_15  and  CG_16
REMARK    8  A    between atoms: CG_16  and  CD_18
REMARK    9  A    between atoms: CD_18  and  OE1_19
REMARK   10  A    between atoms: N_21  and  C_23
REMARK   11  A    between atoms: C_23  and  C_27
REMARK                            x       y       z     vdW  Elec       q    Type
REMARK                         _______ _______ _______ _____ _____    ______ ____
ROOT
ATOM      1  S   UNL     1      34.524 -21.945 -17.587  0.00  0.00    -0.068 S 
ATOM      2  C   UNL     1      35.535 -20.841 -18.418  0.00  0.00    +0.079 C 
ATOM      3  C   UNL     1      35.703 -22.193 -16.371  0.00  0.00    +0.084 C 
ATOM      4  C   UNL     1      36.744 -20.667 -17.782  0.00  0.00    +0.022 C 
ATOM      5  C   UNL     1      36.841 -21.450 -16.595  0.00  0.00    +0.013 C 
ENDROOT
BRANCH   3   8
ATOM      6  O   UNL     1      35.894 -24.251 -15.213  0.00  0.00    -0.270 OA
ATOM      7  N   UNL     1      34.520 -22.651 -14.305  0.00  0.00    -0.293 N 
ATOM      8  C   ACE A   0      35.418 -23.093 -15.300  0.00  0.00    +0.252 C 
ATOM      9  H   UNL     1      34.152 -21.741 -14.383  0.00  0.00    +0.150 HD
BRANCH   7  10
ATOM     10  CA  UNL     1      34.111 -23.458 -13.178  0.00  0.00    +0.172 C 
BRANCH  10  12
ATOM     11  OXT UNL     1      31.846 -24.090 -12.545  0.00  0.00    -0.248 OA
ATOM     12  C   UNL     1      32.623 -23.251 -12.982  0.00  0.00    +0.332 C 
BRANCH  12  13
ATOM     13  O   UNL     1      32.238 -21.991 -13.314  0.00  0.00    -0.479 OA
ATOM     14  H   UNL     1      32.753 -21.485 -13.912  0.00  0.00    +0.295 HD
ENDBRANCH  12  13
ENDBRANCH  10  12
BRANCH  10  15
ATOM     15  CB  UNL     1      34.944 -23.184 -11.921  0.00  0.00    +0.043 C 
BRANCH  15  16
ATOM     16  CG  UNL     1      36.110 -24.150 -11.667  0.00  0.00    +0.112 C 
BRANCH  16  18
ATOM     17  OE2 UNL     1      38.251 -23.434 -10.751  0.00  0.00    -0.250 OA
ATOM     18  CD  UNL     1      37.065 -23.683 -10.590  0.00  0.00    +0.314 C 
BRANCH  18  19
ATOM     19  OE1 UNL     1      36.453 -23.606  -9.379  0.00  0.00    -0.480 OA
ATOM     20  HE1 UNL     1      36.326 -22.772  -8.970  0.00  0.00    +0.295 HD
ENDBRANCH  18  19
ENDBRANCH  16  18
ENDBRANCH  15  16
ENDBRANCH  10  15
ENDBRANCH   7  10
ENDBRANCH   3   8
BRANCH   2  21
ATOM     21  N   UNL     1      35.125 -20.226 -19.594  0.00  0.00    -0.297 N 
ATOM     22  C   UNL     1      33.712 -19.916 -19.825  0.00  0.00    +0.113 C 
BRANCH  21  23
ATOM     23  C   UNL     1      36.059 -19.858 -20.635  0.00  0.00    +0.118 C 
BRANCH  23  27
ATOM     24  O   UNL     1      34.071 -18.302 -25.128  0.00  0.00    -0.209 OA
ATOM     25  N   UNL     1      34.589 -14.918 -23.041  0.00  0.00    -0.290 N 
ATOM     26  N   UNL     1      33.885 -16.019 -25.034  0.00  0.00    -0.322 NA
ATOM     27  C   UNL     1      35.676 -18.560 -21.262  0.00  0.00    -0.002 C 
ATOM     28  C   UNL     1      34.790 -17.318 -23.132  0.00  0.00    +0.108 C 
ATOM     29  C   UNL     1      35.147 -18.539 -22.553  0.00  0.00    +0.011 C 
ATOM     30  C   UNL     1      34.959 -16.118 -22.427  0.00  0.00    +0.062 C 
ATOM     31  C   UNL     1      35.846 -17.368 -20.555  0.00  0.00    -0.001 C 
ATOM     32  C   UNL     1      35.489 -16.150 -21.135  0.00  0.00    +0.015 C 
ATOM     33  C   UNL     1      34.222 -17.254 -24.507  0.00  0.00    +0.207 C 
ATOM     34  C   UNL     1      34.075 -14.952 -24.315  0.00  0.00    +0.174 C 
ATOM     35  C   UNL     1      33.696 -13.622 -24.923  0.00  0.00    +0.085 C 
ATOM     36  H   UNL     1      34.697 -14.062 -22.568  0.00  0.00    +0.154 HD
ENDBRANCH  23  27
ENDBRANCH  21  23
ENDBRANCH   2  21
TORSDOF 11
ENDMDL
MODEL 9
REMARK VINA RESULT:     -10.5      4.733     12.288
REMARK  Name = 104758
REMARK  11 active torsions:
REMARK  status: ('A' for Active; 'I' for Inactive)
REMARK    1  A    between atoms: C_2  and  N_21
REMARK    2  A    between atoms: C_3  and  C_8
REMARK    3  A    between atoms: N_7  and  CA_10
REMARK    4  A    between atoms: CA_10  and  C_12
REMARK    5  A    between atoms: CA_10  and  CB_15
REMARK    6  A    between atoms: C_12  and  O_13
REMARK    7  A    between atoms: CB_15  and  CG_16
REMARK    8  A    between atoms: CG_16  and  CD_18
REMARK    9  A    between atoms: CD_18  and  OE1_19
REMARK   10  A    between atoms: N_21  and  C_23
REMARK   11  A    between atoms: C_23  and  C_27
REMARK                            x       y       z     vdW  Elec       q    Type
REMARK                         _______ _______ _______ _____ _____    ______ ____
ROOT
ATOM      1  S   UNL     1      34.549 -15.211 -24.069  0.00  0.00    -0.068 S 
ATOM      2  C   UNL     1      35.011 -16.112 -22.687  0.00  0.00    +0.079 C 
ATOM      3  C   UNL     1      34.491 -13.757 -23.168  0.00  0.00    +0.084 C 
ATOM      4  C   UNL     1      35.117 -15.319 -21.566  0.00  0.00    +0.022 C 
ATOM      5  C   UNL     1      34.817 -13.955 -21.844  0.00  0.00    +0.013 C 
ENDROOT
BRANCH   3   8
ATOM      6  O   UNL     1      33.691 -12.491 -25.004  0.00  0.00    -0.270 OA
ATOM      7  N   UNL     1      34.316 -11.339 -23.118  0.00  0.00    -0.293 N 
ATOM      8  C   ACE A   0      34.131 -12.544 -23.829  0.00  0.00    +0.252 C 
ATOM      9  H   UNL     1      34.662 -11.392 -22.198  0.00  0.00    +0.150 HD
BRANCH   7  10
ATOM     10  CA  UNL     1      34.027 -10.033 -23.664  0.00  0.00    +0.172 C 
BRANCH  10  12
ATOM     11  OXT UNL     1      35.556  -9.597 -25.508  0.00  0.00    -0.248 OA
ATOM     12  C   UNL     1      35.294  -9.518 -24.316  0.00  0.00    +0.332 C 
BRANCH  12  13
ATOM     13  O   UNL     1      36.113  -8.907 -23.419  0.00  0.00    -0.479 OA
ATOM     14  H   UNL     1      35.795  -8.191 -22.906  0.00  0.00    +0.295 HD
ENDBRANCH  12  13
ENDBRANCH  10  12
BRANCH  10  15
ATOM     15  CB  UNL     1      33.433  -9.075 -22.624  0.00  0.00    +0.043 C 
BRANCH  15  16
ATOM     16  CG  UNL     1      32.027  -9.424 -22.119  0.00  0.00    +0.112 C 
BRANCH  16  18
ATOM     17  OE2 UNL     1      32.132 -11.475 -20.806  0.00  0.00    -0.250 OA
ATOM     18  CD  UNL     1      32.022 -10.257 -20.856  0.00  0.00    +0.314 C 
BRANCH  18  19
ATOM     19  OE1 UNL     1      31.837  -9.488 -19.750  0.00  0.00    -0.480 OA
ATOM     20  HE1 UNL     1      32.201  -9.754 -18.928  0.00  0.00    +0.295 HD
ENDBRANCH  18  19
ENDBRANCH  16  18
ENDBRANCH  15  16
ENDBRANCH  10  15
ENDBRANCH   7  10
ENDBRANCH   3   8
BRANCH   2  21
ATOM     21  N   UNL     1      35.237 -17.481 -22.756  0.00  0.00    -0.297 N 
ATOM     22  C   UNL     1      34.629 -18.288 -23.815  0.00  0.00    +0.113 C 
BRANCH  21  23
ATOM     23  C   UNL     1      36.078 -18.169 -21.801  0.00  0.00    +0.118 C 
BRANCH  23  27
ATOM     24  O   UNL     1      36.961 -21.304 -17.808  0.00  0.00    -0.209 OA
ATOM     25  N   UNL     1      32.978 -21.360 -18.259  0.00  0.00    -0.290 N 
ATOM     26  N   UNL     1      34.929 -22.092 -17.099  0.00  0.00    -0.322 NA
ATOM     27  C   UNL     1      35.261 -19.005 -20.875  0.00  0.00    -0.002 C 
ATOM     28  C   UNL     1      35.111 -20.529 -19.010  0.00  0.00    +0.108 C 
ATOM     29  C   UNL     1      35.886 -19.749 -19.873  0.00  0.00    +0.011 C 
ATOM     30  C   UNL     1      33.716 -20.569 -19.142  0.00  0.00    +0.062 C 
ATOM     31  C   UNL     1      33.872 -19.041 -21.012  0.00  0.00    -0.001 C 
ATOM     32  C   UNL     1      33.101 -19.821 -20.149  0.00  0.00    +0.015 C 
ATOM     33  C   UNL     1      35.740 -21.336 -17.928  0.00  0.00    +0.207 C 
ATOM     34  C   UNL     1      33.641 -22.076 -17.290  0.00  0.00    +0.174 C 
ATOM     35  C   UNL     1      32.788 -22.912 -16.368  0.00  0.00    +0.085 C 
ATOM     36  H   UNL     1      31.997 -21.406 -18.330  0.00  0.00    +0.154 HD
ENDBRANCH  23  27
ENDBRANCH  21  23
ENDBRANCH   2  21
TORSDOF 11
ENDMDL
