MODEL 1
REMARK VINA RESULT:     -12.4      0.000      0.000
REMARK  Name = 11476460
REMARK  8 active torsions:
REMARK  status: ('A' for Active; 'I' for Inactive)
REMARK    1  A    between atoms: C_2  and  N_10
REMARK    2  A    between atoms: C_5  and  C_23
REMARK    3  A    between atoms: C_11  and  C_14
REMARK    4  A    between atoms: C_14  and  O_15
REMARK    5  A    between atoms: O_15  and  P_16
REMARK    6  A    between atoms: P_16  and  O_18
REMARK    7  A    between atoms: P_16  and  O_20
REMARK    8  A    between atoms: C_27  and  C_32
REMARK                            x       y       z     vdW  Elec       q    Type
REMARK                         _______ _______ _______ _____ _____    ______ ____
ROOT
ATOM      1  F   UNL     1      33.362 -21.692 -18.190  0.00  0.00    -0.204 F 
ATOM      2  C   UNL     1      35.954 -22.466 -15.755  0.00  0.00    +0.059 C 
ATOM      3  C   UNL     1      34.720 -22.447 -16.412  0.00  0.00    +0.045 C 
ATOM      4  C   UNL     1      37.022 -21.726 -16.274  0.00  0.00    +0.015 C 
ATOM      5  C   UNL     1      35.622 -20.961 -18.089  0.00  0.00    +0.029 C 
ATOM      6  C   UNL     1      34.554 -21.697 -17.576  0.00  0.00    +0.141 C 
ATOM      7  C   UNL     1      36.856 -20.975 -17.437  0.00  0.00    +0.004 C 
ENDROOT
BRANCH   2  10
ATOM      8  O   UNL     1      36.292 -24.958 -13.122  0.00  0.00    -0.434 OA
ATOM      9  O   UNL     1      35.897 -25.472 -15.296  0.00  0.00    -0.226 OA
ATOM     10  N   UNL     1      36.123 -23.231 -14.567  0.00  0.00    -0.221 N 
ATOM     11  C   UNL     1      36.693 -23.789 -12.394  0.00  0.00    +0.221 C 
ATOM     12  C   UNL     1      36.248 -22.634 -13.265  0.00  0.00    +0.148 C 
ATOM     13  C   UNL     1      36.092 -24.618 -14.442  0.00  0.00    +0.409 C 
BRANCH  11  14
ATOM     14  C   UNL     1      38.201 -23.834 -12.184  0.00  0.00    +0.199 C 
BRANCH  14  15
ATOM     15  O   UNL     1      38.691 -25.068 -12.678  0.00  0.00    -0.269 OA
BRANCH  15  16
ATOM     16  P   UNL     1      39.910 -25.044 -13.743  0.00  0.00    +0.473 P 
ATOM     17  O   UNL     1      40.507 -26.385 -14.055  0.00  0.00    -0.227 OA
BRANCH  16  18
ATOM     18  O   UNL     1      40.936 -23.956 -13.128  0.00  0.00    -0.303 OA
ATOM     19  H   UNL     1      40.580 -23.063 -13.262  0.00  0.00    +0.222 HD
ENDBRANCH  16  18
BRANCH  16  20
ATOM     20  O   UNL     1      39.267 -24.272 -15.011  0.00  0.00    -0.303 OA
ATOM     21  H   UNL     1      38.724 -24.890 -15.525  0.00  0.00    +0.222 HD
ENDBRANCH  16  20
ENDBRANCH  15  16
ENDBRANCH  14  15
ENDBRANCH  11  14
ENDBRANCH   2  10
BRANCH   5  23
ATOM     22  N   UNL     1      33.984 -19.317 -21.005  0.00  0.00    -0.234 NA
ATOM     23  C   UNL     1      35.455 -20.179 -19.296  0.00  0.00    +0.021 C 
ATOM     24  C   UNL     1      36.541 -19.561 -19.902  0.00  0.00    +0.004 C 
ATOM     25  C   UNL     1      34.210 -20.029 -19.880  0.00  0.00    +0.100 C 
ATOM     26  C   UNL     1      36.349 -18.818 -21.062  0.00  0.00    +0.029 C 
ATOM     27  C   UNL     1      35.063 -18.728 -21.569  0.00  0.00    +0.146 C 
BRANCH  27  32
ATOM     28  N   UNL     1      35.047 -16.667 -22.873  0.00  0.00    -0.105 NA
ATOM     29  N   UNL     1      34.646 -16.481 -24.139  0.00  0.00    -0.113 N 
ATOM     30  N   UNL     1      34.294 -18.546 -23.889  0.00  0.00    -0.085 NA
ATOM     31  N   UNL     1      34.192 -17.567 -24.780  0.00  0.00    -0.018 NA
ATOM     32  C   UNL     1      34.807 -17.975 -22.764  0.00  0.00    +0.092 C 
ATOM     33  C   UNL     1      34.699 -15.190 -24.774  0.00  0.00    +0.163 C 
ENDBRANCH  27  32
ENDBRANCH   5  23
TORSDOF 8
ENDMDL
MODEL 2
REMARK VINA RESULT:     -11.6      1.936      2.643
REMARK  Name = 11476460
REMARK  8 active torsions:
REMARK  status: ('A' for Active; 'I' for Inactive)
REMARK    1  A    between atoms: C_2  and  N_10
REMARK    2  A    between atoms: C_5  and  C_23
REMARK    3  A    between atoms: C_11  and  C_14
REMARK    4  A    between atoms: C_14  and  O_15
REMARK    5  A    between atoms: O_15  and  P_16
REMARK    6  A    between atoms: P_16  and  O_18
REMARK    7  A    between atoms: P_16  and  O_20
REMARK    8  A    between atoms: C_27  and  C_32
REMARK                            x       y       z     vdW  Elec       q    Type
REMARK                         _______ _______ _______ _____ _____    ______ ____
ROOT
ATOM      1  F   UNL     1      33.248 -20.952 -19.183  0.00  0.00    -0.204 F 
ATOM      2  C   UNL     1      35.813 -21.900 -16.782  0.00  0.00    +0.059 C 
ATOM      3  C   UNL     1      34.587 -21.835 -17.451  0.00  0.00    +0.045 C 
ATOM      4  C   UNL     1      36.885 -21.123 -17.233  0.00  0.00    +0.015 C 
ATOM      5  C   UNL     1      35.505 -20.228 -19.003  0.00  0.00    +0.029 C 
ATOM      6  C   UNL     1      34.433 -21.001 -18.558  0.00  0.00    +0.141 C 
ATOM      7  C   UNL     1      36.731 -20.288 -18.340  0.00  0.00    +0.004 C 
ENDROOT
BRANCH   2  10
ATOM      8  O   UNL     1      36.851 -23.844 -13.884  0.00  0.00    -0.434 OA
ATOM      9  O   UNL     1      38.222 -22.424 -15.001  0.00  0.00    -0.226 OA
ATOM     10  N   UNL     1      35.971 -22.751 -15.653  0.00  0.00    -0.221 N 
ATOM     11  C   UNL     1      35.442 -24.108 -13.853  0.00  0.00    +0.221 C 
ATOM     12  C   UNL     1      34.947 -23.659 -15.211  0.00  0.00    +0.148 C 
ATOM     13  C   UNL     1      37.115 -22.929 -14.878  0.00  0.00    +0.409 C 
BRANCH  11  14
ATOM     14  C   UNL     1      34.821 -23.328 -12.701  0.00  0.00    +0.199 C 
BRANCH  14  15
ATOM     15  O   UNL     1      34.868 -24.129 -11.534  0.00  0.00    -0.269 OA
BRANCH  15  16
ATOM     16  P   UNL     1      36.102 -23.925 -10.506  0.00  0.00    +0.473 P 
ATOM     17  O   UNL     1      35.716 -23.869  -9.056  0.00  0.00    -0.227 OA
BRANCH  16  18
ATOM     18  O   UNL     1      36.859 -22.613 -11.071  0.00  0.00    -0.303 OA
ATOM     19  H   UNL     1      37.594 -22.885 -11.644  0.00  0.00    +0.222 HD
ENDBRANCH  16  18
BRANCH  16  20
ATOM     20  O   UNL     1      37.105 -25.131 -10.900  0.00  0.00    -0.303 OA
ATOM     21  H   UNL     1      37.531 -24.932 -11.748  0.00  0.00    +0.222 HD
ENDBRANCH  16  20
ENDBRANCH  15  16
ENDBRANCH  14  15
ENDBRANCH  11  14
ENDBRANCH   2  10
BRANCH   5  23
ATOM     22  N   UNL     1      34.022 -18.660 -22.041  0.00  0.00    -0.234 NA
ATOM     23  C   UNL     1      35.350 -19.359 -20.150  0.00  0.00    +0.021 C 
ATOM     24  C   UNL     1      36.325 -18.426 -20.476  0.00  0.00    +0.004 C 
ATOM     25  C   UNL     1      34.228 -19.438 -20.955  0.00  0.00    +0.100 C 
ATOM     26  C   UNL     1      36.149 -17.606 -21.585  0.00  0.00    +0.029 C 
ATOM     27  C   UNL     1      34.990 -17.762 -22.329  0.00  0.00    +0.146 C 
BRANCH  27  32
ATOM     28  N   UNL     1      34.737 -15.610 -23.449  0.00  0.00    -0.105 NA
ATOM     29  N   UNL     1      34.488 -15.365 -24.743  0.00  0.00    -0.113 N 
ATOM     30  N   UNL     1      34.535 -17.473 -24.720  0.00  0.00    -0.085 NA
ATOM     31  N   UNL     1      34.361 -16.439 -25.534  0.00  0.00    -0.018 NA
ATOM     32  C   UNL     1      34.757 -16.944 -23.485  0.00  0.00    +0.092 C 
ATOM     33  C   UNL     1      34.364 -14.025 -25.255  0.00  0.00    +0.163 C 
ENDBRANCH  27  32
ENDBRANCH   5  23
TORSDOF 8
ENDMDL
MODEL 3
REMARK VINA RESULT:     -11.3      1.470      2.095
REMARK  Name = 11476460
REMARK  8 active torsions:
REMARK  status: ('A' for Active; 'I' for Inactive)
REMARK    1  A    between atoms: C_2  and  N_10
REMARK    2  A    between atoms: C_5  and  C_23
REMARK    3  A    between atoms: C_11  and  C_14
REMARK    4  A    between atoms: C_14  and  O_15
REMARK    5  A    between atoms: O_15  and  P_16
REMARK    6  A    between atoms: P_16  and  O_18
REMARK    7  A    between atoms: P_16  and  O_20
REMARK    8  A    between atoms: C_27  and  C_32
REMARK                            x       y       z     vdW  Elec       q    Type
REMARK                         _______ _______ _______ _____ _____    ______ ____
ROOT
ATOM      1  F   UNL     1      37.274 -20.355 -17.839  0.00  0.00    -0.204 F 
ATOM      2  C   UNL     1      35.139 -22.544 -15.865  0.00  0.00    +0.059 C 
ATOM      3  C   UNL     1      36.251 -21.806 -16.283  0.00  0.00    +0.045 C 
ATOM      4  C   UNL     1      33.970 -22.522 -16.633  0.00  0.00    +0.015 C 
ATOM      5  C   UNL     1      35.027 -21.036 -18.218  0.00  0.00    +0.029 C 
ATOM      6  C   UNL     1      36.196 -21.054 -17.456  0.00  0.00    +0.141 C 
ATOM      7  C   UNL     1      33.915 -21.770 -17.807  0.00  0.00    +0.004 C 
ENDROOT
BRANCH   2  10
ATOM      8  O   UNL     1      35.765 -24.859 -13.125  0.00  0.00    -0.434 OA
ATOM      9  O   UNL     1      36.866 -24.929 -15.106  0.00  0.00    -0.226 OA
ATOM     10  N   UNL     1      35.195 -23.311 -14.668  0.00  0.00    -0.221 N 
ATOM     11  C   UNL     1      34.902 -23.928 -12.456  0.00  0.00    +0.221 C 
ATOM     12  C   UNL     1      34.279 -23.123 -13.577  0.00  0.00    +0.148 C 
ATOM     13  C   UNL     1      36.029 -24.393 -14.394  0.00  0.00    +0.409 C 
BRANCH  11  14
ATOM     14  C   UNL     1      35.736 -23.083 -11.503  0.00  0.00    +0.199 C 
BRANCH  14  15
ATOM     15  O   UNL     1      36.958 -22.754 -12.140  0.00  0.00    -0.269 OA
BRANCH  15  16
ATOM     16  P   UNL     1      38.331 -23.365 -11.537  0.00  0.00    +0.473 P 
ATOM     17  O   UNL     1      39.347 -22.344 -11.112  0.00  0.00    -0.227 OA
BRANCH  16  18
ATOM     18  O   UNL     1      38.826 -24.398 -12.678  0.00  0.00    -0.303 OA
ATOM     19  H   UNL     1      39.630 -24.851 -12.378  0.00  0.00    +0.222 HD
ENDBRANCH  16  18
BRANCH  16  20
ATOM     20  O   UNL     1      37.807 -24.339 -10.357  0.00  0.00    -0.303 OA
ATOM     21  H   UNL     1      36.921 -24.059 -10.077  0.00  0.00    +0.222 HD
ENDBRANCH  16  20
ENDBRANCH  15  16
ENDBRANCH  14  15
ENDBRANCH  11  14
ENDBRANCH   2  10
BRANCH   5  23
ATOM     22  N   UNL     1      33.621 -19.225 -21.157  0.00  0.00    -0.234 NA
ATOM     23  C   UNL     1      34.965 -20.258 -19.437  0.00  0.00    +0.021 C 
ATOM     24  C   UNL     1      36.123 -19.808 -20.057  0.00  0.00    +0.004 C 
ATOM     25  C   UNL     1      33.750 -19.944 -20.020  0.00  0.00    +0.100 C 
ATOM     26  C   UNL     1      36.032 -19.065 -21.228  0.00  0.00    +0.029 C 
ATOM     27  C   UNL     1      34.768 -18.802 -21.733  0.00  0.00    +0.146 C 
BRANCH  27  32
ATOM     28  N   UNL     1      34.935 -16.749 -23.038  0.00  0.00    -0.105 NA
ATOM     29  N   UNL     1      34.607 -16.545 -24.322  0.00  0.00    -0.113 N 
ATOM     30  N   UNL     1      34.124 -18.584 -24.088  0.00  0.00    -0.085 NA
ATOM     31  N   UNL     1      34.122 -17.605 -24.983  0.00  0.00    -0.018 NA
ATOM     32  C   UNL     1      34.615 -18.041 -22.939  0.00  0.00    +0.092 C 
ATOM     33  C   UNL     1      34.765 -15.261 -24.955  0.00  0.00    +0.163 C 
ENDBRANCH  27  32
ENDBRANCH   5  23
TORSDOF 8
ENDMDL
MODEL 4
REMARK VINA RESULT:     -11.2      7.002     11.024
REMARK  Name = 11476460
REMARK  8 active torsions:
REMARK  status: ('A' for Active; 'I' for Inactive)
REMARK    1  A    between atoms: C_2  and  N_10
REMARK    2  A    between atoms: C_5  and  C_23
REMARK    3  A    between atoms: C_11  and  C_14
REMARK    4  A    between atoms: C_14  and  O_15
REMARK    5  A    between atoms: O_15  and  P_16
REMARK    6  A    between atoms: P_16  and  O_18
REMARK    7  A    between atoms: P_16  and  O_20
REMARK    8  A    between atoms: C_27  and  C_32
REMARK                            x       y       z     vdW  Elec       q    Type
REMARK                         _______ _______ _______ _____ _____    ______ ____
ROOT
ATOM      1  F   UNL     1      33.250 -20.406 -19.568  0.00  0.00    -0.204 F 
ATOM      2  C   UNL     1      35.238 -18.299 -21.771  0.00  0.00    +0.059 C 
ATOM      3  C   UNL     1      34.146 -18.974 -21.218  0.00  0.00    +0.045 C 
ATOM      4  C   UNL     1      36.498 -18.423 -21.175  0.00  0.00    +0.015 C 
ATOM      5  C   UNL     1      35.569 -19.886 -19.492  0.00  0.00    +0.029 C 
ATOM      6  C   UNL     1      34.310 -19.766 -20.081  0.00  0.00    +0.141 C 
ATOM      7  C   UNL     1      36.662 -19.215 -20.039  0.00  0.00    +0.004 C 
ENDROOT
BRANCH   2  10
ATOM      8  O   UNL     1      34.515 -16.783 -25.001  0.00  0.00    -0.434 OA
ATOM      9  O   UNL     1      33.973 -18.920 -24.466  0.00  0.00    -0.226 OA
ATOM     10  N   UNL     1      35.071 -17.491 -22.931  0.00  0.00    -0.221 N 
ATOM     11  C   UNL     1      34.952 -15.619 -24.286  0.00  0.00    +0.221 C 
ATOM     12  C   UNL     1      35.627 -16.171 -23.049  0.00  0.00    +0.148 C 
ATOM     13  C   UNL     1      34.466 -17.851 -24.133  0.00  0.00    +0.409 C 
BRANCH  11  14
ATOM     14  C   UNL     1      33.741 -14.751 -23.972  0.00  0.00    +0.199 C 
BRANCH  14  15
ATOM     15  O   UNL     1      34.120 -13.390 -24.074  0.00  0.00    -0.269 OA
BRANCH  15  16
ATOM     16  P   UNL     1      33.991 -12.452 -22.760  0.00  0.00    +0.473 P 
ATOM     17  O   UNL     1      32.621 -12.402 -22.149  0.00  0.00    -0.227 OA
BRANCH  16  18
ATOM     18  O   UNL     1      34.584 -11.029 -23.245  0.00  0.00    -0.303 OA
ATOM     19  H   UNL     1      35.000 -10.579 -22.492  0.00  0.00    +0.222 HD
ENDBRANCH  16  18
BRANCH  16  20
ATOM     20  O   UNL     1      35.151 -13.027 -21.790  0.00  0.00    -0.303 OA
ATOM     21  H   UNL     1      35.221 -12.465 -21.003  0.00  0.00    +0.222 HD
ENDBRANCH  16  20
ENDBRANCH  15  16
ENDBRANCH  14  15
ENDBRANCH  11  14
ENDBRANCH   2  10
BRANCH   5  23
ATOM     22  N   UNL     1      34.843 -22.355 -16.795  0.00  0.00    -0.234 NA
ATOM     23  C   UNL     1      35.745 -20.707 -18.313  0.00  0.00    +0.021 C 
ATOM     24  C   UNL     1      36.921 -20.657 -17.577  0.00  0.00    +0.004 C 
ATOM     25  C   UNL     1      34.745 -21.563 -17.886  0.00  0.00    +0.100 C 
ATOM     26  C   UNL     1      37.060 -21.456 -16.448  0.00  0.00    +0.029 C 
ATOM     27  C   UNL     1      36.002 -22.281 -16.102  0.00  0.00    +0.146 C 
BRANCH  27  32
ATOM     28  N   UNL     1      35.892 -22.689 -13.701  0.00  0.00    -0.105 NA
ATOM     29  N   UNL     1      36.088 -23.838 -13.037  0.00  0.00    -0.113 N 
ATOM     30  N   UNL     1      36.387 -24.452 -15.033  0.00  0.00    -0.085 NA
ATOM     31  N   UNL     1      36.384 -24.909 -13.786  0.00  0.00    -0.018 NA
ATOM     32  C   UNL     1      36.090 -23.126 -14.946  0.00  0.00    +0.092 C 
ATOM     33  C   UNL     1      35.988 -23.917 -11.603  0.00  0.00    +0.163 C 
ENDBRANCH  27  32
ENDBRANCH   5  23
TORSDOF 8
ENDMDL
MODEL 5
REMARK VINA RESULT:     -10.8      1.470      2.020
REMARK  Name = 11476460
REMARK  8 active torsions:
REMARK  status: ('A' for Active; 'I' for Inactive)
REMARK    1  A    between atoms: C_2  and  N_10
REMARK    2  A    between atoms: C_5  and  C_23
REMARK    3  A    between atoms: C_11  and  C_14
REMARK    4  A    between atoms: C_14  and  O_15
REMARK    5  A    between atoms: O_15  and  P_16
REMARK    6  A    between atoms: P_16  and  O_18
REMARK    7  A    between atoms: P_16  and  O_20
REMARK    8  A    between atoms: C_27  and  C_32
REMARK                            x       y       z     vdW  Elec       q    Type
REMARK                         _______ _______ _______ _____ _____    ______ ____
ROOT
ATOM      1  F   UNL     1      37.741 -20.130 -17.026  0.00  0.00    -0.204 F 
ATOM      2  C   UNL     1      36.070 -22.573 -14.909  0.00  0.00    +0.059 C 
ATOM      3  C   UNL     1      37.024 -21.670 -15.386  0.00  0.00    +0.045 C 
ATOM      4  C   UNL     1      34.900 -22.791 -15.644  0.00  0.00    +0.015 C 
ATOM      5  C   UNL     1      35.643 -21.212 -17.315  0.00  0.00    +0.029 C 
ATOM      6  C   UNL     1      36.812 -20.991 -16.586  0.00  0.00    +0.141 C 
ATOM      7  C   UNL     1      34.687 -22.113 -16.844  0.00  0.00    +0.004 C 
ENDROOT
BRANCH   2  10
ATOM      8  O   UNL     1      36.014 -24.615 -11.895  0.00  0.00    -0.434 OA
ATOM      9  O   UNL     1      34.327 -24.565 -13.411  0.00  0.00    -0.226 OA
ATOM     10  N   UNL     1      36.287 -23.266 -13.685  0.00  0.00    -0.221 N 
ATOM     11  C   UNL     1      37.374 -24.163 -11.849  0.00  0.00    +0.221 C 
ATOM     12  C   UNL     1      37.423 -23.019 -12.840  0.00  0.00    +0.148 C 
ATOM     13  C   UNL     1      35.435 -24.178 -13.065  0.00  0.00    +0.409 C 
BRANCH  11  14
ATOM     14  C   UNL     1      38.289 -25.321 -12.226  0.00  0.00    +0.199 C 
BRANCH  14  15
ATOM     15  O   UNL     1      39.505 -24.794 -12.727  0.00  0.00    -0.269 OA
BRANCH  15  16
ATOM     16  P   UNL     1      39.933 -25.152 -14.247  0.00  0.00    +0.473 P 
ATOM     17  O   UNL     1      41.202 -25.943 -14.378  0.00  0.00    -0.227 OA
BRANCH  16  18
ATOM     18  O   UNL     1      39.933 -23.717 -14.993  0.00  0.00    -0.303 OA
ATOM     19  H   UNL     1      40.576 -23.731 -15.721  0.00  0.00    +0.222 HD
ENDBRANCH  16  18
BRANCH  16  20
ATOM     20  O   UNL     1      38.612 -25.877 -14.834  0.00  0.00    -0.303 OA
ATOM     21  H   UNL     1      37.883 -25.780 -14.202  0.00  0.00    +0.222 HD
ENDBRANCH  16  20
ENDBRANCH  15  16
ENDBRANCH  14  15
ENDBRANCH  11  14
ENDBRANCH   2  10
BRANCH   5  23
ATOM     22  N   UNL     1      36.321 -19.222 -20.393  0.00  0.00    -0.234 NA
ATOM     23  C   UNL     1      35.419 -20.511 -18.561  0.00  0.00    +0.021 C 
ATOM     24  C   UNL     1      34.150 -20.437 -19.120  0.00  0.00    +0.004 C 
ATOM     25  C   UNL     1      36.462 -19.894 -19.228  0.00  0.00    +0.100 C 
ATOM     26  C   UNL     1      33.964 -19.755 -20.317  0.00  0.00    +0.029 C 
ATOM     27  C   UNL     1      35.073 -19.170 -20.909  0.00  0.00    +0.146 C 
BRANCH  27  32
ATOM     28  N   UNL     1      33.958 -18.674 -23.020  0.00  0.00    -0.105 NA
ATOM     29  N   UNL     1      34.295 -17.773 -23.953  0.00  0.00    -0.113 N 
ATOM     30  N   UNL     1      35.816 -17.480 -22.521  0.00  0.00    -0.085 NA
ATOM     31  N   UNL     1      35.390 -17.043 -23.700  0.00  0.00    -0.018 NA
ATOM     32  C   UNL     1      34.940 -18.452 -22.144  0.00  0.00    +0.092 C 
ATOM     33  C   UNL     1      33.528 -17.599 -25.159  0.00  0.00    +0.163 C 
ENDBRANCH  27  32
ENDBRANCH   5  23
TORSDOF 8
ENDMDL
MODEL 6
REMARK VINA RESULT:     -10.4      5.890      8.663
REMARK  Name = 11476460
REMARK  8 active torsions:
REMARK  status: ('A' for Active; 'I' for Inactive)
REMARK    1  A    between atoms: C_2  and  N_10
REMARK    2  A    between atoms: C_5  and  C_23
REMARK    3  A    between atoms: C_11  and  C_14
REMARK    4  A    between atoms: C_14  and  O_15
REMARK    5  A    between atoms: O_15  and  P_16
REMARK    6  A    between atoms: P_16  and  O_18
REMARK    7  A    between atoms: P_16  and  O_20
REMARK    8  A    between atoms: C_27  and  C_32
REMARK                            x       y       z     vdW  Elec       q    Type
REMARK                         _______ _______ _______ _____ _____    ______ ____
ROOT
ATOM      1  F   UNL     1      34.563 -14.615 -24.018  0.00  0.00    -0.204 F 
ATOM      2  C   UNL     1      35.369 -16.710 -21.154  0.00  0.00    +0.059 C 
ATOM      3  C   UNL     1      35.188 -16.288 -22.475  0.00  0.00    +0.045 C 
ATOM      4  C   UNL     1      35.088 -15.828 -20.105  0.00  0.00    +0.015 C 
ATOM      5  C   UNL     1      34.453 -14.123 -21.695  0.00  0.00    +0.029 C 
ATOM      6  C   UNL     1      34.731 -14.998 -22.745  0.00  0.00    +0.141 C 
ATOM      7  C   UNL     1      34.631 -14.538 -20.375  0.00  0.00    +0.004 C 
ENDROOT
BRANCH   2  10
ATOM      8  O   UNL     1      37.172 -19.823 -20.594  0.00  0.00    -0.434 OA
ATOM      9  O   UNL     1      38.173 -17.886 -21.219  0.00  0.00    -0.226 OA
ATOM     10  N   UNL     1      35.835 -18.026 -20.878  0.00  0.00    -0.221 N 
ATOM     11  C   UNL     1      35.881 -20.205 -20.099  0.00  0.00    +0.221 C 
ATOM     12  C   UNL     1      34.950 -19.127 -20.609  0.00  0.00    +0.148 C 
ATOM     13  C   UNL     1      37.149 -18.486 -20.922  0.00  0.00    +0.409 C 
BRANCH  11  14
ATOM     14  C   UNL     1      35.940 -20.276 -18.578  0.00  0.00    +0.199 C 
BRANCH  14  15
ATOM     15  O   UNL     1      35.659 -21.605 -18.176  0.00  0.00    -0.269 OA
BRANCH  15  16
ATOM     16  P   UNL     1      34.115 -22.089 -18.133  0.00  0.00    +0.473 P 
ATOM     17  O   UNL     1      33.101 -20.992 -18.284  0.00  0.00    -0.227 OA
BRANCH  16  18
ATOM     18  O   UNL     1      34.016 -22.938 -16.760  0.00  0.00    -0.303 OA
ATOM     19  H   UNL     1      34.069 -22.334 -16.002  0.00  0.00    +0.222 HD
ENDBRANCH  16  18
BRANCH  16  20
ATOM     20  O   UNL     1      34.061 -23.230 -19.279  0.00  0.00    -0.303 OA
ATOM     21  H   UNL     1      34.363 -24.074 -18.909  0.00  0.00    +0.222 HD
ENDBRANCH  16  20
ENDBRANCH  15  16
ENDBRANCH  14  15
ENDBRANCH  11  14
ENDBRANCH   2  10
BRANCH   5  23
ATOM     22  N   UNL     1      32.450 -10.990 -21.440  0.00  0.00    -0.234 NA
ATOM     23  C   UNL     1      33.977 -12.784 -21.969  0.00  0.00    +0.021 C 
ATOM     24  C   UNL     1      34.544 -12.019 -22.980  0.00  0.00    +0.004 C 
ATOM     25  C   UNL     1      32.943 -12.232 -21.235  0.00  0.00    +0.100 C 
ATOM     26  C   UNL     1      34.064 -10.736 -23.222  0.00  0.00    +0.029 C 
ATOM     27  C   UNL     1      33.025 -10.272 -22.431  0.00  0.00    +0.146 C 
BRANCH  27  32
ATOM     28  N   UNL     1      32.687  -8.251 -23.753  0.00  0.00    -0.105 NA
ATOM     29  N   UNL     1      31.999  -7.146 -23.431  0.00  0.00    -0.113 N 
ATOM     30  N   UNL     1      31.733  -8.322 -21.700  0.00  0.00    -0.085 NA
ATOM     31  N   UNL     1      31.417  -7.143 -22.224  0.00  0.00    -0.018 NA
ATOM     32  C   UNL     1      32.490  -8.957 -22.637  0.00  0.00    +0.092 C 
ATOM     33  C   UNL     1      31.892  -6.025 -24.329  0.00  0.00    +0.163 C 
ENDBRANCH  27  32
ENDBRANCH   5  23
TORSDOF 8
ENDMDL
MODEL 7
REMARK VINA RESULT:     -10.3      2.431      3.545
REMARK  Name = 11476460
REMARK  8 active torsions:
REMARK  status: ('A' for Active; 'I' for Inactive)
REMARK    1  A    between atoms: C_2  and  N_10
REMARK    2  A    between atoms: C_5  and  C_23
REMARK    3  A    between atoms: C_11  and  C_14
REMARK    4  A    between atoms: C_14  and  O_15
REMARK    5  A    between atoms: O_15  and  P_16
REMARK    6  A    between atoms: P_16  and  O_18
REMARK    7  A    between atoms: P_16  and  O_20
REMARK    8  A    between atoms: C_27  and  C_32
REMARK                            x       y       z     vdW  Elec       q    Type
REMARK                         _______ _______ _______ _____ _____    ______ ____
ROOT
ATOM      1  F   UNL     1      33.276 -21.317 -18.769  0.00  0.00    -0.204 F 
ATOM      2  C   UNL     1      35.874 -22.079 -16.337  0.00  0.00    +0.059 C 
ATOM      3  C   UNL     1      34.642 -22.074 -16.999  0.00  0.00    +0.045 C 
ATOM      4  C   UNL     1      36.929 -21.310 -16.840  0.00  0.00    +0.015 C 
ATOM      5  C   UNL     1      35.521 -20.543 -18.648  0.00  0.00    +0.029 C 
ATOM      6  C   UNL     1      34.466 -21.308 -18.151  0.00  0.00    +0.141 C 
ATOM      7  C   UNL     1      36.752 -20.544 -17.992  0.00  0.00    +0.004 C 
ENDROOT
BRANCH   2  10
ATOM      8  O   UNL     1      36.884 -23.692 -13.233  0.00  0.00    -0.434 OA
ATOM      9  O   UNL     1      38.021 -21.976 -14.185  0.00  0.00    -0.226 OA
ATOM     10  N   UNL     1      36.054 -22.861 -15.162  0.00  0.00    -0.221 N 
ATOM     11  C   UNL     1      35.597 -24.302 -13.409  0.00  0.00    +0.221 C 
ATOM     12  C   UNL     1      35.231 -23.996 -14.846  0.00  0.00    +0.148 C 
ATOM     13  C   UNL     1      37.068 -22.743 -14.213  0.00  0.00    +0.409 C 
BRANCH  11  14
ATOM     14  C   UNL     1      34.627 -23.701 -12.402  0.00  0.00    +0.199 C 
BRANCH  14  15
ATOM     15  O   UNL     1      33.313 -24.110 -12.738  0.00  0.00    -0.269 OA
BRANCH  15  16
ATOM     16  P   UNL     1      32.175 -22.974 -12.927  0.00  0.00    +0.473 P 
ATOM     17  O   UNL     1      30.780 -23.497 -13.110  0.00  0.00    -0.227 OA
BRANCH  16  18
ATOM     18  O   UNL     1      32.737 -22.064 -14.140  0.00  0.00    -0.303 OA
ATOM     19  H   UNL     1      33.703 -22.147 -14.185  0.00  0.00    +0.222 HD
ENDBRANCH  16  18
BRANCH  16  20
ATOM     20  O   UNL     1      32.386 -22.032 -11.628  0.00  0.00    -0.303 OA
ATOM     21  H   UNL     1      32.715 -22.568 -10.891  0.00  0.00    +0.222 HD
ENDBRANCH  16  20
ENDBRANCH  15  16
ENDBRANCH  14  15
ENDBRANCH  11  14
ENDBRANCH   2  10
BRANCH   5  23
ATOM     22  N   UNL     1      33.911 -19.038 -21.653  0.00  0.00    -0.234 NA
ATOM     23  C   UNL     1      35.342 -19.745 -19.842  0.00  0.00    +0.021 C 
ATOM     24  C   UNL     1      36.371 -18.950 -20.330  0.00  0.00    +0.004 C 
ATOM     25  C   UNL     1      34.143 -19.756 -20.532  0.00  0.00    +0.100 C 
ATOM     26  C   UNL     1      36.170 -18.196 -21.481  0.00  0.00    +0.029 C 
ATOM     27  C   UNL     1      34.933 -18.274 -22.100  0.00  0.00    +0.146 C 
BRANCH  27  32
ATOM     28  N   UNL     1      34.901 -16.209 -23.396  0.00  0.00    -0.105 NA
ATOM     29  N   UNL     1      34.497 -16.020 -24.660  0.00  0.00    -0.113 N 
ATOM     30  N   UNL     1      34.161 -18.088 -24.419  0.00  0.00    -0.085 NA
ATOM     31  N   UNL     1      34.051 -17.106 -25.305  0.00  0.00    -0.018 NA
ATOM     32  C   UNL     1      34.671 -17.519 -23.291  0.00  0.00    +0.092 C 
ATOM     33  C   UNL     1      34.540 -14.726 -25.290  0.00  0.00    +0.163 C 
ENDBRANCH  27  32
ENDBRANCH   5  23
TORSDOF 8
ENDMDL
MODEL 8
REMARK VINA RESULT:      -9.5     10.367     13.832
REMARK  Name = 11476460
REMARK  8 active torsions:
REMARK  status: ('A' for Active; 'I' for Inactive)
REMARK    1  A    between atoms: C_2  and  N_10
REMARK    2  A    between atoms: C_5  and  C_23
REMARK    3  A    between atoms: C_11  and  C_14
REMARK    4  A    between atoms: C_14  and  O_15
REMARK    5  A    between atoms: O_15  and  P_16
REMARK    6  A    between atoms: P_16  and  O_18
REMARK    7  A    between atoms: P_16  and  O_20
REMARK    8  A    between atoms: C_27  and  C_32
REMARK                            x       y       z     vdW  Elec       q    Type
REMARK                         _______ _______ _______ _____ _____    ______ ____
ROOT
ATOM      1  F   UNL     1      32.559 -12.946 -19.985  0.00  0.00    -0.204 F 
ATOM      2  C   UNL     1      33.132 -10.322 -22.440  0.00  0.00    +0.059 C 
ATOM      3  C   UNL     1      32.610 -11.017 -21.345  0.00  0.00    +0.045 C 
ATOM      4  C   UNL     1      34.125 -10.918 -23.225  0.00  0.00    +0.015 C 
ATOM      5  C   UNL     1      34.064 -12.886 -21.824  0.00  0.00    +0.029 C 
ATOM      6  C   UNL     1      33.074 -12.296 -21.038  0.00  0.00    +0.141 C 
ATOM      7  C   UNL     1      34.589 -12.197 -22.918  0.00  0.00    +0.004 C 
ENDROOT
BRANCH   2  10
ATOM      8  O   UNL     1      31.321  -7.219 -23.030  0.00  0.00    -0.434 OA
ATOM      9  O   UNL     1      30.358  -9.098 -22.204  0.00  0.00    -0.226 OA
ATOM     10  N   UNL     1      32.658  -9.017 -22.753  0.00  0.00    -0.221 N 
ATOM     11  C   UNL     1      32.661  -6.755 -23.248  0.00  0.00    +0.221 C 
ATOM     12  C   UNL     1      33.477  -8.023 -23.393  0.00  0.00    +0.148 C 
ATOM     13  C   UNL     1      31.362  -8.528 -22.606  0.00  0.00    +0.409 C 
BRANCH  11  14
ATOM     14  C   UNL     1      33.085  -5.902 -22.060  0.00  0.00    +0.199 C 
BRANCH  14  15
ATOM     15  O   UNL     1      33.577  -6.756 -21.042  0.00  0.00    -0.269 OA
BRANCH  15  16
ATOM     16  P   UNL     1      32.779  -6.818 -19.634  0.00  0.00    +0.473 P 
ATOM     17  O   UNL     1      32.191  -8.157 -19.297  0.00  0.00    -0.227 OA
BRANCH  16  18
ATOM     18  O   UNL     1      31.717  -5.604 -19.740  0.00  0.00    -0.303 OA
ATOM     19  H   UNL     1      30.880  -5.936 -20.103  0.00  0.00    +0.222 HD
ENDBRANCH  16  18
BRANCH  16  20
ATOM     20  O   UNL     1      33.870  -6.265 -18.576  0.00  0.00    -0.303 OA
ATOM     21  H   UNL     1      34.406  -5.575 -18.996  0.00  0.00    +0.222 HD
ENDBRANCH  16  20
ENDBRANCH  15  16
ENDBRANCH  14  15
ENDBRANCH  11  14
ENDBRANCH   2  10
BRANCH   5  23
ATOM     22  N   UNL     1      35.139 -15.850 -19.836  0.00  0.00    -0.234 NA
ATOM     23  C   UNL     1      34.548 -14.213 -21.511  0.00  0.00    +0.021 C 
ATOM     24  C   UNL     1      34.885 -15.107 -22.519  0.00  0.00    +0.004 C 
ATOM     25  C   UNL     1      34.691 -14.627 -20.198  0.00  0.00    +0.100 C 
ATOM     26  C   UNL     1      35.350 -16.375 -22.186  0.00  0.00    +0.029 C 
ATOM     27  C   UNL     1      35.457 -16.694 -20.842  0.00  0.00    +0.146 C 
BRANCH  27  32
ATOM     28  N   UNL     1      35.141 -18.934 -19.931  0.00  0.00    -0.105 NA
ATOM     29  N   UNL     1      36.055 -19.896 -19.740  0.00  0.00    -0.113 N 
ATOM     30  N   UNL     1      37.240 -18.351 -20.552  0.00  0.00    -0.085 NA
ATOM     31  N   UNL     1      37.313 -19.595 -20.093  0.00  0.00    -0.018 NA
ATOM     32  C   UNL     1      35.932 -17.988 -20.442  0.00  0.00    +0.092 C 
ATOM     33  C   UNL     1      35.708 -21.179 -19.186  0.00  0.00    +0.163 C 
ENDBRANCH  27  32
ENDBRANCH   5  23
TORSDOF 8
ENDMDL
MODEL 9
REMARK VINA RESULT:      -9.5      5.462      8.004
REMARK  Name = 11476460
REMARK  8 active torsions:
REMARK  status: ('A' for Active; 'I' for Inactive)
REMARK    1  A    between atoms: C_2  and  N_10
REMARK    2  A    between atoms: C_5  and  C_23
REMARK    3  A    between atoms: C_11  and  C_14
REMARK    4  A    between atoms: C_14  and  O_15
REMARK    5  A    between atoms: O_15  and  P_16
REMARK    6  A    between atoms: P_16  and  O_18
REMARK    7  A    between atoms: P_16  and  O_20
REMARK    8  A    between atoms: C_27  and  C_32
REMARK                            x       y       z     vdW  Elec       q    Type
REMARK                         _______ _______ _______ _____ _____    ______ ____
ROOT
ATOM      1  F   UNL     1      34.667 -15.091 -23.908  0.00  0.00    -0.204 F 
ATOM      2  C   UNL     1      35.439 -17.122 -20.988  0.00  0.00    +0.059 C 
ATOM      3  C   UNL     1      35.255 -16.736 -22.319  0.00  0.00    +0.045 C 
ATOM      4  C   UNL     1      35.204 -16.198 -19.964  0.00  0.00    +0.015 C 
ATOM      5  C   UNL     1      34.605 -14.523 -21.600  0.00  0.00    +0.029 C 
ATOM      6  C   UNL     1      34.839 -15.440 -22.625  0.00  0.00    +0.141 C 
ATOM      7  C   UNL     1      34.787 -14.902 -20.270  0.00  0.00    +0.004 C 
ENDROOT
BRANCH   2  10
ATOM      8  O   UNL     1      37.150 -20.250 -20.250  0.00  0.00    -0.434 OA
ATOM      9  O   UNL     1      38.227 -18.305 -20.704  0.00  0.00    -0.226 OA
ATOM     10  N   UNL     1      35.864 -18.444 -20.676  0.00  0.00    -0.221 N 
ATOM     11  C   UNL     1      35.805 -20.636 -19.935  0.00  0.00    +0.221 C 
ATOM     12  C   UNL     1      34.950 -19.546 -20.546  0.00  0.00    +0.148 C 
ATOM     13  C   UNL     1      37.172 -18.907 -20.555  0.00  0.00    +0.409 C 
BRANCH  11  14
ATOM     14  C   UNL     1      35.663 -20.733 -18.422  0.00  0.00    +0.199 C 
BRANCH  14  15
ATOM     15  O   UNL     1      36.813 -21.373 -17.899  0.00  0.00    -0.269 OA
BRANCH  15  16
ATOM     16  P   UNL     1      37.046 -21.354 -16.297  0.00  0.00    +0.473 P 
ATOM     17  O   UNL     1      35.811 -21.577 -15.473  0.00  0.00    -0.227 OA
BRANCH  16  18
ATOM     18  O   UNL     1      37.808 -19.952 -16.036  0.00  0.00    -0.303 OA
ATOM     19  H   UNL     1      37.311 -19.231 -16.456  0.00  0.00    +0.222 HD
ENDBRANCH  16  18
BRANCH  16  20
ATOM     20  O   UNL     1      38.213 -22.455 -16.088  0.00  0.00    -0.303 OA
ATOM     21  H   UNL     1      38.811 -22.161 -15.383  0.00  0.00    +0.222 HD
ENDBRANCH  16  20
ENDBRANCH  15  16
ENDBRANCH  14  15
ENDBRANCH  11  14
ENDBRANCH   2  10
BRANCH   5  23
ATOM     22  N   UNL     1      32.843 -11.251 -21.318  0.00  0.00    -0.234 NA
ATOM     23  C   UNL     1      34.172 -13.178 -21.911  0.00  0.00    +0.021 C 
ATOM     24  C   UNL     1      34.629 -12.526 -23.049  0.00  0.00    +0.004 C 
ATOM     25  C   UNL     1      33.289 -12.505 -21.086  0.00  0.00    +0.100 C 
ATOM     26  C   UNL     1      34.194 -11.234 -23.323  0.00  0.00    +0.029 C 
ATOM     27  C   UNL     1      33.309 -10.646 -22.434  0.00  0.00    +0.146 C 
BRANCH  27  32
ATOM     28  N   UNL     1      32.188  -8.593 -21.745  0.00  0.00    -0.105 NA
ATOM     29  N   UNL     1      31.968  -7.479 -22.458  0.00  0.00    -0.113 N 
ATOM     30  N   UNL     1      32.982  -8.682 -23.863  0.00  0.00    -0.085 NA
ATOM     31  N   UNL     1      32.421  -7.487 -23.719  0.00  0.00    -0.018 NA
ATOM     32  C   UNL     1      32.826  -9.315 -22.668  0.00  0.00    +0.092 C 
ATOM     33  C   UNL     1      31.283  -6.340 -21.903  0.00  0.00    +0.163 C 
ENDBRANCH  27  32
ENDBRANCH   5  23
TORSDOF 8
ENDMDL
