MODEL 1
REMARK VINA RESULT:     -11.9      0.000      0.000
REMARK  Name = 5312137
REMARK  3 active torsions:
REMARK  status: ('A' for Active; 'I' for Inactive)
REMARK    1  A    between atoms: C_3  and  C_20
REMARK    2  A    between atoms: C_7  and  S_23
REMARK    3  A    between atoms: S_23  and  N_26
REMARK                            x       y       z     vdW  Elec       q    Type
REMARK                         _______ _______ _______ _____ _____    ______ ____
ROOT
ATOM      1  O   UNL     1      32.797 -19.890 -20.152  0.00  0.00    -0.270 OA
ATOM      2  N   UNL     1      32.684 -21.417 -18.353  0.00  0.00    -0.280 N 
ATOM      3  C   UNL     1      35.669 -19.715 -19.390  0.00  0.00    +0.019 C 
ATOM      4  C   UNL     1      34.725 -20.480 -18.789  0.00  0.00    +0.056 C 
ATOM      5  C   UNL     1      34.874 -21.382 -17.653  0.00  0.00    +0.019 C 
ATOM      6  C   UNL     1      33.605 -21.924 -17.429  0.00  0.00    +0.051 C 
ATOM      7  C   UNL     1      35.716 -22.660 -15.827  0.00  0.00    +0.122 C 
ATOM      8  C   UNL     1      35.945 -21.740 -16.857  0.00  0.00    +0.021 C 
ATOM      9  C   UNL     1      33.291 -20.515 -19.232  0.00  0.00    +0.250 C 
ATOM     10  C   UNL     1      33.357 -22.833 -16.420  0.00  0.00    +0.016 C 
ATOM     11  C   UNL     1      34.434 -23.201 -15.611  0.00  0.00    +0.021 C 
ATOM     12  H   UNL     1      31.731 -21.663 -18.379  0.00  0.00    +0.155 HD
ENDROOT
BRANCH   3  20
ATOM     13  N   UNL     1      35.084 -19.432 -21.680  0.00  0.00    -0.316 N 
ATOM     14  C   UNL     1      34.924 -18.444 -22.611  0.00  0.00    +0.021 C 
ATOM     15  C   UNL     1      35.198 -17.231 -22.013  0.00  0.00    -0.012 C 
ATOM     16  C   UNL     1      34.551 -18.659 -24.034  0.00  0.00    +0.041 C 
ATOM     17  C   UNL     1      35.103 -15.938 -22.745  0.00  0.00    +0.027 C 
ATOM     18  C   UNL     1      34.134 -17.318 -24.669  0.00  0.00    +0.006 C 
ATOM     19  C   UNL     1      35.076 -16.165 -24.270  0.00  0.00    +0.005 C 
ATOM     20  C   UNL     1      35.454 -18.865 -20.486  0.00  0.00    +0.048 C 
ATOM     21  C   UNL     1      35.531 -17.499 -20.663  0.00  0.00    +0.011 C 
ATOM     22  H   UNL     1      34.955 -20.395 -21.841  0.00  0.00    +0.152 HD
ENDBRANCH   3  20
BRANCH   7  23
ATOM     23  S   UNL     1      37.040 -23.145 -14.794  0.00  0.00    +0.063 S 
ATOM     24  O   UNL     1      37.170 -24.596 -14.874  0.00  0.00    -0.153 OA
ATOM     25  O   UNL     1      38.197 -22.322 -15.123  0.00  0.00    -0.153 OA
BRANCH  23  26
ATOM     26  N   UNL     1      36.485 -22.722 -13.210  0.00  0.00    -0.153 NA
ATOM     27  C   UNL     1      35.364 -23.513 -12.642  0.00  0.00    +0.115 C 
ATOM     28  C   UNL     1      37.511 -22.396 -12.187  0.00  0.00    +0.115 C 
ENDBRANCH  23  26
ENDBRANCH   7  23
TORSDOF 3
ENDMDL
MODEL 2
REMARK VINA RESULT:     -11.8      1.334      1.772
REMARK  Name = 5312137
REMARK  3 active torsions:
REMARK  status: ('A' for Active; 'I' for Inactive)
REMARK    1  A    between atoms: C_3  and  C_20
REMARK    2  A    between atoms: C_7  and  S_23
REMARK    3  A    between atoms: S_23  and  N_26
REMARK                            x       y       z     vdW  Elec       q    Type
REMARK                         _______ _______ _______ _____ _____    ______ ____
ROOT
ATOM      1  O   UNL     1      33.024 -20.471 -19.750  0.00  0.00    -0.270 OA
ATOM      2  N   UNL     1      33.012 -21.825 -17.815  0.00  0.00    -0.280 N 
ATOM      3  C   UNL     1      35.902 -20.112 -19.079  0.00  0.00    +0.019 C 
ATOM      4  C   UNL     1      35.003 -20.854 -18.387  0.00  0.00    +0.056 C 
ATOM      5  C   UNL     1      35.213 -21.640 -17.176  0.00  0.00    +0.019 C 
ATOM      6  C   UNL     1      33.973 -22.208 -16.872  0.00  0.00    +0.051 C 
ATOM      7  C   UNL     1      36.145 -22.708 -15.262  0.00  0.00    +0.122 C 
ATOM      8  C   UNL     1      36.314 -21.880 -16.377  0.00  0.00    +0.021 C 
ATOM      9  C   UNL     1      33.563 -20.987 -18.789  0.00  0.00    +0.250 C 
ATOM     10  C   UNL     1      33.784 -23.027 -15.777  0.00  0.00    +0.016 C 
ATOM     11  C   UNL     1      34.892 -23.276 -14.965  0.00  0.00    +0.021 C 
ATOM     12  H   UNL     1      32.070 -22.110 -17.795  0.00  0.00    +0.155 HD
ENDROOT
BRANCH   3  20
ATOM     13  N   UNL     1      35.710 -18.009 -20.177  0.00  0.00    -0.316 N 
ATOM     14  C   UNL     1      35.413 -17.484 -21.404  0.00  0.00    +0.021 C 
ATOM     15  C   UNL     1      35.135 -18.524 -22.267  0.00  0.00    -0.012 C 
ATOM     16  C   UNL     1      35.368 -16.035 -21.728  0.00  0.00    +0.041 C 
ATOM     17  C   UNL     1      34.786 -18.305 -23.697  0.00  0.00    +0.027 C 
ATOM     18  C   UNL     1      35.344 -15.847 -23.258  0.00  0.00    +0.006 C 
ATOM     19  C   UNL     1      34.388 -16.838 -23.953  0.00  0.00    +0.005 C 
ATOM     20  C   UNL     1      35.629 -19.377 -20.243  0.00  0.00    +0.048 C 
ATOM     21  C   UNL     1      35.276 -19.726 -21.530  0.00  0.00    +0.011 C 
ATOM     22  H   UNL     1      35.943 -17.488 -19.374  0.00  0.00    +0.152 HD
ENDBRANCH   3  20
BRANCH   7  23
ATOM     23  S   UNL     1      37.510 -23.042 -14.221  0.00  0.00    +0.063 S 
ATOM     24  O   UNL     1      38.716 -23.041 -15.041  0.00  0.00    -0.153 OA
ATOM     25  O   UNL     1      37.442 -22.137 -13.080  0.00  0.00    -0.153 OA
BRANCH  23  26
ATOM     26  N   UNL     1      37.209 -24.656 -13.675  0.00  0.00    -0.153 NA
ATOM     27  C   UNL     1      37.516 -25.766 -14.612  0.00  0.00    +0.115 C 
ATOM     28  C   UNL     1      37.582 -24.989 -12.276  0.00  0.00    +0.115 C 
ENDBRANCH  23  26
ENDBRANCH   7  23
TORSDOF 3
ENDMDL
MODEL 3
REMARK VINA RESULT:     -11.4      2.857      8.615
REMARK  Name = 5312137
REMARK  3 active torsions:
REMARK  status: ('A' for Active; 'I' for Inactive)
REMARK    1  A    between atoms: C_3  and  C_20
REMARK    2  A    between atoms: C_7  and  S_23
REMARK    3  A    between atoms: S_23  and  N_26
REMARK                            x       y       z     vdW  Elec       q    Type
REMARK                         _______ _______ _______ _____ _____    ______ ____
ROOT
ATOM      1  O   UNL     1      34.554 -22.784 -16.070  0.00  0.00    -0.270 OA
ATOM      2  N   UNL     1      33.549 -21.754 -17.944  0.00  0.00    -0.280 N 
ATOM      3  C   UNL     1      36.945 -21.223 -16.911  0.00  0.00    +0.019 C 
ATOM      4  C   UNL     1      35.735 -21.228 -17.522  0.00  0.00    +0.056 C 
ATOM      5  C   UNL     1      35.312 -20.493 -18.708  0.00  0.00    +0.019 C 
ATOM      6  C   UNL     1      33.978 -20.848 -18.921  0.00  0.00    +0.051 C 
ATOM      7  C   UNL     1      35.216 -19.080 -20.625  0.00  0.00    +0.122 C 
ATOM      8  C   UNL     1      35.950 -19.607 -19.555  0.00  0.00    +0.021 C 
ATOM      9  C   UNL     1      34.572 -22.045 -17.037  0.00  0.00    +0.250 C 
ATOM     10  C   UNL     1      33.235 -20.342 -19.969  0.00  0.00    +0.016 C 
ATOM     11  C   UNL     1      33.872 -19.445 -20.829  0.00  0.00    +0.021 C 
ATOM     12  H   UNL     1      32.642 -22.136 -17.900  0.00  0.00    +0.155 HD
ENDROOT
BRANCH   3  20
ATOM     13  N   UNL     1      38.350 -22.820 -15.843  0.00  0.00    -0.316 N 
ATOM     14  C   UNL     1      38.517 -23.434 -14.633  0.00  0.00    +0.021 C 
ATOM     15  C   UNL     1      37.545 -22.969 -13.770  0.00  0.00    -0.012 C 
ATOM     16  C   UNL     1      39.551 -24.455 -14.325  0.00  0.00    +0.041 C 
ATOM     17  C   UNL     1      37.447 -23.423 -12.356  0.00  0.00    +0.027 C 
ATOM     18  C   UNL     1      39.647 -24.653 -12.800  0.00  0.00    +0.006 C 
ATOM     19  C   UNL     1      38.259 -24.714 -12.131  0.00  0.00    +0.005 C 
ATOM     20  C   UNL     1      37.284 -21.959 -15.765  0.00  0.00    +0.048 C 
ATOM     21  C   UNL     1      36.766 -22.030 -14.489  0.00  0.00    +0.011 C 
ATOM     22  H   UNL     1      38.907 -22.972 -16.642  0.00  0.00    +0.152 HD
ENDBRANCH   3  20
BRANCH   7  23
ATOM     23  S   UNL     1      35.979 -17.955 -21.723  0.00  0.00    +0.063 S 
ATOM     24  O   UNL     1      37.379 -17.821 -21.334  0.00  0.00    -0.153 OA
ATOM     25  O   UNL     1      35.672 -18.372 -23.086  0.00  0.00    -0.153 OA
BRANCH  23  26
ATOM     26  N   UNL     1      35.164 -16.464 -21.397  0.00  0.00    -0.153 NA
ATOM     27  C   UNL     1      35.217 -15.943 -20.007  0.00  0.00    +0.115 C 
ATOM     28  C   UNL     1      35.288 -15.379 -22.403  0.00  0.00    +0.115 C 
ENDBRANCH  23  26
ENDBRANCH   7  23
TORSDOF 3
ENDMDL
MODEL 4
REMARK VINA RESULT:     -10.9      5.715      9.032
REMARK  Name = 5312137
REMARK  3 active torsions:
REMARK  status: ('A' for Active; 'I' for Inactive)
REMARK    1  A    between atoms: C_3  and  C_20
REMARK    2  A    between atoms: C_7  and  S_23
REMARK    3  A    between atoms: S_23  and  N_26
REMARK                            x       y       z     vdW  Elec       q    Type
REMARK                         _______ _______ _______ _____ _____    ______ ____
ROOT
ATOM      1  O   UNL     1      33.267 -12.307 -25.296  0.00  0.00    -0.270 OA
ATOM      2  N   UNL     1      33.690 -14.630 -25.252  0.00  0.00    -0.280 N 
ATOM      3  C   UNL     1      34.484 -12.369 -22.580  0.00  0.00    +0.019 C 
ATOM      4  C   UNL     1      34.303 -13.431 -23.403  0.00  0.00    +0.056 C 
ATOM      5  C   UNL     1      34.649 -14.829 -23.172  0.00  0.00    +0.019 C 
ATOM      6  C   UNL     1      34.255 -15.514 -24.325  0.00  0.00    +0.051 C 
ATOM      7  C   UNL     1      35.417 -16.884 -22.243  0.00  0.00    +0.122 C 
ATOM      8  C   UNL     1      35.233 -15.502 -22.116  0.00  0.00    +0.021 C 
ATOM      9  C   UNL     1      33.679 -13.320 -24.764  0.00  0.00    +0.250 C 
ATOM     10  C   UNL     1      34.427 -16.875 -24.471  0.00  0.00    +0.016 C 
ATOM     11  C   UNL     1      35.017 -17.564 -23.409  0.00  0.00    +0.021 C 
ATOM     12  H   UNL     1      33.345 -14.897 -26.135  0.00  0.00    +0.155 HD
ENDROOT
BRANCH   3  20
ATOM     13  N   UNL     1      35.075 -10.225 -23.429  0.00  0.00    -0.316 N 
ATOM     14  C   UNL     1      34.532  -8.987 -23.633  0.00  0.00    +0.021 C 
ATOM     15  C   UNL     1      33.223  -9.007 -23.195  0.00  0.00    -0.012 C 
ATOM     16  C   UNL     1      35.253  -7.817 -24.199  0.00  0.00    +0.041 C 
ATOM     17  C   UNL     1      32.331  -7.818 -23.285  0.00  0.00    +0.027 C 
ATOM     18  C   UNL     1      34.240  -6.725 -24.592  0.00  0.00    +0.006 C 
ATOM     19  C   UNL     1      33.145  -6.531 -23.524  0.00  0.00    +0.005 C 
ATOM     20  C   UNL     1      34.126 -11.043 -22.869  0.00  0.00    +0.048 C 
ATOM     21  C   UNL     1      32.965 -10.313 -22.713  0.00  0.00    +0.011 C 
ATOM     22  H   UNL     1      35.998 -10.487 -23.649  0.00  0.00    +0.152 HD
ENDBRANCH   3  20
BRANCH   7  23
ATOM     23  S   UNL     1      36.153 -17.780 -20.934  0.00  0.00    +0.063 S 
ATOM     24  O   UNL     1      37.523 -18.100 -21.319  0.00  0.00    -0.153 OA
ATOM     25  O   UNL     1      35.930 -17.041 -19.698  0.00  0.00    -0.153 OA
BRANCH  23  26
ATOM     26  N   UNL     1      35.232 -19.244 -20.886  0.00  0.00    -0.153 NA
ATOM     27  C   UNL     1      35.811 -20.395 -20.148  0.00  0.00    +0.115 C 
ATOM     28  C   UNL     1      33.767 -19.127 -20.674  0.00  0.00    +0.115 C 
ENDBRANCH  23  26
ENDBRANCH   7  23
TORSDOF 3
ENDMDL
MODEL 5
REMARK VINA RESULT:     -10.2      2.326      3.488
REMARK  Name = 5312137
REMARK  3 active torsions:
REMARK  status: ('A' for Active; 'I' for Inactive)
REMARK    1  A    between atoms: C_3  and  C_20
REMARK    2  A    between atoms: C_7  and  S_23
REMARK    3  A    between atoms: S_23  and  N_26
REMARK                            x       y       z     vdW  Elec       q    Type
REMARK                         _______ _______ _______ _____ _____    ______ ____
ROOT
ATOM      1  O   UNL     1      33.527 -21.675 -17.601  0.00  0.00    -0.270 OA
ATOM      2  N   UNL     1      33.516 -22.907 -15.586  0.00  0.00    -0.280 N 
ATOM      3  C   UNL     1      36.427 -21.361 -17.007  0.00  0.00    +0.019 C 
ATOM      4  C   UNL     1      35.522 -22.032 -16.254  0.00  0.00    +0.056 C 
ATOM      5  C   UNL     1      35.734 -22.748 -15.000  0.00  0.00    +0.019 C 
ATOM      6  C   UNL     1      34.484 -23.259 -14.639  0.00  0.00    +0.051 C 
ATOM      7  C   UNL     1      36.674 -23.723 -13.041  0.00  0.00    +0.122 C 
ATOM      8  C   UNL     1      36.844 -22.971 -14.208  0.00  0.00    +0.021 C 
ATOM      9  C   UNL     1      34.070 -22.147 -16.620  0.00  0.00    +0.250 C 
ATOM     10  C   UNL     1      34.294 -24.004 -13.492  0.00  0.00    +0.016 C 
ATOM     11  C   UNL     1      35.411 -24.234 -12.686  0.00  0.00    +0.021 C 
ATOM     12  H   UNL     1      32.566 -23.163 -15.531  0.00  0.00    +0.155 HD
ENDROOT
BRANCH   3  20
ATOM     13  N   UNL     1      37.067 -19.774 -18.661  0.00  0.00    -0.316 N 
ATOM     14  C   UNL     1      36.619 -19.239 -19.837  0.00  0.00    +0.021 C 
ATOM     15  C   UNL     1      35.401 -19.813 -20.141  0.00  0.00    -0.012 C 
ATOM     16  C   UNL     1      37.319 -18.191 -20.624  0.00  0.00    +0.041 C 
ATOM     17  C   UNL     1      34.639 -19.466 -21.371  0.00  0.00    +0.027 C 
ATOM     18  C   UNL     1      36.697 -18.097 -22.031  0.00  0.00    +0.006 C 
ATOM     19  C   UNL     1      35.157 -18.154 -21.994  0.00  0.00    +0.005 C 
ATOM     20  C   UNL     1      36.152 -20.691 -18.209  0.00  0.00    +0.048 C 
ATOM     21  C   UNL     1      35.108 -20.737 -19.109  0.00  0.00    +0.011 C 
ATOM     22  H   UNL     1      37.911 -19.538 -18.212  0.00  0.00    +0.152 HD
ENDBRANCH   3  20
BRANCH   7  23
ATOM     23  S   UNL     1      38.049 -24.032 -12.007  0.00  0.00    +0.063 S 
ATOM     24  O   UNL     1      38.827 -22.802 -11.907  0.00  0.00    -0.153 OA
ATOM     25  O   UNL     1      37.564 -24.651 -10.779  0.00  0.00    -0.153 OA
BRANCH  23  26
ATOM     26  N   UNL     1      38.964 -25.200 -12.898  0.00  0.00    -0.153 NA
ATOM     27  C   UNL     1      38.215 -26.131 -13.780  0.00  0.00    +0.115 C 
ATOM     28  C   UNL     1      40.236 -24.749 -13.517  0.00  0.00    +0.115 C 
ENDBRANCH  23  26
ENDBRANCH   7  23
TORSDOF 3
ENDMDL
MODEL 6
REMARK VINA RESULT:      -9.6      3.225      4.562
REMARK  Name = 5312137
REMARK  3 active torsions:
REMARK  status: ('A' for Active; 'I' for Inactive)
REMARK    1  A    between atoms: C_3  and  C_20
REMARK    2  A    between atoms: C_7  and  S_23
REMARK    3  A    between atoms: S_23  and  N_26
REMARK                            x       y       z     vdW  Elec       q    Type
REMARK                         _______ _______ _______ _____ _____    ______ ____
ROOT
ATOM      1  O   UNL     1      36.376 -21.047 -17.973  0.00  0.00    -0.270 OA
ATOM      2  N   UNL     1      35.840 -22.373 -16.092  0.00  0.00    -0.280 N 
ATOM      3  C   UNL     1      33.425 -20.988 -18.358  0.00  0.00    +0.019 C 
ATOM      4  C   UNL     1      34.091 -21.623 -17.363  0.00  0.00    +0.056 C 
ATOM      5  C   UNL     1      33.548 -22.413 -16.264  0.00  0.00    +0.019 C 
ATOM      6  C   UNL     1      34.652 -22.845 -15.524  0.00  0.00    +0.051 C 
ATOM      7  C   UNL     1      32.112 -23.555 -14.744  0.00  0.00    +0.122 C 
ATOM      8  C   UNL     1      32.265 -22.762 -15.887  0.00  0.00    +0.021 C 
ATOM      9  C   UNL     1      35.587 -21.608 -17.235  0.00  0.00    +0.250 C 
ATOM     10  C   UNL     1      34.524 -23.628 -14.394  0.00  0.00    +0.016 C 
ATOM     11  C   UNL     1      33.231 -23.984 -14.005  0.00  0.00    +0.021 C 
ATOM     12  H   UNL     1      36.739 -22.556 -15.734  0.00  0.00    +0.155 HD
ENDROOT
BRANCH   3  20
ATOM     13  N   UNL     1      35.272 -19.730 -19.178  0.00  0.00    -0.316 N 
ATOM     14  C   UNL     1      35.666 -19.043 -20.292  0.00  0.00    +0.021 C 
ATOM     15  C   UNL     1      34.653 -19.107 -21.226  0.00  0.00    -0.012 C 
ATOM     16  C   UNL     1      36.958 -18.323 -20.442  0.00  0.00    +0.041 C 
ATOM     17  C   UNL     1      34.761 -18.473 -22.568  0.00  0.00    +0.027 C 
ATOM     18  C   UNL     1      37.186 -17.974 -21.926  0.00  0.00    +0.006 C 
ATOM     19  C   UNL     1      35.908 -17.444 -22.605  0.00  0.00    +0.005 C 
ATOM     20  C   UNL     1      34.015 -20.241 -19.388  0.00  0.00    +0.048 C 
ATOM     21  C   UNL     1      33.607 -19.871 -20.653  0.00  0.00    +0.011 C 
ATOM     22  H   UNL     1      35.804 -19.840 -18.356  0.00  0.00    +0.152 HD
ENDBRANCH   3  20
BRANCH   7  23
ATOM     23  S   UNL     1      30.509 -24.021 -14.227  0.00  0.00    +0.063 S 
ATOM     24  O   UNL     1      30.312 -25.426 -14.570  0.00  0.00    -0.153 OA
ATOM     25  O   UNL     1      30.344 -23.615 -12.836  0.00  0.00    -0.153 OA
BRANCH  23  26
ATOM     26  N   UNL     1      29.472 -23.054 -15.219  0.00  0.00    -0.153 NA
ATOM     27  C   UNL     1      28.521 -23.763 -16.113  0.00  0.00    +0.115 C 
ATOM     28  C   UNL     1      28.865 -21.846 -14.606  0.00  0.00    +0.115 C 
ENDBRANCH  23  26
ENDBRANCH   7  23
TORSDOF 3
ENDMDL
MODEL 7
REMARK VINA RESULT:      -9.3      5.921     11.081
REMARK  Name = 5312137
REMARK  3 active torsions:
REMARK  status: ('A' for Active; 'I' for Inactive)
REMARK    1  A    between atoms: C_3  and  C_20
REMARK    2  A    between atoms: C_7  and  S_23
REMARK    3  A    between atoms: S_23  and  N_26
REMARK                            x       y       z     vdW  Elec       q    Type
REMARK                         _______ _______ _______ _____ _____    ______ ____
ROOT
ATOM      1  O   UNL     1      34.740 -17.145 -23.981  0.00  0.00    -0.270 OA
ATOM      2  N   UNL     1      34.079 -15.251 -25.228  0.00  0.00    -0.280 N 
ATOM      3  C   UNL     1      35.113 -15.164 -21.792  0.00  0.00    +0.019 C 
ATOM      4  C   UNL     1      34.690 -14.897 -23.051  0.00  0.00    +0.056 C 
ATOM      5  C   UNL     1      34.321 -13.612 -23.634  0.00  0.00    +0.019 C 
ATOM      6  C   UNL     1      33.959 -13.883 -24.956  0.00  0.00    +0.051 C 
ATOM      7  C   UNL     1      33.865 -11.303 -24.008  0.00  0.00    +0.122 C 
ATOM      8  C   UNL     1      34.281 -12.321 -23.141  0.00  0.00    +0.021 C 
ATOM      9  C   UNL     1      34.526 -15.954 -24.105  0.00  0.00    +0.250 C 
ATOM     10  C   UNL     1      33.547 -12.895 -25.827  0.00  0.00    +0.016 C 
ATOM     11  C   UNL     1      33.502 -11.588 -25.338  0.00  0.00    +0.021 C 
ATOM     12  H   UNL     1      33.875 -15.664 -26.098  0.00  0.00    +0.155 HD
ENDROOT
BRANCH   3  20
ATOM     13  N   UNL     1      34.442 -17.233 -20.825  0.00  0.00    -0.316 N 
ATOM     14  C   UNL     1      34.975 -18.415 -20.393  0.00  0.00    +0.021 C 
ATOM     15  C   UNL     1      36.342 -18.374 -20.583  0.00  0.00    -0.012 C 
ATOM     16  C   UNL     1      34.204 -19.534 -19.791  0.00  0.00    +0.041 C 
ATOM     17  C   UNL     1      37.233 -19.513 -20.233  0.00  0.00    +0.027 C 
ATOM     18  C   UNL     1      35.077 -20.804 -19.753  0.00  0.00    +0.006 C 
ATOM     19  C   UNL     1      36.519 -20.508 -19.297  0.00  0.00    +0.005 C 
ATOM     20  C   UNL     1      35.453 -16.432 -21.296  0.00  0.00    +0.048 C 
ATOM     21  C   UNL     1      36.643 -17.116 -21.160  0.00  0.00    +0.011 C 
ATOM     22  H   UNL     1      33.487 -16.995 -20.801  0.00  0.00    +0.152 HD
ENDBRANCH   3  20
BRANCH   7  23
ATOM     23  S   UNL     1      33.797  -9.654 -23.431  0.00  0.00    +0.063 S 
ATOM     24  O   UNL     1      32.871  -8.915 -24.282  0.00  0.00    -0.153 OA
ATOM     25  O   UNL     1      33.550  -9.686 -21.995  0.00  0.00    -0.153 OA
BRANCH  23  26
ATOM     26  N   UNL     1      35.401  -9.067 -23.711  0.00  0.00    -0.153 NA
ATOM     27  C   UNL     1      35.998  -9.312 -25.049  0.00  0.00    +0.115 C 
ATOM     28  C   UNL     1      35.740  -7.720 -23.187  0.00  0.00    +0.115 C 
ENDBRANCH  23  26
ENDBRANCH   7  23
TORSDOF 3
ENDMDL
MODEL 8
REMARK VINA RESULT:      -9.1      5.186      7.018
REMARK  Name = 5312137
REMARK  3 active torsions:
REMARK  status: ('A' for Active; 'I' for Inactive)
REMARK    1  A    between atoms: C_3  and  C_20
REMARK    2  A    between atoms: C_7  and  S_23
REMARK    3  A    between atoms: S_23  and  N_26
REMARK                            x       y       z     vdW  Elec       q    Type
REMARK                         _______ _______ _______ _____ _____    ______ ____
ROOT
ATOM      1  O   UNL     1      32.878 -21.708 -16.767  0.00  0.00    -0.270 OA
ATOM      2  N   UNL     1      35.228 -21.887 -16.598  0.00  0.00    -0.280 N 
ATOM      3  C   UNL     1      32.920 -22.977 -14.075  0.00  0.00    +0.019 C 
ATOM      4  C   UNL     1      34.000 -22.666 -14.832  0.00  0.00    +0.056 C 
ATOM      5  C   UNL     1      35.413 -22.869 -14.528  0.00  0.00    +0.019 C 
ATOM      6  C   UNL     1      36.114 -22.379 -15.633  0.00  0.00    +0.051 C 
ATOM      7  C   UNL     1      37.484 -23.442 -13.499  0.00  0.00    +0.122 C 
ATOM      8  C   UNL     1      36.085 -23.407 -13.447  0.00  0.00    +0.021 C 
ATOM      9  C   UNL     1      33.899 -22.025 -16.185  0.00  0.00    +0.250 C 
ATOM     10  C   UNL     1      37.492 -22.404 -15.705  0.00  0.00    +0.016 C 
ATOM     11  C   UNL     1      38.180 -22.946 -14.617  0.00  0.00    +0.021 C 
ATOM     12  H   UNL     1      35.505 -21.494 -17.458  0.00  0.00    +0.155 HD
ENDROOT
BRANCH   3  20
ATOM     13  N   UNL     1      31.090 -23.403 -15.536  0.00  0.00    -0.316 N 
ATOM     14  C   UNL     1      29.780 -23.055 -15.711  0.00  0.00    +0.021 C 
ATOM     15  C   UNL     1      29.426 -22.169 -14.714  0.00  0.00    -0.012 C 
ATOM     16  C   UNL     1      28.907 -23.532 -16.815  0.00  0.00    +0.041 C 
ATOM     17  C   UNL     1      28.056 -21.600 -14.598  0.00  0.00    +0.027 C 
ATOM     18  C   UNL     1      27.435 -23.209 -16.488  0.00  0.00    +0.006 C 
ATOM     19  C   UNL     1      27.264 -21.792 -15.907  0.00  0.00    +0.005 C 
ATOM     20  C   UNL     1      31.582 -22.753 -14.431  0.00  0.00    +0.048 C 
ATOM     21  C   UNL     1      30.570 -21.981 -13.900  0.00  0.00    +0.011 C 
ATOM     22  H   UNL     1      31.599 -24.020 -16.110  0.00  0.00    +0.152 HD
ENDBRANCH   3  20
BRANCH   7  23
ATOM     23  S   UNL     1      38.379 -24.113 -12.156  0.00  0.00    +0.063 S 
ATOM     24  O   UNL     1      39.379 -23.134 -11.744  0.00  0.00    -0.153 OA
ATOM     25  O   UNL     1      37.422 -24.590 -11.165  0.00  0.00    -0.153 OA
BRANCH  23  26
ATOM     26  N   UNL     1      39.187 -25.474 -12.855  0.00  0.00    -0.153 NA
ATOM     27  C   UNL     1      38.355 -26.466 -13.585  0.00  0.00    +0.115 C 
ATOM     28  C   UNL     1      40.484 -25.229 -13.534  0.00  0.00    +0.115 C 
ENDBRANCH  23  26
ENDBRANCH   7  23
TORSDOF 3
ENDMDL
MODEL 9
REMARK VINA RESULT:      -9.1      5.140      6.915
REMARK  Name = 5312137
REMARK  3 active torsions:
REMARK  status: ('A' for Active; 'I' for Inactive)
REMARK    1  A    between atoms: C_3  and  C_20
REMARK    2  A    between atoms: C_7  and  S_23
REMARK    3  A    between atoms: S_23  and  N_26
REMARK                            x       y       z     vdW  Elec       q    Type
REMARK                         _______ _______ _______ _____ _____    ______ ____
ROOT
ATOM      1  O   UNL     1      32.973 -21.943 -16.915  0.00  0.00    -0.270 OA
ATOM      2  N   UNL     1      35.325 -22.017 -16.707  0.00  0.00    -0.280 N 
ATOM      3  C   UNL     1      33.026 -22.699 -14.036  0.00  0.00    +0.019 C 
ATOM      4  C   UNL     1      34.104 -22.499 -14.833  0.00  0.00    +0.056 C 
ATOM      5  C   UNL     1      35.519 -22.600 -14.492  0.00  0.00    +0.019 C 
ATOM      6  C   UNL     1      36.216 -22.298 -15.665  0.00  0.00    +0.051 C 
ATOM      7  C   UNL     1      37.596 -22.914 -13.367  0.00  0.00    +0.122 C 
ATOM      8  C   UNL     1      36.197 -22.912 -13.329  0.00  0.00    +0.021 C 
ATOM      9  C   UNL     1      33.997 -22.118 -16.281  0.00  0.00    +0.250 C 
ATOM     10  C   UNL     1      37.595 -22.294 -15.725  0.00  0.00    +0.016 C 
ATOM     11  C   UNL     1      38.288 -22.608 -14.554  0.00  0.00    +0.021 C 
ATOM     12  H   UNL     1      35.598 -21.778 -17.623  0.00  0.00    +0.155 HD
ENDROOT
BRANCH   3  20
ATOM     13  N   UNL     1      31.210 -23.469 -15.368  0.00  0.00    -0.316 N 
ATOM     14  C   UNL     1      29.894 -23.193 -15.615  0.00  0.00    +0.021 C 
ATOM     15  C   UNL     1      29.520 -22.118 -14.836  0.00  0.00    -0.012 C 
ATOM     16  C   UNL     1      29.035 -23.917 -16.588  0.00  0.00    +0.041 C 
ATOM     17  C   UNL     1      28.139 -21.563 -14.848  0.00  0.00    +0.027 C 
ATOM     18  C   UNL     1      27.556 -23.558 -16.340  0.00  0.00    +0.006 C 
ATOM     19  C   UNL     1      27.356 -22.052 -16.082  0.00  0.00    +0.005 C 
ATOM     20  C   UNL     1      31.685 -22.584 -14.433  0.00  0.00    +0.048 C 
ATOM     21  C   UNL     1      30.657 -21.734 -14.083  0.00  0.00    +0.011 C 
ATOM     22  H   UNL     1      31.733 -24.188 -15.794  0.00  0.00    +0.152 HD
ENDBRANCH   3  20
BRANCH   7  23
ATOM     23  S   UNL     1      38.498 -23.302 -11.921  0.00  0.00    +0.063 S 
ATOM     24  O   UNL     1      39.790 -23.846 -12.325  0.00  0.00    -0.153 OA
ATOM     25  O   UNL     1      38.476 -22.137 -11.046  0.00  0.00    -0.153 OA
BRANCH  23  26
ATOM     26  N   UNL     1      37.564 -24.565 -11.196  0.00  0.00    -0.153 NA
ATOM     27  C   UNL     1      36.249 -24.198 -10.611  0.00  0.00    +0.115 C 
ATOM     28  C   UNL     1      37.515 -25.873 -11.897  0.00  0.00    +0.115 C 
ENDBRANCH  23  26
ENDBRANCH   7  23
TORSDOF 3
ENDMDL
