MODEL 1
REMARK VINA RESULT:     -11.9      0.000      0.000
REMARK  Name = 9810927
REMARK  6 active torsions:
REMARK  status: ('A' for Active; 'I' for Inactive)
REMARK    1  A    between atoms: N_1  and  C_13
REMARK    2  A    between atoms: C_11  and  O_24
REMARK    3  A    between atoms: C_12  and  O_26
REMARK    4  A    between atoms: C_14  and  C_18
REMARK    5  A    between atoms: C_19  and  C_20
REMARK    6  A    between atoms: N_28  and  C_32
REMARK                            x       y       z     vdW  Elec       q    Type
REMARK                         _______ _______ _______ _____ _____    ______ ____
ROOT
ATOM      1  N   UNL     1      36.402 -22.703 -15.475  0.00  0.00    -0.247 N 
ATOM      2  N   UNL     1      37.446 -21.055 -16.556  0.00  0.00    -0.242 NA
ATOM      3  N   UNL     1      34.442 -22.949 -16.890  0.00  0.00    -0.228 NA
ATOM      4  N   UNL     1      34.489 -21.375 -18.755  0.00  0.00    -0.228 NA
ATOM      5  C   UNL     1      35.611 -22.389 -16.546  0.00  0.00    +0.152 C 
ATOM      6  C   UNL     1      37.491 -21.874 -15.526  0.00  0.00    +0.223 C 
ATOM      7  C   UNL     1      36.277 -21.367 -17.202  0.00  0.00    +0.140 C 
ATOM      8  C   UNL     1      35.674 -20.857 -18.348  0.00  0.00    +0.150 C 
ATOM      9  C   UNL     1      33.955 -22.374 -18.011  0.00  0.00    +0.253 C 
ATOM     10  N   UNL     1      36.279 -19.819 -19.078  0.00  0.00    -0.295 N 
ATOM     11  H   UNL     1      37.136 -19.517 -18.697  0.00  0.00    +0.154 HD
ENDROOT
BRANCH  10  14
ATOM     12 CL   UNL     1      34.697 -16.905 -23.982  0.00  0.00    -0.082 Cl
ATOM     13  F   UNL     1      38.122 -18.324 -20.532  0.00  0.00    -0.203 F 
ATOM     14  C   UNL     1      35.904 -19.124 -20.247  0.00  0.00    +0.077 C 
ATOM     15  C   UNL     1      36.850 -18.383 -20.954  0.00  0.00    +0.154 C 
ATOM     16  C   UNL     1      34.585 -19.179 -20.693  0.00  0.00    +0.018 C 
ATOM     17  C   UNL     1      36.477 -17.697 -22.109  0.00  0.00    +0.042 C 
ATOM     18  C   UNL     1      34.211 -18.492 -21.848  0.00  0.00    +0.013 C 
ATOM     19  C   UNL     1      35.157 -17.752 -22.557  0.00  0.00    +0.060 C 
ENDBRANCH  10  14
BRANCH   1  23
ATOM     20  O   UNL     1      34.730 -24.009 -14.398  0.00  0.00    -0.326 OA
ATOM     21  C   UNL     1      36.584 -23.329 -13.057  0.00  0.00    +0.187 C 
ATOM     22  C   UNL     1      35.286 -22.859 -12.428  0.00  0.00    +0.178 C 
ATOM     23  C   UNL     1      36.142 -23.728 -14.461  0.00  0.00    +0.225 C 
ATOM     24  C   UNL     1      34.266 -23.808 -13.043  0.00  0.00    +0.223 C 
BRANCH  24  28
ATOM     25  O   UNL     1      32.241 -23.382 -14.342  0.00  0.00    -0.421 OA
ATOM     26  N   UNL     1      32.057 -22.878 -12.170  0.00  0.00    -0.109 NA
ATOM     27  N   UNL     1      30.849 -22.589 -12.780  0.00  0.00    -0.112 NA
ATOM     28  C   UNL     1      32.829 -23.335 -13.120  0.00  0.00    +0.255 A 
ATOM     29  C   UNL     1      31.003 -22.899 -14.045  0.00  0.00    +0.225 A 
BRANCH  29  30
ATOM     30  C   UNL     1      30.047 -22.801 -15.155  0.00  0.00    +0.070 C 
ATOM     31  C   UNL     1      29.445 -24.197 -15.559  0.00  0.00    +0.009 C 
ATOM     32  C   UNL     1      30.691 -22.199 -16.458  0.00  0.00    +0.009 C 
ATOM     33  C   UNL     1      28.780 -21.895 -14.897  0.00  0.00    +0.009 C 
ENDBRANCH  29  30
ENDBRANCH  24  28
BRANCH  21  34
ATOM     34  O   UNL     1      37.065 -24.500 -12.400  0.00  0.00    -0.378 OA
ATOM     35  H   UNL     1      36.422 -24.782 -11.730  0.00  0.00    +0.211 HD
ENDBRANCH  21  34
BRANCH  22  36
ATOM     36  O   UNL     1      35.307 -22.943 -11.017  0.00  0.00    -0.379 OA
ATOM     37  H   UNL     1      35.159 -22.061 -10.639  0.00  0.00    +0.211 HD
ENDBRANCH  22  36
ENDBRANCH   1  23
TORSDOF 6
ENDMDL
MODEL 2
REMARK VINA RESULT:     -10.9      7.144     11.283
REMARK  Name = 9810927
REMARK  6 active torsions:
REMARK  status: ('A' for Active; 'I' for Inactive)
REMARK    1  A    between atoms: N_1  and  C_13
REMARK    2  A    between atoms: C_11  and  O_24
REMARK    3  A    between atoms: C_12  and  O_26
REMARK    4  A    between atoms: C_14  and  C_18
REMARK    5  A    between atoms: C_19  and  C_20
REMARK    6  A    between atoms: N_28  and  C_32
REMARK                            x       y       z     vdW  Elec       q    Type
REMARK                         _______ _______ _______ _____ _____    ______ ____
ROOT
ATOM      1  N   UNL     1      34.945 -16.396 -23.642  0.00  0.00    -0.247 N 
ATOM      2  N   UNL     1      34.580 -18.571 -23.311  0.00  0.00    -0.242 NA
ATOM      3  N   UNL     1      35.380 -15.696 -21.357  0.00  0.00    -0.228 NA
ATOM      4  N   UNL     1      35.234 -17.578 -19.809  0.00  0.00    -0.228 NA
ATOM      5  C   UNL     1      35.084 -16.605 -22.298  0.00  0.00    +0.152 C 
ATOM      6  C   UNL     1      34.641 -17.607 -24.206  0.00  0.00    +0.223 C 
ATOM      7  C   UNL     1      34.855 -17.959 -22.115  0.00  0.00    +0.140 C 
ATOM      8  C   UNL     1      34.939 -18.440 -20.812  0.00  0.00    +0.150 C 
ATOM      9  C   UNL     1      35.433 -16.278 -20.139  0.00  0.00    +0.253 C 
ATOM     10  N   UNL     1      34.722 -19.801 -20.533  0.00  0.00    -0.295 N 
ATOM     11  H   UNL     1      34.517 -20.339 -21.332  0.00  0.00    +0.154 HD
ENDROOT
BRANCH  10  14
ATOM     12 CL   UNL     1      34.793 -22.943 -15.517  0.00  0.00    -0.082 Cl
ATOM     13  F   UNL     1      37.083 -20.220 -19.120  0.00  0.00    -0.203 F 
ATOM     14  C   UNL     1      34.741 -20.549 -19.337  0.00  0.00    +0.077 C 
ATOM     15  C   UNL     1      35.940 -20.742 -18.652  0.00  0.00    +0.154 C 
ATOM     16  C   UNL     1      33.558 -21.097 -18.843  0.00  0.00    +0.018 C 
ATOM     17  C   UNL     1      35.956 -21.482 -17.470  0.00  0.00    +0.042 C 
ATOM     18  C   UNL     1      33.574 -21.838 -17.662  0.00  0.00    +0.013 C 
ATOM     19  C   UNL     1      34.773 -22.030 -16.975  0.00  0.00    +0.060 C 
ENDBRANCH  10  14
BRANCH   1  23
ATOM     20  O   UNL     1      35.021 -14.028 -23.419  0.00  0.00    -0.326 OA
ATOM     21  C   UNL     1      34.013 -14.883 -25.407  0.00  0.00    +0.187 C 
ATOM     22  C   UNL     1      33.039 -13.977 -24.678  0.00  0.00    +0.178 C 
ATOM     23  C   UNL     1      35.089 -15.123 -24.355  0.00  0.00    +0.225 C 
ATOM     24  C   UNL     1      33.968 -13.123 -23.825  0.00  0.00    +0.223 C 
BRANCH  24  28
ATOM     25  O   UNL     1      33.072 -11.188 -22.634  0.00  0.00    -0.421 OA
ATOM     26  N   UNL     1      33.153 -13.058 -21.409  0.00  0.00    -0.109 NA
ATOM     27  N   UNL     1      32.631 -12.051 -20.617  0.00  0.00    -0.112 NA
ATOM     28  C   UNL     1      33.391 -12.505 -22.569  0.00  0.00    +0.255 A 
ATOM     29  C   UNL     1      32.603 -10.979 -21.373  0.00  0.00    +0.225 A 
BRANCH  29  30
ATOM     30  C   UNL     1      32.143  -9.621 -21.054  0.00  0.00    +0.070 C 
ATOM     31  C   UNL     1      31.854  -9.427 -19.520  0.00  0.00    +0.009 C 
ATOM     32  C   UNL     1      30.818  -9.238 -21.810  0.00  0.00    +0.009 C 
ATOM     33  C   UNL     1      33.143  -8.452 -21.410  0.00  0.00    +0.009 C 
ENDBRANCH  29  30
ENDBRANCH  24  28
BRANCH  21  34
ATOM     34  O   UNL     1      34.616 -14.194 -26.501  0.00  0.00    -0.378 OA
ATOM     35  H   UNL     1      33.926 -13.771 -27.036  0.00  0.00    +0.211 HD
ENDBRANCH  21  34
BRANCH  22  36
ATOM     36  O   UNL     1      32.260 -13.196 -25.561  0.00  0.00    -0.379 OA
ATOM     37  H   UNL     1      32.187 -12.292 -25.215  0.00  0.00    +0.211 HD
ENDBRANCH  22  36
ENDBRANCH   1  23
TORSDOF 6
ENDMDL
MODEL 3
REMARK VINA RESULT:     -10.9      2.292      3.037
REMARK  Name = 9810927
REMARK  6 active torsions:
REMARK  status: ('A' for Active; 'I' for Inactive)
REMARK    1  A    between atoms: N_1  and  C_13
REMARK    2  A    between atoms: C_11  and  O_24
REMARK    3  A    between atoms: C_12  and  O_26
REMARK    4  A    between atoms: C_14  and  C_18
REMARK    5  A    between atoms: C_19  and  C_20
REMARK    6  A    between atoms: N_28  and  C_32
REMARK                            x       y       z     vdW  Elec       q    Type
REMARK                         _______ _______ _______ _____ _____    ______ ____
ROOT
ATOM      1  N   UNL     1      35.935 -21.312 -17.984  0.00  0.00    -0.247 N 
ATOM      2  N   UNL     1      37.046 -19.589 -18.864  0.00  0.00    -0.242 NA
ATOM      3  N   UNL     1      33.803 -21.053 -19.121  0.00  0.00    -0.228 NA
ATOM      4  N   UNL     1      33.828 -19.137 -20.631  0.00  0.00    -0.228 NA
ATOM      5  C   UNL     1      35.068 -20.701 -18.847  0.00  0.00    +0.152 C 
ATOM      6  C   UNL     1      37.109 -20.606 -18.030  0.00  0.00    +0.223 C 
ATOM      7  C   UNL     1      35.777 -19.637 -19.382  0.00  0.00    +0.140 C 
ATOM      8  C   UNL     1      35.110 -18.840 -20.307  0.00  0.00    +0.150 C 
ATOM      9  C   UNL     1      33.263 -20.210 -20.026  0.00  0.00    +0.253 C 
ATOM     10  N   UNL     1      35.752 -17.739 -20.902  0.00  0.00    -0.295 N 
ATOM     11  H   UNL     1      36.681 -17.613 -20.598  0.00  0.00    +0.154 HD
ENDROOT
BRANCH  10  14
ATOM     12 CL   UNL     1      33.987 -13.721 -24.874  0.00  0.00    -0.082 Cl
ATOM     13  F   UNL     1      35.296 -15.091 -20.178  0.00  0.00    -0.203 F 
ATOM     14  C   UNL     1      35.332 -16.780 -21.847  0.00  0.00    +0.077 C 
ATOM     15  C   UNL     1      35.111 -15.460 -21.454  0.00  0.00    +0.154 C 
ATOM     16  C   UNL     1      35.136 -17.154 -23.176  0.00  0.00    +0.018 C 
ATOM     17  C   UNL     1      34.695 -14.514 -22.390  0.00  0.00    +0.042 C 
ATOM     18  C   UNL     1      34.720 -16.209 -24.112  0.00  0.00    +0.013 C 
ATOM     19  C   UNL     1      34.500 -14.888 -23.720  0.00  0.00    +0.060 C 
ENDBRANCH  10  14
BRANCH   1  23
ATOM     20  O   UNL     1      34.290 -22.888 -17.300  0.00  0.00    -0.326 OA
ATOM     21  C   UNL     1      35.929 -22.280 -15.675  0.00  0.00    +0.187 C 
ATOM     22  C   UNL     1      34.537 -22.010 -15.136  0.00  0.00    +0.178 C 
ATOM     23  C   UNL     1      35.670 -22.495 -17.161  0.00  0.00    +0.225 C 
ATOM     24  C   UNL     1      33.675 -22.930 -15.991  0.00  0.00    +0.223 C 
BRANCH  24  28
ATOM     25  O   UNL     1      31.317 -23.318 -15.486  0.00  0.00    -0.421 OA
ATOM     26  N   UNL     1      31.684 -21.607 -16.879  0.00  0.00    -0.109 NA
ATOM     27  N   UNL     1      30.319 -21.713 -16.682  0.00  0.00    -0.112 NA
ATOM     28  C   UNL     1      32.217 -22.561 -16.162  0.00  0.00    +0.255 A 
ATOM     29  C   UNL     1      30.152 -22.725 -15.863  0.00  0.00    +0.225 A 
BRANCH  29  30
ATOM     30  C   UNL     1      28.912 -23.286 -15.311  0.00  0.00    +0.070 C 
ATOM     31  C   UNL     1      29.178 -24.278 -14.119  0.00  0.00    +0.009 C 
ATOM     32  C   UNL     1      28.081 -24.086 -16.380  0.00  0.00    +0.009 C 
ATOM     33  C   UNL     1      27.884 -22.243 -14.723  0.00  0.00    +0.009 C 
ENDBRANCH  29  30
ENDBRANCH  24  28
BRANCH  21  34
ATOM     34  O   UNL     1      36.447 -23.497 -15.140  0.00  0.00    -0.378 OA
ATOM     35  H   UNL     1      36.425 -23.459 -14.170  0.00  0.00    +0.211 HD
ENDBRANCH  21  34
BRANCH  22  36
ATOM     36  O   UNL     1      34.423 -22.304 -13.758  0.00  0.00    -0.379 OA
ATOM     37  H   UNL     1      33.661 -21.829 -13.388  0.00  0.00    +0.211 HD
ENDBRANCH  22  36
ENDBRANCH   1  23
TORSDOF 6
ENDMDL
MODEL 4
REMARK VINA RESULT:     -10.4      6.401      9.048
REMARK  Name = 9810927
REMARK  6 active torsions:
REMARK  status: ('A' for Active; 'I' for Inactive)
REMARK    1  A    between atoms: N_1  and  C_13
REMARK    2  A    between atoms: C_11  and  O_24
REMARK    3  A    between atoms: C_12  and  O_26
REMARK    4  A    between atoms: C_14  and  C_18
REMARK    5  A    between atoms: C_19  and  C_20
REMARK    6  A    between atoms: N_28  and  C_32
REMARK                            x       y       z     vdW  Elec       q    Type
REMARK                         _______ _______ _______ _____ _____    ______ ____
ROOT
ATOM      1  N   UNL     1      35.234 -15.922 -21.827  0.00  0.00    -0.247 N 
ATOM      2  N   UNL     1      34.544 -14.245 -20.528  0.00  0.00    -0.242 NA
ATOM      3  N   UNL     1      34.772 -14.969 -24.014  0.00  0.00    -0.228 NA
ATOM      4  N   UNL     1      33.818 -12.731 -23.824  0.00  0.00    -0.228 NA
ATOM      5  C   UNL     1      34.793 -14.942 -22.673  0.00  0.00    +0.152 C 
ATOM      6  C   UNL     1      35.063 -15.455 -20.550  0.00  0.00    +0.223 C 
ATOM      7  C   UNL     1      34.371 -13.912 -21.847  0.00  0.00    +0.140 C 
ATOM      8  C   UNL     1      33.869 -12.774 -22.470  0.00  0.00    +0.150 C 
ATOM      9  C   UNL     1      34.266 -13.816 -24.501  0.00  0.00    +0.253 C 
ATOM     10  N   UNL     1      33.419 -11.679 -21.711  0.00  0.00    -0.295 N 
ATOM     11  H   UNL     1      33.501 -11.813 -20.738  0.00  0.00    +0.154 HD
ENDROOT
BRANCH  10  14
ATOM     12 CL   UNL     1      31.137  -6.424 -23.201  0.00  0.00    -0.082 Cl
ATOM     13  F   UNL     1      31.048 -10.757 -20.582  0.00  0.00    -0.203 F 
ATOM     14  C   UNL     1      32.873 -10.427 -22.064  0.00  0.00    +0.077 C 
ATOM     15  C   UNL     1      31.683  -9.993 -21.481  0.00  0.00    +0.154 C 
ATOM     16  C   UNL     1      33.526  -9.625 -22.999  0.00  0.00    +0.018 C 
ATOM     17  C   UNL     1      31.146  -8.755 -21.833  0.00  0.00    +0.042 C 
ATOM     18  C   UNL     1      32.989  -8.387 -23.351  0.00  0.00    +0.013 C 
ATOM     19  C   UNL     1      31.800  -7.951 -22.768  0.00  0.00    +0.060 C 
ENDBRANCH  10  14
BRANCH   1  23
ATOM     20  O   UNL     1      34.842 -18.268 -21.877  0.00  0.00    -0.326 OA
ATOM     21  C   UNL     1      37.093 -17.568 -21.499  0.00  0.00    +0.187 C 
ATOM     22  C   UNL     1      36.630 -18.467 -20.368  0.00  0.00    +0.178 C 
ATOM     23  C   UNL     1      35.784 -17.227 -22.203  0.00  0.00    +0.225 C 
ATOM     24  C   UNL     1      35.483 -19.235 -21.013  0.00  0.00    +0.223 C 
BRANCH  24  28
ATOM     25  O   UNL     1      34.814 -20.778 -19.242  0.00  0.00    -0.421 OA
ATOM     26  N   UNL     1      33.154 -19.488 -20.006  0.00  0.00    -0.109 NA
ATOM     27  N   UNL     1      32.639 -20.306 -19.017  0.00  0.00    -0.112 NA
ATOM     28  C   UNL     1      34.419 -19.802 -20.097  0.00  0.00    +0.255 A 
ATOM     29  C   UNL     1      33.643 -21.041 -18.600  0.00  0.00    +0.225 A 
BRANCH  29  30
ATOM     30  C   UNL     1      33.674 -22.079 -17.562  0.00  0.00    +0.070 C 
ATOM     31  C   UNL     1      33.853 -23.524 -18.157  0.00  0.00    +0.009 C 
ATOM     32  C   UNL     1      32.360 -22.111 -16.698  0.00  0.00    +0.009 C 
ATOM     33  C   UNL     1      34.833 -21.954 -16.497  0.00  0.00    +0.009 C 
ENDBRANCH  29  30
ENDBRANCH  24  28
BRANCH  21  34
ATOM     34  O   UNL     1      37.907 -18.295 -22.417  0.00  0.00    -0.378 OA
ATOM     35  H   UNL     1      38.314 -19.049 -21.961  0.00  0.00    +0.211 HD
ENDBRANCH  21  34
BRANCH  22  36
ATOM     36  O   UNL     1      37.652 -19.327 -19.907  0.00  0.00    -0.379 OA
ATOM     37  H   UNL     1      37.268 -20.185 -19.662  0.00  0.00    +0.211 HD
ENDBRANCH  22  36
ENDBRANCH   1  23
TORSDOF 6
ENDMDL
MODEL 5
REMARK VINA RESULT:     -10.3      1.588      2.467
REMARK  Name = 9810927
REMARK  6 active torsions:
REMARK  status: ('A' for Active; 'I' for Inactive)
REMARK    1  A    between atoms: N_1  and  C_13
REMARK    2  A    between atoms: C_11  and  O_24
REMARK    3  A    between atoms: C_12  and  O_26
REMARK    4  A    between atoms: C_14  and  C_18
REMARK    5  A    between atoms: C_19  and  C_20
REMARK    6  A    between atoms: N_28  and  C_32
REMARK                            x       y       z     vdW  Elec       q    Type
REMARK                         _______ _______ _______ _____ _____    ______ ____
ROOT
ATOM      1  N   UNL     1      35.068 -21.994 -17.485  0.00  0.00    -0.247 N 
ATOM      2  N   UNL     1      33.563 -20.917 -18.731  0.00  0.00    -0.242 NA
ATOM      3  N   UNL     1      37.112 -21.048 -18.396  0.00  0.00    -0.228 NA
ATOM      4  N   UNL     1      36.634 -19.434 -20.163  0.00  0.00    -0.228 NA
ATOM      5  C   UNL     1      35.780 -21.182 -18.324  0.00  0.00    +0.152 C 
ATOM      6  C   UNL     1      33.742 -21.799 -17.769  0.00  0.00    +0.223 C 
ATOM      7  C   UNL     1      34.828 -20.523 -19.086  0.00  0.00    +0.140 C 
ATOM      8  C   UNL     1      35.298 -19.620 -20.035  0.00  0.00    +0.150 C 
ATOM      9  C   UNL     1      37.446 -20.150 -19.348  0.00  0.00    +0.253 C 
ATOM     10  N   UNL     1      34.403 -18.907 -20.852  0.00  0.00    -0.295 N 
ATOM     11  H   UNL     1      33.457 -19.115 -20.676  0.00  0.00    +0.154 HD
ENDROOT
BRANCH  10  14
ATOM     12 CL   UNL     1      35.189 -14.904 -25.143  0.00  0.00    -0.082 Cl
ATOM     13  F   UNL     1      35.329 -16.343 -20.290  0.00  0.00    -0.203 F 
ATOM     14  C   UNL     1      34.591 -17.952 -21.873  0.00  0.00    +0.077 C 
ATOM     15  C   UNL     1      35.057 -16.675 -21.560  0.00  0.00    +0.154 C 
ATOM     16  C   UNL     1      34.310 -18.286 -23.197  0.00  0.00    +0.018 C 
ATOM     17  C   UNL     1      35.241 -15.733 -22.571  0.00  0.00    +0.042 C 
ATOM     18  C   UNL     1      34.494 -17.344 -24.209  0.00  0.00    +0.013 C 
ATOM     19  C   UNL     1      34.961 -16.068 -23.896  0.00  0.00    +0.060 C 
ENDBRANCH  10  14
BRANCH   1  23
ATOM     20  O   UNL     1      34.535 -23.619 -15.831  0.00  0.00    -0.326 OA
ATOM     21  C   UNL     1      36.400 -22.201 -15.374  0.00  0.00    +0.187 C 
ATOM     22  C   UNL     1      35.383 -22.102 -14.253  0.00  0.00    +0.178 C 
ATOM     23  C   UNL     1      35.610 -22.904 -16.473  0.00  0.00    +0.225 C 
ATOM     24  C   UNL     1      34.607 -23.404 -14.403  0.00  0.00    +0.223 C 
BRANCH  24  28
ATOM     25  O   UNL     1      32.198 -23.217 -14.762  0.00  0.00    -0.421 OA
ATOM     26  N   UNL     1      32.776 -23.655 -12.646  0.00  0.00    -0.109 NA
ATOM     27  N   UNL     1      31.396 -23.575 -12.704  0.00  0.00    -0.112 NA
ATOM     28  C   UNL     1      33.192 -23.440 -13.866  0.00  0.00    +0.255 A 
ATOM     29  C   UNL     1      31.105 -23.318 -13.958  0.00  0.00    +0.225 A 
BRANCH  29  30
ATOM     30  C   UNL     1      29.794 -23.134 -14.594  0.00  0.00    +0.070 C 
ATOM     31  C   UNL     1      28.808 -24.323 -14.301  0.00  0.00    +0.009 C 
ATOM     32  C   UNL     1      29.894 -23.011 -16.159  0.00  0.00    +0.009 C 
ATOM     33  C   UNL     1      28.990 -21.848 -14.157  0.00  0.00    +0.009 C 
ENDBRANCH  29  30
ENDBRANCH  24  28
BRANCH  21  34
ATOM     34  O   UNL     1      37.480 -23.054 -14.998  0.00  0.00    -0.378 OA
ATOM     35  H   UNL     1      37.232 -23.979 -15.159  0.00  0.00    +0.211 HD
ENDBRANCH  21  34
BRANCH  22  36
ATOM     36  O   UNL     1      35.989 -21.988 -12.981  0.00  0.00    -0.379 OA
ATOM     37  H   UNL     1      35.820 -22.795 -12.469  0.00  0.00    +0.211 HD
ENDBRANCH  22  36
ENDBRANCH   1  23
TORSDOF 6
ENDMDL
MODEL 6
REMARK VINA RESULT:     -10.1     12.744     16.978
REMARK  Name = 9810927
REMARK  6 active torsions:
REMARK  status: ('A' for Active; 'I' for Inactive)
REMARK    1  A    between atoms: N_1  and  C_13
REMARK    2  A    between atoms: C_11  and  O_24
REMARK    3  A    between atoms: C_12  and  O_26
REMARK    4  A    between atoms: C_14  and  C_18
REMARK    5  A    between atoms: C_19  and  C_20
REMARK    6  A    between atoms: N_28  and  C_32
REMARK                            x       y       z     vdW  Elec       q    Type
REMARK                         _______ _______ _______ _____ _____    ______ ____
ROOT
ATOM      1  N   UNL     1      32.227  -7.664 -22.184  0.00  0.00    -0.247 N 
ATOM      2  N   UNL     1      33.771  -8.800 -23.325  0.00  0.00    -0.242 NA
ATOM      3  N   UNL     1      31.188  -9.491 -20.964  0.00  0.00    -0.228 NA
ATOM      4  N   UNL     1      32.238 -11.627 -21.499  0.00  0.00    -0.228 NA
ATOM      5  C   UNL     1      32.078  -8.975 -21.825  0.00  0.00    +0.152 C 
ATOM      6  C   UNL     1      33.256  -7.611 -23.087  0.00  0.00    +0.223 C 
ATOM      7  C   UNL     1      33.045  -9.661 -22.543  0.00  0.00    +0.140 C 
ATOM      8  C   UNL     1      33.108 -11.038 -22.356  0.00  0.00    +0.150 C 
ATOM      9  C   UNL     1      31.346 -10.828 -20.866  0.00  0.00    +0.253 C 
ATOM     10  N   UNL     1      34.058 -11.814 -23.043  0.00  0.00    -0.295 N 
ATOM     11  H   UNL     1      34.641 -11.288 -23.638  0.00  0.00    +0.154 HD
ENDROOT
BRANCH  10  14
ATOM     12 CL   UNL     1      35.261 -17.610 -23.059  0.00  0.00    -0.082 Cl
ATOM     13  F   UNL     1      33.505 -13.402 -25.260  0.00  0.00    -0.203 F 
ATOM     14  C   UNL     1      34.344 -13.195 -23.049  0.00  0.00    +0.077 C 
ATOM     15  C   UNL     1      34.056 -13.965 -24.175  0.00  0.00    +0.154 C 
ATOM     16  C   UNL     1      34.916 -13.791 -21.925  0.00  0.00    +0.018 C 
ATOM     17  C   UNL     1      34.339 -15.330 -24.178  0.00  0.00    +0.042 C 
ATOM     18  C   UNL     1      35.199 -15.156 -21.927  0.00  0.00    +0.013 C 
ATOM     19  C   UNL     1      34.912 -15.926 -23.054  0.00  0.00    +0.060 C 
ENDBRANCH  10  14
BRANCH   1  23
ATOM     20  O   UNL     1      31.053  -5.693 -22.813  0.00  0.00    -0.326 OA
ATOM     21  C   UNL     1      32.189  -5.636 -20.715  0.00  0.00    +0.187 C 
ATOM     22  C   UNL     1      32.668  -4.499 -21.598  0.00  0.00    +0.178 C 
ATOM     23  C   UNL     1      31.441  -6.525 -21.702  0.00  0.00    +0.225 C 
ATOM     24  C   UNL     1      31.514  -4.343 -22.578  0.00  0.00    +0.223 C 
BRANCH  24  28
ATOM     25  O   UNL     1      32.987  -4.100 -24.512  0.00  0.00    -0.421 OA
ATOM     26  N   UNL     1      31.121  -2.873 -24.625  0.00  0.00    -0.109 NA
ATOM     27  N   UNL     1      31.855  -2.640 -25.774  0.00  0.00    -0.112 NA
ATOM     28  C   UNL     1      31.821  -3.727 -23.927  0.00  0.00    +0.255 A 
ATOM     29  C   UNL     1      32.936  -3.377 -25.663  0.00  0.00    +0.225 A 
BRANCH  29  30
ATOM     30  C   UNL     1      34.065  -3.526 -26.591  0.00  0.00    +0.070 C 
ATOM     31  C   UNL     1      34.913  -4.819 -26.306  0.00  0.00    +0.009 C 
ATOM     32  C   UNL     1      35.065  -2.313 -26.526  0.00  0.00    +0.009 C 
ATOM     33  C   UNL     1      33.691  -3.637 -28.120  0.00  0.00    +0.009 C 
ENDBRANCH  29  30
ENDBRANCH  24  28
BRANCH  21  34
ATOM     34  O   UNL     1      31.249  -5.163 -19.753  0.00  0.00    -0.378 OA
ATOM     35  H   UNL     1      31.724  -4.778 -18.998  0.00  0.00    +0.211 HD
ENDBRANCH  21  34
BRANCH  22  36
ATOM     36  O   UNL     1      32.911  -3.313 -20.869  0.00  0.00    -0.379 OA
ATOM     37  H   UNL     1      33.815  -3.329 -20.516  0.00  0.00    +0.211 HD
ENDBRANCH  22  36
ENDBRANCH   1  23
TORSDOF 6
ENDMDL
MODEL 7
REMARK VINA RESULT:      -9.4     11.343     15.352
REMARK  Name = 9810927
REMARK  6 active torsions:
REMARK  status: ('A' for Active; 'I' for Inactive)
REMARK    1  A    between atoms: N_1  and  C_13
REMARK    2  A    between atoms: C_11  and  O_24
REMARK    3  A    between atoms: C_12  and  O_26
REMARK    4  A    between atoms: C_14  and  C_18
REMARK    5  A    between atoms: C_19  and  C_20
REMARK    6  A    between atoms: N_28  and  C_32
REMARK                            x       y       z     vdW  Elec       q    Type
REMARK                         _______ _______ _______ _____ _____    ______ ____
ROOT
ATOM      1  N   UNL     1      32.559  -9.883 -21.670  0.00  0.00    -0.247 N 
ATOM      2  N   UNL     1      33.716 -10.974 -23.235  0.00  0.00    -0.242 NA
ATOM      3  N   UNL     1      32.048 -11.726 -20.172  0.00  0.00    -0.228 NA
ATOM      4  N   UNL     1      32.976 -13.826 -20.999  0.00  0.00    -0.228 NA
ATOM      5  C   UNL     1      32.593 -11.191 -21.275  0.00  0.00    +0.152 C 
ATOM      6  C   UNL     1      33.246  -9.804 -22.853  0.00  0.00    +0.223 C 
ATOM      7  C   UNL     1      33.316 -11.849 -22.257  0.00  0.00    +0.140 C 
ATOM      8  C   UNL     1      33.501 -13.218 -22.091  0.00  0.00    +0.150 C 
ATOM      9  C   UNL     1      32.292 -13.054 -20.121  0.00  0.00    +0.253 C 
ATOM     10  N   UNL     1      34.222 -13.966 -23.038  0.00  0.00    -0.295 N 
ATOM     11  H   UNL     1      34.561 -13.428 -23.790  0.00  0.00    +0.154 HD
ENDROOT
BRANCH  10  14
ATOM     12 CL   UNL     1      35.634 -19.704 -23.397  0.00  0.00    -0.082 Cl
ATOM     13  F   UNL     1      33.357 -15.541 -25.164  0.00  0.00    -0.203 F 
ATOM     14  C   UNL     1      34.558 -15.334 -23.126  0.00  0.00    +0.077 C 
ATOM     15  C   UNL     1      34.109 -16.097 -24.203  0.00  0.00    +0.154 C 
ATOM     16  C   UNL     1      35.338 -15.922 -22.131  0.00  0.00    +0.018 C 
ATOM     17  C   UNL     1      34.442 -17.448 -24.287  0.00  0.00    +0.042 C 
ATOM     18  C   UNL     1      35.671 -17.273 -22.214  0.00  0.00    +0.013 C 
ATOM     19  C   UNL     1      35.224 -18.037 -23.292  0.00  0.00    +0.060 C 
ENDBRANCH  10  14
BRANCH   1  23
ATOM     20  O   UNL     1      31.541  -7.747 -21.918  0.00  0.00    -0.326 OA
ATOM     21  C   UNL     1      32.794  -8.109 -19.919  0.00  0.00    +0.187 C 
ATOM     22  C   UNL     1      33.327  -6.894 -20.655  0.00  0.00    +0.178 C 
ATOM     23  C   UNL     1      31.912  -8.769 -20.972  0.00  0.00    +0.225 C 
ATOM     24  C   UNL     1      32.139  -6.492 -21.519  0.00  0.00    +0.223 C 
BRANCH  24  28
ATOM     25  O   UNL     1      32.091  -4.390 -22.763  0.00  0.00    -0.421 OA
ATOM     26  N   UNL     1      32.957  -6.108 -23.904  0.00  0.00    -0.109 NA
ATOM     27  N   UNL     1      32.991  -4.993 -24.721  0.00  0.00    -0.112 NA
ATOM     28  C   UNL     1      32.427  -5.705 -22.780  0.00  0.00    +0.255 A 
ATOM     29  C   UNL     1      32.476  -4.015 -24.014  0.00  0.00    +0.225 A 
BRANCH  29  30
ATOM     30  C   UNL     1      32.266  -2.607 -24.377  0.00  0.00    +0.070 C 
ATOM     31  C   UNL     1      33.607  -1.786 -24.408  0.00  0.00    +0.009 C 
ATOM     32  C   UNL     1      31.308  -1.861 -23.378  0.00  0.00    +0.009 C 
ATOM     33  C   UNL     1      31.622  -2.349 -25.795  0.00  0.00    +0.009 C 
ENDBRANCH  29  30
ENDBRANCH  24  28
BRANCH  21  34
ATOM     34  O   UNL     1      31.957  -7.711 -18.834  0.00  0.00    -0.378 OA
ATOM     35  H   UNL     1      31.328  -7.038 -19.141  0.00  0.00    +0.211 HD
ENDBRANCH  21  34
BRANCH  22  36
ATOM     36  O   UNL     1      33.720  -5.858 -19.777  0.00  0.00    -0.379 OA
ATOM     37  H   UNL     1      33.470  -6.091 -18.869  0.00  0.00    +0.211 HD
ENDBRANCH  22  36
ENDBRANCH   1  23
TORSDOF 6
ENDMDL
MODEL 8
REMARK VINA RESULT:      -9.1     10.868     13.908
REMARK  Name = 9810927
REMARK  6 active torsions:
REMARK  status: ('A' for Active; 'I' for Inactive)
REMARK    1  A    between atoms: N_1  and  C_13
REMARK    2  A    between atoms: C_11  and  O_24
REMARK    3  A    between atoms: C_12  and  O_26
REMARK    4  A    between atoms: C_14  and  C_18
REMARK    5  A    between atoms: C_19  and  C_20
REMARK    6  A    between atoms: N_28  and  C_32
REMARK                            x       y       z     vdW  Elec       q    Type
REMARK                         _______ _______ _______ _____ _____    ______ ____
ROOT
ATOM      1  N   UNL     1      34.137  -8.835 -24.168  0.00  0.00    -0.247 N 
ATOM      2  N   UNL     1      34.744 -10.474 -25.555  0.00  0.00    -0.242 NA
ATOM      3  N   UNL     1      33.283 -10.156 -22.316  0.00  0.00    -0.228 NA
ATOM      4  N   UNL     1      33.463 -12.547 -22.772  0.00  0.00    -0.228 NA
ATOM      5  C   UNL     1      33.834 -10.006 -23.530  0.00  0.00    +0.152 C 
ATOM      6  C   UNL     1      34.680  -9.170 -25.381  0.00  0.00    +0.223 C 
ATOM      7  C   UNL     1      34.219 -11.008 -24.406  0.00  0.00    +0.140 C 
ATOM      8  C   UNL     1      34.016 -12.320 -23.989  0.00  0.00    +0.150 C 
ATOM      9  C   UNL     1      33.136 -11.466 -22.023  0.00  0.00    +0.253 C 
ATOM     10  N   UNL     1      34.378 -13.400 -24.813  0.00  0.00    -0.295 N 
ATOM     11  H   UNL     1      34.772 -13.125 -25.673  0.00  0.00    +0.154 HD
ENDROOT
BRANCH  10  14
ATOM     12 CL   UNL     1      34.003 -19.271 -24.150  0.00  0.00    -0.082 Cl
ATOM     13  F   UNL     1      35.869 -14.738 -22.880  0.00  0.00    -0.203 F 
ATOM     14  C   UNL     1      34.290 -14.799 -24.653  0.00  0.00    +0.077 C 
ATOM     15  C   UNL     1      35.050 -15.441 -23.676  0.00  0.00    +0.154 C 
ATOM     16  C   UNL     1      33.442 -15.540 -25.475  0.00  0.00    +0.018 C 
ATOM     17  C   UNL     1      34.961 -16.824 -23.520  0.00  0.00    +0.042 C 
ATOM     18  C   UNL     1      33.353 -16.923 -25.321  0.00  0.00    +0.013 C 
ATOM     19  C   UNL     1      34.112 -17.565 -24.343  0.00  0.00    +0.060 C 
ENDBRANCH  10  14
BRANCH   1  23
ATOM     20  O   UNL     1      34.106  -7.452 -22.233  0.00  0.00    -0.326 OA
ATOM     21  C   UNL     1      32.531  -6.927 -23.948  0.00  0.00    +0.187 C 
ATOM     22  C   UNL     1      31.810  -7.165 -22.635  0.00  0.00    +0.178 C 
ATOM     23  C   UNL     1      33.924  -7.477 -23.663  0.00  0.00    +0.225 C 
ATOM     24  C   UNL     1      32.912  -6.922 -21.612  0.00  0.00    +0.223 C 
BRANCH  24  28
ATOM     25  O   UNL     1      32.107  -8.771 -20.234  0.00  0.00    -0.421 OA
ATOM     26  N   UNL     1      33.195  -7.186 -19.091  0.00  0.00    -0.109 NA
ATOM     27  N   UNL     1      32.798  -8.161 -18.195  0.00  0.00    -0.112 NA
ATOM     28  C   UNL     1      32.770  -7.587 -20.260  0.00  0.00    +0.255 A 
ATOM     29  C   UNL     1      32.166  -9.065 -18.906  0.00  0.00    +0.225 A 
BRANCH  29  30
ATOM     30  C   UNL     1      31.536 -10.320 -18.477  0.00  0.00    +0.070 C 
ATOM     31  C   UNL     1      30.029 -10.421 -18.918  0.00  0.00    +0.009 C 
ATOM     32  C   UNL     1      31.556 -10.504 -16.915  0.00  0.00    +0.009 C 
ATOM     33  C   UNL     1      32.190 -11.646 -19.030  0.00  0.00    +0.009 C 
ENDBRANCH  29  30
ENDBRANCH  24  28
BRANCH  21  34
ATOM     34  O   UNL     1      32.657  -5.529 -24.205  0.00  0.00    -0.378 OA
ATOM     35  H   UNL     1      32.479  -5.034 -23.389  0.00  0.00    +0.211 HD
ENDBRANCH  21  34
BRANCH  22  36
ATOM     36  O   UNL     1      30.713  -6.292 -22.452  0.00  0.00    -0.379 OA
ATOM     37  H   UNL     1      29.917  -6.811 -22.253  0.00  0.00    +0.211 HD
ENDBRANCH  22  36
ENDBRANCH   1  23
TORSDOF 6
ENDMDL
