MODEL 1
REMARK VINA RESULT:     -13.5      0.000      0.000
REMARK  Name = 24780387
REMARK  3 active torsions:
REMARK  status: ('A' for Active; 'I' for Inactive)
REMARK    1  A    between atoms: N_3  and  C_25
REMARK    2  A    between atoms: C_18  and  O_23
REMARK    3  A    between atoms: C_25  and  N_26
REMARK                            x       y       z     vdW  Elec       q    Type
REMARK                         _______ _______ _______ _____ _____    ______ ____
ROOT
ATOM      1  O   UNL     1      32.734 -24.318 -12.301  0.00  0.00    -0.270 OA
ATOM      2  O   UNL     1      36.190 -22.783 -14.956  0.00  0.00    -0.270 OA
ATOM      3  N   UNL     1      34.736 -23.681 -13.356  0.00  0.00    -0.244 N 
ATOM      4  N   UNL     1      32.173 -21.351 -18.020  0.00  0.00    -0.353 N 
ATOM      5  C   UNL     1      31.479 -23.111 -14.788  0.00  0.00    -0.020 A 
ATOM      6  C   UNL     1      31.179 -22.478 -16.004  0.00  0.00    -0.010 A 
ATOM      7  C   UNL     1      32.789 -23.236 -14.412  0.00  0.00    +0.054 A 
ATOM      8  C   UNL     1      30.231 -23.513 -14.073  0.00  0.00    +0.027 C 
ATOM      9  C   UNL     1      29.692 -22.397 -16.202  0.00  0.00    +0.028 C 
ATOM     10  C   UNL     1      32.220 -21.999 -16.812  0.00  0.00    +0.052 A 
ATOM     11  C   UNL     1      33.822 -22.764 -15.222  0.00  0.00    +0.059 A 
ATOM     12  C   UNL     1      29.203 -23.463 -15.212  0.00  0.00    +0.009 C 
ATOM     13  C   UNL     1      33.574 -22.128 -16.453  0.00  0.00    +0.024 A 
ATOM     14  C   UNL     1      33.377 -23.824 -13.209  0.00  0.00    +0.253 C 
ATOM     15  C   UNL     1      35.082 -23.056 -14.536  0.00  0.00    +0.253 C 
ATOM     16  C   UNL     1      34.343 -21.534 -17.512  0.00  0.00    +0.051 A 
ATOM     17  C   UNL     1      33.439 -21.062 -18.468  0.00  0.00    +0.060 A 
ATOM     18  C   UNL     1      35.719 -21.344 -17.765  0.00  0.00    +0.140 C 
ATOM     19  C   UNL     1      33.837 -20.418 -19.647  0.00  0.00    +0.017 C 
ATOM     20  C   UNL     1      36.134 -20.702 -18.939  0.00  0.00    +0.037 C 
ATOM     21  C   UNL     1      35.203 -20.246 -19.867  0.00  0.00    +0.005 C 
ATOM     22  H   UNL     1      31.345 -21.124 -18.502  0.00  0.00    +0.166 HD
ENDROOT
BRANCH  18  23
ATOM     23  O   UNL     1      36.733 -21.750 -16.944  0.00  0.00    -0.471 OA
ATOM     24  C   UNL     1      37.546 -20.731 -16.371  0.00  0.00    +0.252 C 
ENDBRANCH  18  23
BRANCH   3  25
ATOM     25  C   UNL     1      35.714 -24.132 -12.384  0.00  0.00    +0.028 C 
BRANCH  25  26
ATOM     26  N   UNL     1      36.991 -24.354 -13.057  0.00  0.00    +0.396 N 
ATOM     27  N   UNL     1      39.575 -25.623 -13.328  0.00  0.00    +0.383 N 
ATOM     28  C   UNL     1      38.113 -23.995 -12.180  0.00  0.00    -0.098 C 
ATOM     29  C   UNL     1      37.113 -25.749 -13.499  0.00  0.00    -0.098 C 
ATOM     30  C   UNL     1      39.454 -24.229 -12.885  0.00  0.00    -0.101 C 
ATOM     31  C   UNL     1      38.453 -25.982 -14.205  0.00  0.00    -0.101 C 
ATOM     32  C   UNL     1      40.853 -25.843 -14.003  0.00  0.00    -0.101 C 
ATOM     33  H   UNL     1      37.022 -23.752 -13.880  0.00  0.00    -0.077 HD
ATOM     34  H   UNL     1      39.546 -26.225 -12.506  0.00  0.00    -0.080 HD
ENDBRANCH  25  26
ENDBRANCH   3  25
TORSDOF 3
ENDMDL
MODEL 2
REMARK VINA RESULT:     -12.2      2.205      6.566
REMARK  Name = 24780387
REMARK  3 active torsions:
REMARK  status: ('A' for Active; 'I' for Inactive)
REMARK    1  A    between atoms: N_3  and  C_25
REMARK    2  A    between atoms: C_18  and  O_23
REMARK    3  A    between atoms: C_25  and  N_26
REMARK                            x       y       z     vdW  Elec       q    Type
REMARK                         _______ _______ _______ _____ _____    ______ ____
ROOT
ATOM      1  O   UNL     1      32.619 -21.767 -18.402  0.00  0.00    -0.270 OA
ATOM      2  O   UNL     1      36.796 -22.198 -16.474  0.00  0.00    -0.270 OA
ATOM      3  N   UNL     1      34.886 -21.887 -17.792  0.00  0.00    -0.244 N 
ATOM      4  N   UNL     1      33.881 -23.341 -12.258  0.00  0.00    -0.353 N 
ATOM      5  C   UNL     1      32.184 -22.494 -15.487  0.00  0.00    -0.020 A 
ATOM      6  C   UNL     1      32.280 -22.852 -14.134  0.00  0.00    -0.010 A 
ATOM      7  C   UNL     1      33.334 -22.303 -16.204  0.00  0.00    +0.054 A 
ATOM      8  C   UNL     1      30.757 -22.427 -15.923  0.00  0.00    +0.027 C 
ATOM      9  C   UNL     1      30.912 -23.064 -13.548  0.00  0.00    +0.028 C 
ATOM     10  C   UNL     1      33.542 -22.996 -13.541  0.00  0.00    +0.052 A 
ATOM     11  C   UNL     1      34.588 -22.440 -15.609  0.00  0.00    +0.059 A 
ATOM     12  C   UNL     1      30.034 -22.330 -14.571  0.00  0.00    +0.009 C 
ATOM     13  C   UNL     1      34.738 -22.792 -14.254  0.00  0.00    +0.024 A 
ATOM     14  C   UNL     1      33.525 -21.950 -17.610  0.00  0.00    +0.253 C 
ATOM     15  C   UNL     1      35.591 -22.169 -16.640  0.00  0.00    +0.253 C 
ATOM     16  C   UNL     1      35.815 -23.021 -13.332  0.00  0.00    +0.051 A 
ATOM     17  C   UNL     1      35.245 -23.360 -12.101  0.00  0.00    +0.060 A 
ATOM     18  C   UNL     1      37.225 -22.977 -13.409  0.00  0.00    +0.140 C 
ATOM     19  C   UNL     1      36.004 -23.653 -10.961  0.00  0.00    +0.017 C 
ATOM     20  C   UNL     1      37.998 -23.267 -12.278  0.00  0.00    +0.037 C 
ATOM     21  C   UNL     1      37.393 -23.601 -11.070  0.00  0.00    +0.005 C 
ATOM     22  H   UNL     1      33.234 -23.546 -11.544  0.00  0.00    +0.166 HD
ENDROOT
BRANCH  18  23
ATOM     23  O   UNL     1      37.942 -22.656 -14.527  0.00  0.00    -0.471 OA
ATOM     24  C   UNL     1      39.087 -23.456 -14.809  0.00  0.00    +0.252 C 
ENDBRANCH  18  23
BRANCH   3  25
ATOM     25  C   UNL     1      35.527 -21.564 -19.053  0.00  0.00    +0.028 C 
BRANCH  25  26
ATOM     26  N   UNL     1      35.437 -20.123 -19.279  0.00  0.00    +0.396 N 
ATOM     27  N   UNL     1      35.542 -17.766 -20.951  0.00  0.00    +0.383 N 
ATOM     28  C   UNL     1      36.716 -19.591 -19.768  0.00  0.00    -0.098 C 
ATOM     29  C   UNL     1      34.357 -19.810 -20.223  0.00  0.00    -0.098 C 
ATOM     30  C   UNL     1      36.623 -18.080 -20.008  0.00  0.00    -0.101 C 
ATOM     31  C   UNL     1      34.264 -18.298 -20.462  0.00  0.00    -0.101 C 
ATOM     32  C   UNL     1      35.453 -16.325 -21.175  0.00  0.00    -0.101 C 
ATOM     33  H   UNL     1      35.225 -19.677 -18.387  0.00  0.00    -0.077 HD
ATOM     34  H   UNL     1      35.755 -18.211 -21.843  0.00  0.00    -0.080 HD
ENDBRANCH  25  26
ENDBRANCH   3  25
TORSDOF 3
ENDMDL
MODEL 3
REMARK VINA RESULT:     -10.6      1.030      4.565
REMARK  Name = 24780387
REMARK  3 active torsions:
REMARK  status: ('A' for Active; 'I' for Inactive)
REMARK    1  A    between atoms: N_3  and  C_25
REMARK    2  A    between atoms: C_18  and  O_23
REMARK    3  A    between atoms: C_25  and  N_26
REMARK                            x       y       z     vdW  Elec       q    Type
REMARK                         _______ _______ _______ _____ _____    ______ ____
ROOT
ATOM      1  O   UNL     1      37.214 -22.299 -15.551  0.00  0.00    -0.270 OA
ATOM      2  O   UNL     1      33.543 -23.670 -13.102  0.00  0.00    -0.270 OA
ATOM      3  N   UNL     1      35.621 -23.103 -14.020  0.00  0.00    -0.244 N 
ATOM      4  N   UNL     1      31.019 -21.953 -17.375  0.00  0.00    -0.353 N 
ATOM      5  C   UNL     1      34.752 -21.699 -17.223  0.00  0.00    -0.020 A 
ATOM      6  C   UNL     1      33.470 -21.559 -17.775  0.00  0.00    -0.010 A 
ATOM      7  C   UNL     1      34.881 -22.260 -15.981  0.00  0.00    +0.054 A 
ATOM      8  C   UNL     1      35.799 -21.220 -18.174  0.00  0.00    +0.027 C 
ATOM      9  C   UNL     1      33.553 -20.975 -19.158  0.00  0.00    +0.028 C 
ATOM     10  C   UNL     1      32.350 -21.981 -17.045  0.00  0.00    +0.052 A 
ATOM     11  C   UNL     1      33.764 -22.672 -15.255  0.00  0.00    +0.059 A 
ATOM     12  C   UNL     1      34.961 -20.365 -19.137  0.00  0.00    +0.009 C 
ATOM     13  C   UNL     1      32.456 -22.547 -15.761  0.00  0.00    +0.024 A 
ATOM     14  C   UNL     1      36.077 -22.539 -15.188  0.00  0.00    +0.253 C 
ATOM     15  C   UNL     1      34.246 -23.217 -13.985  0.00  0.00    +0.253 C 
ATOM     16  C   UNL     1      31.120 -22.849 -15.329  0.00  0.00    +0.051 A 
ATOM     17  C   UNL     1      30.253 -22.466 -16.357  0.00  0.00    +0.060 A 
ATOM     18  C   UNL     1      30.546 -23.411 -14.167  0.00  0.00    +0.140 C 
ATOM     19  C   UNL     1      28.862 -22.615 -16.282  0.00  0.00    +0.017 C 
ATOM     20  C   UNL     1      29.157 -23.566 -14.076  0.00  0.00    +0.037 C 
ATOM     21  C   UNL     1      28.327 -23.173 -15.121  0.00  0.00    +0.005 C 
ATOM     22  H   UNL     1      30.660 -21.610 -18.225  0.00  0.00    +0.166 HD
ENDROOT
BRANCH  18  23
ATOM     23  O   UNL     1      31.244 -23.829 -13.069  0.00  0.00    -0.471 OA
ATOM     24  C   UNL     1      30.654 -23.576 -11.797  0.00  0.00    +0.252 C 
ENDBRANCH  18  23
BRANCH   3  25
ATOM     25  C   UNL     1      36.479 -23.539 -12.935  0.00  0.00    +0.028 C 
BRANCH  25  26
ATOM     26  N   UNL     1      37.729 -24.052 -13.490  0.00  0.00    +0.396 N 
ATOM     27  N   UNL     1      39.981 -25.866 -13.524  0.00  0.00    +0.383 N 
ATOM     28  C   UNL     1      38.822 -23.930 -12.517  0.00  0.00    -0.098 C 
ATOM     29  C   UNL     1      37.576 -25.449 -13.916  0.00  0.00    -0.098 C 
ATOM     30  C   UNL     1      40.133 -24.470 -13.097  0.00  0.00    -0.101 C 
ATOM     31  C   UNL     1      38.888 -25.988 -14.497  0.00  0.00    -0.101 C 
ATOM     32  C   UNL     1      41.231 -26.378 -14.080  0.00  0.00    -0.101 C 
ATOM     33  H   UNL     1      37.964 -23.491 -14.308  0.00  0.00    -0.077 HD
ATOM     34  H   UNL     1      39.747 -26.428 -12.706  0.00  0.00    -0.080 HD
ENDBRANCH  25  26
ENDBRANCH   3  25
TORSDOF 3
ENDMDL
