MODEL 1
REMARK VINA RESULT:     -11.1      0.000      0.000
REMARK  Name = 6914613
REMARK  8 active torsions:
REMARK  status: ('A' for Active; 'I' for Inactive)
REMARK    1  A    between atoms: C_1  and  N_2
REMARK    2  A    between atoms: C_1  and  C_6
REMARK    3  A    between atoms: C_1  and  C_17
REMARK    4  A    between atoms: C_6  and  C_8
REMARK    5  A    between atoms: C_17  and  O_18
REMARK    6  A    between atoms: O_18  and  C_20
REMARK    7  A    between atoms: C_23  and  C_25
REMARK    8  A    between atoms: C_26  and  C_28
REMARK                            x       y       z     vdW  Elec       q    Type
REMARK                         _______ _______ _______ _____ _____    ______ ____
ROOT
ATOM      1  C   UNL     1      33.852 -22.781 -14.989  0.00  0.00    -0.017 C 
ENDROOT
BRANCH   1   2
ATOM      2  N   UNL     1      32.435 -22.424 -14.863  0.00  0.00    +0.384 N 
ATOM      3  H   UNL     1      31.967 -22.571 -15.757  0.00  0.00    -0.089 HD
ATOM      4  H   UNL     1      32.354 -21.443 -14.594  0.00  0.00    -0.089 HD
ATOM      5  H   UNL     1      31.999 -23.009 -14.151  0.00  0.00    -0.089 HD
ENDBRANCH   1   2
BRANCH   1   6
ATOM      6  C   UNL     1      34.163 -23.993 -14.071  0.00  0.00    +0.009 C 
BRANCH   6   8
ATOM      7  N   UNL     1      36.505 -23.135 -11.405  0.00  0.00    -0.312 N 
ATOM      8  C   UNL     1      35.299 -23.788 -13.151  0.00  0.00    -0.008 C 
ATOM      9  C   UNL     1      36.631 -24.257 -13.330  0.00  0.00    +0.011 C 
ATOM     10  C   UNL     1      37.367 -23.834 -12.220  0.00  0.00    +0.048 C 
ATOM     11  C   UNL     1      35.253 -23.103 -11.958  0.00  0.00    +0.058 C 
ATOM     12  C   UNL     1      37.283 -25.001 -14.332  0.00  0.00    +0.001 C 
ATOM     13  C   UNL     1      38.728 -24.120 -12.062  0.00  0.00    +0.015 C 
ATOM     14  C   UNL     1      38.644 -25.296 -14.188  0.00  0.00    +0.000 C 
ATOM     15  C   UNL     1      39.353 -24.861 -13.070  0.00  0.00    +0.001 C 
ATOM     16  H   UNL     1      36.753 -22.720 -10.547  0.00  0.00    +0.152 HD
ENDBRANCH   6   8
ENDBRANCH   1   6
BRANCH   1  17
ATOM     17  C   UNL     1      34.163 -23.037 -16.470  0.00  0.00    +0.184 C 
BRANCH  17  18
ATOM     18  O   UNL     1      33.611 -22.029 -17.307  0.00  0.00    -0.476 OA
BRANCH  18  20
ATOM     19  N   UNL     1      36.755 -20.570 -18.433  0.00  0.00    -0.239 NA
ATOM     20  C   UNL     1      34.493 -21.296 -18.058  0.00  0.00    +0.158 C 
ATOM     21  C   UNL     1      34.052 -20.567 -19.146  0.00  0.00    +0.040 C 
ATOM     22  C   UNL     1      35.833 -21.273 -17.737  0.00  0.00    +0.136 C 
ATOM     23  C   UNL     1      34.971 -19.831 -19.887  0.00  0.00    +0.022 C 
ATOM     24  C   UNL     1      36.298 -19.865 -19.492  0.00  0.00    +0.099 C 
BRANCH  23  25
ATOM     25  C   UNL     1      34.551 -19.050 -21.037  0.00  0.00    +0.002 C 
ATOM     26  C   UNL     1      35.378 -18.353 -21.854  0.00  0.00    +0.000 C 
BRANCH  26  28
ATOM     27  N   UNL     1      34.158 -16.114 -25.254  0.00  0.00    -0.242 NA
ATOM     28  C   UNL     1      34.954 -17.576 -23.033  0.00  0.00    +0.003 C 
ATOM     29  C   UNL     1      35.326 -16.251 -23.142  0.00  0.00    +0.021 C 
ATOM     30  C   UNL     1      34.192 -18.186 -24.010  0.00  0.00    +0.021 C 
ATOM     31  C   UNL     1      34.904 -15.565 -24.269  0.00  0.00    +0.099 C 
ATOM     32  C   UNL     1      33.821 -17.414 -25.098  0.00  0.00    +0.099 C 
ENDBRANCH  26  28
ENDBRANCH  23  25
ENDBRANCH  18  20
ENDBRANCH  17  18
ENDBRANCH   1  17
TORSDOF 8
ENDMDL
MODEL 2
REMARK VINA RESULT:     -11.0      2.664      9.986
REMARK  Name = 6914613
REMARK  8 active torsions:
REMARK  status: ('A' for Active; 'I' for Inactive)
REMARK    1  A    between atoms: C_1  and  N_2
REMARK    2  A    between atoms: C_1  and  C_6
REMARK    3  A    between atoms: C_1  and  C_17
REMARK    4  A    between atoms: C_6  and  C_8
REMARK    5  A    between atoms: C_17  and  O_18
REMARK    6  A    between atoms: O_18  and  C_20
REMARK    7  A    between atoms: C_23  and  C_25
REMARK    8  A    between atoms: C_26  and  C_28
REMARK                            x       y       z     vdW  Elec       q    Type
REMARK                         _______ _______ _______ _____ _____    ______ ____
ROOT
ATOM      1  C   UNL     1      35.364 -19.780 -20.270  0.00  0.00    -0.017 C 
ENDROOT
BRANCH   1   2
ATOM      2  N   UNL     1      33.953 -19.747 -19.868  0.00  0.00    +0.384 N 
ATOM      3  H   UNL     1      33.739 -20.573 -19.310  0.00  0.00    -0.089 HD
ATOM      4  H   UNL     1      33.363 -19.737 -20.700  0.00  0.00    -0.089 HD
ATOM      5  H   UNL     1      33.777 -18.908 -19.316  0.00  0.00    -0.089 HD
ENDBRANCH   1   2
BRANCH   1   6
ATOM      6  C   UNL     1      35.993 -18.377 -20.060  0.00  0.00    +0.009 C 
BRANCH   6   8
ATOM      7  N   UNL     1      35.646 -16.585 -23.222  0.00  0.00    -0.312 N 
ATOM      8  C   UNL     1      35.773 -17.435 -21.174  0.00  0.00    -0.008 C 
ATOM      9  C   UNL     1      35.343 -16.082 -21.069  0.00  0.00    +0.011 C 
ATOM     10  C   UNL     1      35.271 -15.572 -22.367  0.00  0.00    +0.048 C 
ATOM     11  C   UNL     1      35.950 -17.715 -22.510  0.00  0.00    +0.058 C 
ATOM     12  C   UNL     1      35.008 -15.239 -19.991  0.00  0.00    +0.001 C 
ATOM     13  C   UNL     1      34.879 -14.257 -22.643  0.00  0.00    +0.015 C 
ATOM     14  C   UNL     1      34.613 -13.922 -20.251  0.00  0.00    +0.000 C 
ATOM     15  C   UNL     1      34.550 -13.441 -21.556  0.00  0.00    +0.001 C 
ATOM     16  H   UNL     1      35.687 -16.509 -24.203  0.00  0.00    +0.152 HD
ENDBRANCH   6   8
ENDBRANCH   1   6
BRANCH   1  17
ATOM     17  C   UNL     1      36.070 -20.894 -19.485  0.00  0.00    +0.184 C 
BRANCH  17  18
ATOM     18  O   UNL     1      36.709 -20.394 -18.317  0.00  0.00    -0.476 OA
BRANCH  18  20
ATOM     19  N   UNL     1      37.469 -21.990 -15.130  0.00  0.00    -0.239 NA
ATOM     20  C   UNL     1      36.530 -21.109 -17.162  0.00  0.00    +0.158 C 
ATOM     21  C   UNL     1      35.298 -21.659 -16.860  0.00  0.00    +0.040 C 
ATOM     22  C   UNL     1      37.577 -21.294 -16.285  0.00  0.00    +0.136 C 
ATOM     23  C   UNL     1      35.148 -22.381 -15.680  0.00  0.00    +0.022 C 
ATOM     24  C   UNL     1      36.255 -22.517 -14.858  0.00  0.00    +0.099 C 
BRANCH  23  25
ATOM     25  C   UNL     1      33.873 -22.975 -15.324  0.00  0.00    +0.002 C 
ATOM     26  C   UNL     1      32.656 -22.467 -15.639  0.00  0.00    +0.000 C 
BRANCH  26  28
ATOM     27  N   UNL     1      28.921 -24.231 -14.640  0.00  0.00    -0.242 NA
ATOM     28  C   UNL     1      31.361 -23.079 -15.293  0.00  0.00    +0.003 C 
ATOM     29  C   UNL     1      31.335 -24.210 -14.502  0.00  0.00    +0.021 C 
ATOM     30  C   UNL     1      30.194 -22.512 -15.767  0.00  0.00    +0.021 C 
ATOM     31  C   UNL     1      30.093 -24.747 -14.204  0.00  0.00    +0.099 C 
ATOM     32  C   UNL     1      29.003 -23.125 -15.413  0.00  0.00    +0.099 C 
ENDBRANCH  26  28
ENDBRANCH  23  25
ENDBRANCH  18  20
ENDBRANCH  17  18
ENDBRANCH   1  17
TORSDOF 8
ENDMDL
MODEL 3
REMARK VINA RESULT:     -11.0      4.082      7.427
REMARK  Name = 6914613
REMARK  8 active torsions:
REMARK  status: ('A' for Active; 'I' for Inactive)
REMARK    1  A    between atoms: C_1  and  N_2
REMARK    2  A    between atoms: C_1  and  C_6
REMARK    3  A    between atoms: C_1  and  C_17
REMARK    4  A    between atoms: C_6  and  C_8
REMARK    5  A    between atoms: C_17  and  O_18
REMARK    6  A    between atoms: O_18  and  C_20
REMARK    7  A    between atoms: C_23  and  C_25
REMARK    8  A    between atoms: C_26  and  C_28
REMARK                            x       y       z     vdW  Elec       q    Type
REMARK                         _______ _______ _______ _____ _____    ______ ____
ROOT
ATOM      1  C   UNL     1      35.604 -18.672 -21.048  0.00  0.00    -0.017 C 
ENDROOT
BRANCH   1   2
ATOM      2  N   UNL     1      35.720 -17.510 -20.160  0.00  0.00    +0.384 N 
ATOM      3  H   UNL     1      34.937 -17.503 -19.506  0.00  0.00    -0.089 HD
ATOM      4  H   UNL     1      35.706 -16.654 -20.715  0.00  0.00    -0.089 HD
ATOM      5  H   UNL     1      36.596 -17.565 -19.641  0.00  0.00    -0.089 HD
ENDBRANCH   1   2
BRANCH   1   6
ATOM      6  C   UNL     1      34.698 -19.741 -20.384  0.00  0.00    +0.009 C 
BRANCH   6   8
ATOM      7  N   UNL     1      36.778 -21.111 -17.714  0.00  0.00    -0.312 N 
ATOM      8  C   UNL     1      35.295 -20.403 -19.206  0.00  0.00    -0.008 C 
ATOM      9  C   UNL     1      34.607 -21.170 -18.224  0.00  0.00    +0.011 C 
ATOM     10  C   UNL     1      35.560 -21.603 -17.299  0.00  0.00    +0.048 C 
ATOM     11  C   UNL     1      36.628 -20.385 -18.864  0.00  0.00    +0.058 C 
ATOM     12  C   UNL     1      33.261 -21.540 -18.034  0.00  0.00    +0.001 C 
ATOM     13  C   UNL     1      35.233 -22.389 -16.189  0.00  0.00    +0.015 C 
ATOM     14  C   UNL     1      32.919 -22.326 -16.927  0.00  0.00    +0.000 C 
ATOM     15  C   UNL     1      33.891 -22.743 -16.021  0.00  0.00    +0.001 C 
ATOM     16  H   UNL     1      37.633 -21.260 -17.248  0.00  0.00    +0.152 HD
ENDBRANCH   6   8
ENDBRANCH   1   6
BRANCH   1  17
ATOM     17  C   UNL     1      35.092 -18.195 -22.414  0.00  0.00    +0.184 C 
BRANCH  17  18
ATOM     18  O   UNL     1      35.825 -17.075 -22.892  0.00  0.00    -0.476 OA
BRANCH  18  20
ATOM     19  N   UNL     1      34.090 -15.113 -25.426  0.00  0.00    -0.239 NA
ATOM     20  C   UNL     1      35.102 -16.059 -23.460  0.00  0.00    +0.158 C 
ATOM     21  C   UNL     1      34.670 -14.992 -22.694  0.00  0.00    +0.040 C 
ATOM     22  C   UNL     1      34.797 -16.083 -24.803  0.00  0.00    +0.136 C 
ATOM     23  C   UNL     1      33.939 -13.975 -23.299  0.00  0.00    +0.022 C 
ATOM     24  C   UNL     1      33.680 -14.082 -24.656  0.00  0.00    +0.099 C 
BRANCH  23  25
ATOM     25  C   UNL     1      33.466 -12.836 -22.533  0.00  0.00    +0.002 C 
ATOM     26  C   UNL     1      32.737 -12.908 -21.392  0.00  0.00    +0.000 C 
BRANCH  26  28
ATOM     27  N   UNL     1      31.394  -9.578 -19.120  0.00  0.00    -0.242 NA
ATOM     28  C   UNL     1      32.273 -11.753 -20.604  0.00  0.00    +0.003 C 
ATOM     29  C   UNL     1      32.149 -10.520 -21.214  0.00  0.00    +0.021 C 
ATOM     30  C   UNL     1      31.967 -11.921 -19.268  0.00  0.00    +0.021 C 
ATOM     31  C   UNL     1      31.707  -9.467 -20.431  0.00  0.00    +0.099 C 
ATOM     32  C   UNL     1      31.533 -10.805 -18.572  0.00  0.00    +0.099 C 
ENDBRANCH  26  28
ENDBRANCH  23  25
ENDBRANCH  18  20
ENDBRANCH  17  18
ENDBRANCH   1  17
TORSDOF 8
ENDMDL
MODEL 4
REMARK VINA RESULT:     -10.9      5.166     11.915
REMARK  Name = 6914613
REMARK  8 active torsions:
REMARK  status: ('A' for Active; 'I' for Inactive)
REMARK    1  A    between atoms: C_1  and  N_2
REMARK    2  A    between atoms: C_1  and  C_6
REMARK    3  A    between atoms: C_1  and  C_17
REMARK    4  A    between atoms: C_6  and  C_8
REMARK    5  A    between atoms: C_17  and  O_18
REMARK    6  A    between atoms: O_18  and  C_20
REMARK    7  A    between atoms: C_23  and  C_25
REMARK    8  A    between atoms: C_26  and  C_28
REMARK                            x       y       z     vdW  Elec       q    Type
REMARK                         _______ _______ _______ _____ _____    ______ ____
ROOT
ATOM      1  C   UNL     1      33.898 -12.356 -22.543  0.00  0.00    -0.017 C 
ENDROOT
BRANCH   1   2
ATOM      2  N   UNL     1      33.861 -12.303 -24.009  0.00  0.00    +0.384 N 
ATOM      3  H   UNL     1      33.972 -13.244 -24.386  0.00  0.00    -0.089 HD
ATOM      4  H   UNL     1      34.619 -11.710 -24.347  0.00  0.00    -0.089 HD
ATOM      5  H   UNL     1      32.967 -11.917 -24.313  0.00  0.00    -0.089 HD
ENDBRANCH   1   2
BRANCH   1   6
ATOM      6  C   UNL     1      32.448 -12.400 -21.992  0.00  0.00    +0.009 C 
BRANCH   6   8
ATOM      7  N   UNL     1      31.832 -11.077 -18.645  0.00  0.00    -0.312 N 
ATOM      8  C   UNL     1      32.237 -11.612 -20.762  0.00  0.00    -0.008 C 
ATOM      9  C   UNL     1      32.282 -10.194 -20.645  0.00  0.00    +0.011 C 
ATOM     10  C   UNL     1      32.026  -9.884 -19.307  0.00  0.00    +0.048 C 
ATOM     11  C   UNL     1      31.958 -12.126 -19.516  0.00  0.00    +0.058 C 
ATOM     12  C   UNL     1      32.518  -9.141 -21.550  0.00  0.00    +0.001 C 
ATOM     13  C   UNL     1      31.992  -8.570 -18.828  0.00  0.00    +0.015 C 
ATOM     14  C   UNL     1      32.489  -7.821 -21.086  0.00  0.00    +0.000 C 
ATOM     15  C   UNL     1      32.229  -7.543 -19.746  0.00  0.00    +0.001 C 
ATOM     16  H   UNL     1      31.632 -11.163 -17.685  0.00  0.00    +0.152 HD
ENDBRANCH   6   8
ENDBRANCH   1   6
BRANCH   1  17
ATOM     17  C   UNL     1      34.753 -13.557 -22.118  0.00  0.00    +0.184 C 
BRANCH  17  18
ATOM     18  O   UNL     1      35.347 -14.205 -23.236  0.00  0.00    -0.476 OA
BRANCH  18  20
ATOM     19  N   UNL     1      34.283 -17.322 -24.798  0.00  0.00    -0.239 NA
ATOM     20  C   UNL     1      35.078 -15.540 -23.391  0.00  0.00    +0.158 C 
ATOM     21  C   UNL     1      35.306 -16.427 -22.355  0.00  0.00    +0.040 C 
ATOM     22  C   UNL     1      34.572 -16.018 -24.580  0.00  0.00    +0.136 C 
ATOM     23  C   UNL     1      35.021 -17.775 -22.541  0.00  0.00    +0.022 C 
ATOM     24  C   UNL     1      34.516 -18.167 -23.770  0.00  0.00    +0.099 C 
BRANCH  23  25
ATOM     25  C   UNL     1      35.246 -18.741 -21.481  0.00  0.00    +0.002 C 
ATOM     26  C   UNL     1      34.314 -19.154 -20.587  0.00  0.00    +0.000 C 
BRANCH  26  28
ATOM     27  N   UNL     1      34.955 -22.020 -17.515  0.00  0.00    -0.242 NA
ATOM     28  C   UNL     1      34.537 -20.149 -19.522  0.00  0.00    +0.003 C 
ATOM     29  C   UNL     1      35.820 -20.385 -19.072  0.00  0.00    +0.021 C 
ATOM     30  C   UNL     1      33.457 -20.827 -18.991  0.00  0.00    +0.021 C 
ATOM     31  C   UNL     1      35.976 -21.328 -18.069  0.00  0.00    +0.099 C 
ATOM     32  C   UNL     1      33.719 -21.750 -17.992  0.00  0.00    +0.099 C 
ENDBRANCH  26  28
ENDBRANCH  23  25
ENDBRANCH  18  20
ENDBRANCH  17  18
ENDBRANCH   1  17
TORSDOF 8
ENDMDL
MODEL 5
REMARK VINA RESULT:     -10.9      3.314     10.908
REMARK  Name = 6914613
REMARK  8 active torsions:
REMARK  status: ('A' for Active; 'I' for Inactive)
REMARK    1  A    between atoms: C_1  and  N_2
REMARK    2  A    between atoms: C_1  and  C_6
REMARK    3  A    between atoms: C_1  and  C_17
REMARK    4  A    between atoms: C_6  and  C_8
REMARK    5  A    between atoms: C_17  and  O_18
REMARK    6  A    between atoms: O_18  and  C_20
REMARK    7  A    between atoms: C_23  and  C_25
REMARK    8  A    between atoms: C_26  and  C_28
REMARK                            x       y       z     vdW  Elec       q    Type
REMARK                         _______ _______ _______ _____ _____    ______ ____
ROOT
ATOM      1  C   UNL     1      35.047 -17.786 -21.065  0.00  0.00    -0.017 C 
ENDROOT
BRANCH   1   2
ATOM      2  N   UNL     1      36.031 -17.359 -20.064  0.00  0.00    +0.384 N 
ATOM      3  H   UNL     1      35.638 -17.476 -19.130  0.00  0.00    -0.089 HD
ATOM      4  H   UNL     1      36.264 -16.377 -20.214  0.00  0.00    -0.089 HD
ATOM      5  H   UNL     1      36.874 -17.925 -20.153  0.00  0.00    -0.089 HD
ENDBRANCH   1   2
BRANCH   1   6
ATOM      6  C   UNL     1      35.664 -17.658 -22.483  0.00  0.00    +0.009 C 
BRANCH   6   8
ATOM      7  N   UNL     1      33.788 -15.976 -25.126  0.00  0.00    -0.312 N 
ATOM      8  C   UNL     1      34.934 -16.748 -23.388  0.00  0.00    -0.008 C 
ATOM      9  C   UNL     1      34.688 -15.361 -23.179  0.00  0.00    +0.011 C 
ATOM     10  C   UNL     1      33.967 -14.901 -24.283  0.00  0.00    +0.048 C 
ATOM     11  C   UNL     1      34.368 -17.096 -24.593  0.00  0.00    +0.058 C 
ATOM     12  C   UNL     1      35.010 -14.451 -22.153  0.00  0.00    +0.001 C 
ATOM     13  C   UNL     1      33.551 -13.572 -24.414  0.00  0.00    +0.015 C 
ATOM     14  C   UNL     1      34.600 -13.117 -22.270  0.00  0.00    +0.000 C 
ATOM     15  C   UNL     1      33.882 -12.687 -23.383  0.00  0.00    +0.001 C 
ATOM     16  H   UNL     1      33.310 -15.944 -25.987  0.00  0.00    +0.152 HD
ENDBRANCH   6   8
ENDBRANCH   1   6
BRANCH   1  17
ATOM     17  C   UNL     1      34.586 -19.209 -20.722  0.00  0.00    +0.184 C 
BRANCH  17  18
ATOM     18  O   UNL     1      35.667 -20.024 -20.288  0.00  0.00    -0.476 OA
BRANCH  18  20
ATOM     19  N   UNL     1      36.476 -21.506 -17.058  0.00  0.00    -0.239 NA
ATOM     20  C   UNL     1      35.503 -20.686 -19.099  0.00  0.00    +0.158 C 
ATOM     21  C   UNL     1      34.267 -21.192 -18.742  0.00  0.00    +0.040 C 
ATOM     22  C   UNL     1      36.569 -20.861 -18.244  0.00  0.00    +0.136 C 
ATOM     23  C   UNL     1      34.132 -21.861 -17.530  0.00  0.00    +0.022 C 
ATOM     24  C   UNL     1      35.257 -21.990 -16.732  0.00  0.00    +0.099 C 
BRANCH  23  25
ATOM     25  C   UNL     1      32.853 -22.408 -17.115  0.00  0.00    +0.002 C 
ATOM     26  C   UNL     1      32.399 -22.458 -15.839  0.00  0.00    +0.000 C 
BRANCH  26  28
ATOM     27  N   UNL     1      28.631 -24.005 -14.628  0.00  0.00    -0.242 NA
ATOM     28  C   UNL     1      31.092 -22.995 -15.420  0.00  0.00    +0.003 C 
ATOM     29  C   UNL     1      31.046 -24.053 -14.534  0.00  0.00    +0.021 C 
ATOM     30  C   UNL     1      29.935 -22.431 -15.919  0.00  0.00    +0.021 C 
ATOM     31  C   UNL     1      29.794 -24.520 -14.170  0.00  0.00    +0.099 C 
ATOM     32  C   UNL     1      28.732 -22.971 -15.493  0.00  0.00    +0.099 C 
ENDBRANCH  26  28
ENDBRANCH  23  25
ENDBRANCH  18  20
ENDBRANCH  17  18
ENDBRANCH   1  17
TORSDOF 8
ENDMDL
MODEL 6
REMARK VINA RESULT:     -10.9      5.369     12.405
REMARK  Name = 6914613
REMARK  8 active torsions:
REMARK  status: ('A' for Active; 'I' for Inactive)
REMARK    1  A    between atoms: C_1  and  N_2
REMARK    2  A    between atoms: C_1  and  C_6
REMARK    3  A    between atoms: C_1  and  C_17
REMARK    4  A    between atoms: C_6  and  C_8
REMARK    5  A    between atoms: C_17  and  O_18
REMARK    6  A    between atoms: O_18  and  C_20
REMARK    7  A    between atoms: C_23  and  C_25
REMARK    8  A    between atoms: C_26  and  C_28
REMARK                            x       y       z     vdW  Elec       q    Type
REMARK                         _______ _______ _______ _____ _____    ______ ____
ROOT
ATOM      1  C   UNL     1      34.333 -10.608 -23.427  0.00  0.00    -0.017 C 
ENDROOT
BRANCH   1   2
ATOM      2  N   UNL     1      35.351 -10.004 -24.293  0.00  0.00    +0.384 N 
ATOM      3  H   UNL     1      36.222 -10.529 -24.212  0.00  0.00    -0.089 HD
ATOM      4  H   UNL     1      35.510  -9.037 -24.009  0.00  0.00    -0.089 HD
ATOM      5  H   UNL     1      35.030 -10.026 -25.261  0.00  0.00    -0.089 HD
ENDBRANCH   1   2
BRANCH   1   6
ATOM      6  C   UNL     1      33.067  -9.712 -23.417  0.00  0.00    +0.009 C 
BRANCH   6   8
ATOM      7  N   UNL     1      32.244  -7.828 -20.399  0.00  0.00    -0.312 N 
ATOM      8  C   UNL     1      32.685  -9.206 -22.083  0.00  0.00    -0.008 C 
ATOM      9  C   UNL     1      32.301  -9.988 -20.957  0.00  0.00    +0.011 C 
ATOM     10  C   UNL     1      32.029  -9.100 -19.914  0.00  0.00    +0.048 C 
ATOM     11  C   UNL     1      32.641  -7.883 -21.708  0.00  0.00    +0.058 C 
ATOM     12  C   UNL     1      32.158 -11.370 -20.725  0.00  0.00    +0.001 C 
ATOM     13  C   UNL     1      31.620  -9.526 -18.646  0.00  0.00    +0.015 C 
ATOM     14  C   UNL     1      31.749 -11.811 -19.461  0.00  0.00    +0.000 C 
ATOM     15  C   UNL     1      31.485 -10.902 -18.439  0.00  0.00    +0.001 C 
ATOM     16  H   UNL     1      32.129  -7.000 -19.878  0.00  0.00    +0.152 HD
ENDBRANCH   6   8
ENDBRANCH   1   6
BRANCH   1  17
ATOM     17  C   UNL     1      34.068 -12.040 -23.908  0.00  0.00    +0.184 C 
BRANCH  17  18
ATOM     18  O   UNL     1      34.587 -13.006 -23.002  0.00  0.00    -0.476 OA
BRANCH  18  20
ATOM     19  N   UNL     1      34.296 -15.878 -25.228  0.00  0.00    -0.239 NA
ATOM     20  C   UNL     1      34.619 -14.306 -23.437  0.00  0.00    +0.158 C 
ATOM     21  C   UNL     1      34.982 -15.325 -22.575  0.00  0.00    +0.040 C 
ATOM     22  C   UNL     1      34.287 -14.617 -24.737  0.00  0.00    +0.136 C 
ATOM     23  C   UNL     1      35.003 -16.634 -23.044  0.00  0.00    +0.022 C 
ATOM     24  C   UNL     1      34.654 -16.855 -24.366  0.00  0.00    +0.099 C 
BRANCH  23  25
ATOM     25  C   UNL     1      35.377 -17.735 -22.174  0.00  0.00    +0.002 C 
ATOM     26  C   UNL     1      34.681 -18.146 -21.087  0.00  0.00    +0.000 C 
BRANCH  26  28
ATOM     27  N   UNL     1      35.748 -21.404 -18.575  0.00  0.00    -0.242 NA
ATOM     28  C   UNL     1      35.051 -19.275 -20.215  0.00  0.00    +0.003 C 
ATOM     29  C   UNL     1      34.059 -20.070 -19.676  0.00  0.00    +0.021 C 
ATOM     30  C   UNL     1      36.384 -19.521 -19.951  0.00  0.00    +0.021 C 
ATOM     31  C   UNL     1      34.459 -21.119 -18.865  0.00  0.00    +0.099 C 
ATOM     32  C   UNL     1      36.680 -20.594 -19.128  0.00  0.00    +0.099 C 
ENDBRANCH  26  28
ENDBRANCH  23  25
ENDBRANCH  18  20
ENDBRANCH  17  18
ENDBRANCH   1  17
TORSDOF 8
ENDMDL
MODEL 7
REMARK VINA RESULT:     -10.8      1.882     11.234
REMARK  Name = 6914613
REMARK  8 active torsions:
REMARK  status: ('A' for Active; 'I' for Inactive)
REMARK    1  A    between atoms: C_1  and  N_2
REMARK    2  A    between atoms: C_1  and  C_6
REMARK    3  A    between atoms: C_1  and  C_17
REMARK    4  A    between atoms: C_6  and  C_8
REMARK    5  A    between atoms: C_17  and  O_18
REMARK    6  A    between atoms: O_18  and  C_20
REMARK    7  A    between atoms: C_23  and  C_25
REMARK    8  A    between atoms: C_26  and  C_28
REMARK                            x       y       z     vdW  Elec       q    Type
REMARK                         _______ _______ _______ _____ _____    ______ ____
ROOT
ATOM      1  C   UNL     1      36.319 -18.289 -20.531  0.00  0.00    -0.017 C 
ENDROOT
BRANCH   1   2
ATOM      2  N   UNL     1      37.743 -18.623 -20.428  0.00  0.00    +0.384 N 
ATOM      3  H   UNL     1      38.284 -17.768 -20.296  0.00  0.00    -0.089 HD
ATOM      4  H   UNL     1      38.047 -19.089 -21.283  0.00  0.00    -0.089 HD
ATOM      5  H   UNL     1      37.890 -19.244 -19.632  0.00  0.00    -0.089 HD
ENDBRANCH   1   2
BRANCH   1   6
ATOM      6  C   UNL     1      36.029 -17.693 -21.935  0.00  0.00    +0.009 C 
BRANCH   6   8
ATOM      7  N   UNL     1      34.671 -14.384 -21.199  0.00  0.00    -0.312 N 
ATOM      8  C   UNL     1      35.419 -16.349 -21.914  0.00  0.00    -0.008 C 
ATOM      9  C   UNL     1      34.861 -15.653 -23.025  0.00  0.00    +0.011 C 
ATOM     10  C   UNL     1      34.400 -14.424 -22.549  0.00  0.00    +0.048 C 
ATOM     11  C   UNL     1      35.287 -15.543 -20.807  0.00  0.00    +0.058 C 
ATOM     12  C   UNL     1      34.703 -15.953 -24.392  0.00  0.00    +0.001 C 
ATOM     13  C   UNL     1      33.787 -13.476 -23.375  0.00  0.00    +0.015 C 
ATOM     14  C   UNL     1      34.092 -15.014 -25.231  0.00  0.00    +0.000 C 
ATOM     15  C   UNL     1      33.642 -13.796 -24.728  0.00  0.00    +0.001 C 
ATOM     16  H   UNL     1      34.455 -13.631 -20.602  0.00  0.00    +0.152 HD
ENDBRANCH   6   8
ENDBRANCH   1   6
BRANCH   1  17
ATOM     17  C   UNL     1      35.496 -19.545 -20.217  0.00  0.00    +0.184 C 
BRANCH  17  18
ATOM     18  O   UNL     1      35.959 -20.199 -19.042  0.00  0.00    -0.476 OA
BRANCH  18  20
ATOM     19  N   UNL     1      32.765 -21.678 -18.096  0.00  0.00    -0.239 NA
ATOM     20  C   UNL     1      35.040 -20.937 -18.343  0.00  0.00    +0.158 C 
ATOM     21  C   UNL     1      35.422 -21.656 -17.225  0.00  0.00    +0.040 C 
ATOM     22  C   UNL     1      33.722 -20.972 -18.741  0.00  0.00    +0.136 C 
ATOM     23  C   UNL     1      34.466 -22.395 -16.535  0.00  0.00    +0.022 C 
ATOM     24  C   UNL     1      33.164 -22.372 -17.007  0.00  0.00    +0.099 C 
BRANCH  23  25
ATOM     25  C   UNL     1      34.822 -23.164 -15.357  0.00  0.00    +0.002 C 
ATOM     26  C   UNL     1      35.807 -22.846 -14.481  0.00  0.00    +0.000 C 
BRANCH  26  28
ATOM     27  N   UNL     1      36.812 -25.070 -11.002  0.00  0.00    -0.242 NA
ATOM     28  C   UNL     1      36.156 -23.616 -13.274  0.00  0.00    +0.003 C 
ATOM     29  C   UNL     1      35.581 -23.281 -12.065  0.00  0.00    +0.021 C 
ATOM     30  C   UNL     1      37.052 -24.662 -13.373  0.00  0.00    +0.021 C 
ATOM     31  C   UNL     1      35.941 -24.036 -10.961  0.00  0.00    +0.099 C 
ATOM     32  C   UNL     1      37.346 -25.356 -12.211  0.00  0.00    +0.099 C 
ENDBRANCH  26  28
ENDBRANCH  23  25
ENDBRANCH  18  20
ENDBRANCH  17  18
ENDBRANCH   1  17
TORSDOF 8
ENDMDL
MODEL 8
REMARK VINA RESULT:     -10.7      1.763     11.377
REMARK  Name = 6914613
REMARK  8 active torsions:
REMARK  status: ('A' for Active; 'I' for Inactive)
REMARK    1  A    between atoms: C_1  and  N_2
REMARK    2  A    between atoms: C_1  and  C_6
REMARK    3  A    between atoms: C_1  and  C_17
REMARK    4  A    between atoms: C_6  and  C_8
REMARK    5  A    between atoms: C_17  and  O_18
REMARK    6  A    between atoms: O_18  and  C_20
REMARK    7  A    between atoms: C_23  and  C_25
REMARK    8  A    between atoms: C_26  and  C_28
REMARK                            x       y       z     vdW  Elec       q    Type
REMARK                         _______ _______ _______ _____ _____    ______ ____
ROOT
ATOM      1  C   UNL     1      35.155 -18.036 -20.973  0.00  0.00    -0.017 C 
ENDROOT
BRANCH   1   2
ATOM      2  N   UNL     1      36.083 -17.595 -19.925  0.00  0.00    +0.384 N 
ATOM      3  H   UNL     1      35.885 -18.101 -19.061  0.00  0.00    -0.089 HD
ATOM      4  H   UNL     1      35.966 -16.594 -19.766  0.00  0.00    -0.089 HD
ATOM      5  H   UNL     1      37.041 -17.784 -20.219  0.00  0.00    -0.089 HD
ENDBRANCH   1   2
BRANCH   1   6
ATOM      6  C   UNL     1      35.803 -17.810 -22.364  0.00  0.00    +0.009 C 
BRANCH   6   8
ATOM      7  N   UNL     1      33.783 -16.264 -24.984  0.00  0.00    -0.312 N 
ATOM      8  C   UNL     1      35.019 -16.947 -23.271  0.00  0.00    -0.008 C 
ATOM      9  C   UNL     1      34.765 -15.555 -23.109  0.00  0.00    +0.011 C 
ATOM     10  C   UNL     1      33.987 -15.151 -24.197  0.00  0.00    +0.048 C 
ATOM     11  C   UNL     1      34.402 -17.353 -24.432  0.00  0.00    +0.058 C 
ATOM     12  C   UNL     1      35.123 -14.599 -22.140  0.00  0.00    +0.001 C 
ATOM     13  C   UNL     1      33.548 -13.834 -24.363  0.00  0.00    +0.015 C 
ATOM     14  C   UNL     1      34.691 -13.276 -22.293  0.00  0.00    +0.000 C 
ATOM     15  C   UNL     1      33.916 -12.902 -23.388  0.00  0.00    +0.001 C 
ATOM     16  H   UNL     1      33.265 -16.274 -25.821  0.00  0.00    +0.152 HD
ENDBRANCH   6   8
ENDBRANCH   1   6
BRANCH   1  17
ATOM     17  C   UNL     1      34.771 -19.497 -20.704  0.00  0.00    +0.184 C 
BRANCH  17  18
ATOM     18  O   UNL     1      35.657 -20.115 -19.780  0.00  0.00    -0.476 OA
BRANCH  18  20
ATOM     19  N   UNL     1      33.156 -22.022 -17.938  0.00  0.00    -0.239 NA
ATOM     20  C   UNL     1      35.088 -20.865 -18.784  0.00  0.00    +0.158 C 
ATOM     21  C   UNL     1      35.817 -21.210 -17.661  0.00  0.00    +0.040 C 
ATOM     22  C   UNL     1      33.779 -21.282 -18.885  0.00  0.00    +0.136 C 
ATOM     23  C   UNL     1      35.211 -21.970 -16.666  0.00  0.00    +0.022 C 
ATOM     24  C   UNL     1      33.891 -22.346 -16.851  0.00  0.00    +0.099 C 
BRANCH  23  25
ATOM     25  C   UNL     1      35.939 -22.356 -15.471  0.00  0.00    +0.002 C 
ATOM     26  C   UNL     1      35.378 -22.649 -14.272  0.00  0.00    +0.000 C 
BRANCH  26  28
ATOM     27  N   UNL     1      37.506 -23.834 -10.790  0.00  0.00    -0.242 NA
ATOM     28  C   UNL     1      36.116 -23.059 -13.064  0.00  0.00    +0.003 C 
ATOM     29  C   UNL     1      35.416 -23.387 -11.920  0.00  0.00    +0.021 C 
ATOM     30  C   UNL     1      37.496 -23.109 -13.096  0.00  0.00    +0.021 C 
ATOM     31  C   UNL     1      36.155 -23.768 -10.812  0.00  0.00    +0.099 C 
ATOM     32  C   UNL     1      38.142 -23.502 -11.935  0.00  0.00    +0.099 C 
ENDBRANCH  26  28
ENDBRANCH  23  25
ENDBRANCH  18  20
ENDBRANCH  17  18
ENDBRANCH   1  17
TORSDOF 8
ENDMDL
MODEL 9
REMARK VINA RESULT:     -10.7      5.136     13.070
REMARK  Name = 6914613
REMARK  8 active torsions:
REMARK  status: ('A' for Active; 'I' for Inactive)
REMARK    1  A    between atoms: C_1  and  N_2
REMARK    2  A    between atoms: C_1  and  C_6
REMARK    3  A    between atoms: C_1  and  C_17
REMARK    4  A    between atoms: C_6  and  C_8
REMARK    5  A    between atoms: C_17  and  O_18
REMARK    6  A    between atoms: O_18  and  C_20
REMARK    7  A    between atoms: C_23  and  C_25
REMARK    8  A    between atoms: C_26  and  C_28
REMARK                            x       y       z     vdW  Elec       q    Type
REMARK                         _______ _______ _______ _____ _____    ______ ____
ROOT
ATOM      1  C   UNL     1      33.805 -12.079 -23.481  0.00  0.00    -0.017 C 
ENDROOT
BRANCH   1   2
ATOM      2  N   UNL     1      34.832 -12.164 -22.436  0.00  0.00    +0.384 N 
ATOM      3  H   UNL     1      35.630 -11.584 -22.695  0.00  0.00    -0.089 HD
ATOM      4  H   UNL     1      35.135 -13.133 -22.335  0.00  0.00    -0.089 HD
ATOM      5  H   UNL     1      34.445 -11.835 -21.552  0.00  0.00    -0.089 HD
ENDBRANCH   1   2
BRANCH   1   6
ATOM      6  C   UNL     1      34.167 -10.937 -24.467  0.00  0.00    +0.009 C 
BRANCH   6   8
ATOM      7  N   UNL     1      35.430  -7.730 -23.261  0.00  0.00    -0.312 N 
ATOM      8  C   UNL     1      34.440  -9.636 -23.823  0.00  0.00    -0.008 C 
ATOM      9  C   UNL     1      33.618  -8.973 -22.869  0.00  0.00    +0.011 C 
ATOM     10  C   UNL     1      34.261  -7.779 -22.533  0.00  0.00    +0.048 C 
ATOM     11  C   UNL     1      35.546  -8.848 -24.044  0.00  0.00    +0.058 C 
ATOM     12  C   UNL     1      32.385  -9.273 -22.257  0.00  0.00    +0.001 C 
ATOM     13  C   UNL     1      33.732  -6.868 -21.612  0.00  0.00    +0.015 C 
ATOM     14  C   UNL     1      31.843  -8.371 -21.335  0.00  0.00    +0.000 C 
ATOM     15  C   UNL     1      32.507  -7.189 -21.019  0.00  0.00    +0.001 C 
ATOM     16  H   UNL     1      36.086  -6.997 -23.224  0.00  0.00    +0.152 HD
ENDBRANCH   6   8
ENDBRANCH   1   6
BRANCH   1  17
ATOM     17  C   UNL     1      33.675 -13.452 -24.153  0.00  0.00    +0.184 C 
BRANCH  17  18
ATOM     18  O   UNL     1      34.826 -14.258 -23.937  0.00  0.00    -0.476 OA
BRANCH  18  20
ATOM     19  N   UNL     1      33.822 -17.559 -25.110  0.00  0.00    -0.239 NA
ATOM     20  C   UNL     1      34.642 -15.616 -23.954  0.00  0.00    +0.158 C 
ATOM     21  C   UNL     1      35.059 -16.394 -22.890  0.00  0.00    +0.040 C 
ATOM     22  C   UNL     1      34.036 -16.226 -25.031  0.00  0.00    +0.136 C 
ATOM     23  C   UNL     1      34.856 -17.770 -22.936  0.00  0.00    +0.022 C 
ATOM     24  C   UNL     1      34.239 -18.297 -24.058  0.00  0.00    +0.099 C 
BRANCH  23  25
ATOM     25  C   UNL     1      35.278 -18.625 -21.842  0.00  0.00    +0.002 C 
ATOM     26  C   UNL     1      34.472 -19.095 -20.858  0.00  0.00    +0.000 C 
BRANCH  26  28
ATOM     27  N   UNL     1      35.694 -21.641 -17.683  0.00  0.00    -0.242 NA
ATOM     28  C   UNL     1      34.896 -19.978 -19.758  0.00  0.00    +0.003 C 
ATOM     29  C   UNL     1      36.230 -20.031 -19.406  0.00  0.00    +0.021 C 
ATOM     30  C   UNL     1      33.952 -20.739 -19.096  0.00  0.00    +0.021 C 
ATOM     31  C   UNL     1      36.577 -20.876 -18.364  0.00  0.00    +0.099 C 
ATOM     32  C   UNL     1      34.401 -21.552 -18.068  0.00  0.00    +0.099 C 
ENDBRANCH  26  28
ENDBRANCH  23  25
ENDBRANCH  18  20
ENDBRANCH  17  18
ENDBRANCH   1  17
TORSDOF 8
ENDMDL
