MODEL 1
REMARK VINA RESULT:     -11.8      0.000      0.000
REMARK  Name = 58507717
REMARK  2 active torsions:
REMARK  status: ('A' for Active; 'I' for Inactive)
REMARK    1  A    between atoms: C_18  and  C_21
REMARK    2  A    between atoms: C_22  and  C_31
REMARK                            x       y       z     vdW  Elec       q    Type
REMARK                         _______ _______ _______ _____ _____    ______ ____
ROOT
ATOM      1  O   UNL     1      39.095 -25.806 -12.638  0.00  0.00    -0.350 OA
ATOM      2  O   UNL     1      29.900 -23.658 -13.798  0.00  0.00    -0.350 OA
ATOM      3  N   UNL     1      37.119 -24.220 -13.855  0.00  0.00    -0.228 N 
ATOM      4  N   UNL     1      32.602 -23.182 -14.405  0.00  0.00    -0.228 N 
ATOM      5  N   UNL     1      34.851 -23.724 -14.100  0.00  0.00    -0.246 NA
ATOM      6  N   UNL     1      34.167 -22.240 -15.857  0.00  0.00    -0.260 NA
ATOM      7  N   UNL     1      36.490 -22.772 -15.573  0.00  0.00    -0.260 NA
ATOM      8  C   UNL     1      36.781 -25.081 -12.716  0.00  0.00    +0.135 C 
ATOM      9  C   UNL     1      38.319 -24.617 -14.605  0.00  0.00    +0.135 C 
ATOM     10  C   UNL     1      31.544 -22.469 -15.129  0.00  0.00    +0.135 C 
ATOM     11  C   UNL     1      32.193 -24.450 -13.786  0.00  0.00    +0.135 C 
ATOM     12  C   UNL     1      38.017 -25.300 -11.852  0.00  0.00    +0.164 C 
ATOM     13  C   UNL     1      39.473 -24.861 -13.639  0.00  0.00    +0.164 C 
ATOM     14  C   UNL     1      30.916 -24.239 -12.980  0.00  0.00    +0.164 C 
ATOM     15  C   UNL     1      30.300 -22.365 -14.251  0.00  0.00    +0.164 C 
ATOM     16  C   UNL     1      36.107 -23.541 -14.540  0.00  0.00    +0.224 C 
ATOM     17  C   UNL     1      33.935 -23.042 -14.806  0.00  0.00    +0.224 C 
ATOM     18  C   UNL     1      35.467 -22.153 -16.183  0.00  0.00    +0.164 C 
ENDROOT
BRANCH  18  21
ATOM     19  N   UNL     1      37.362 -19.764 -18.304  0.00  0.00    -0.229 NA
ATOM     20  N   UNL     1      36.884 -18.832 -20.443  0.00  0.00    -0.343 N 
ATOM     21  C   UNL     1      35.797 -21.310 -17.303  0.00  0.00    +0.110 C 
ATOM     22  C   UNL     1      34.963 -21.192 -18.410  0.00  0.00    +0.087 C 
ATOM     23  C   UNL     1      36.974 -20.580 -17.299  0.00  0.00    +0.112 C 
ATOM     24  C   UNL     1      35.328 -20.362 -19.463  0.00  0.00    +0.038 C 
ATOM     25  C   UNL     1      36.528 -19.675 -19.363  0.00  0.00    +0.125 C 
ATOM     26  H   UNL     1      37.728 -18.325 -20.414  0.00  0.00    +0.144 HD
ATOM     27  H   UNL     1      36.290 -18.752 -21.224  0.00  0.00    +0.144 HD
BRANCH  22  31
ATOM     28  F   UNL     1      33.085 -21.826 -19.724  0.00  0.00    -0.166 F 
ATOM     29  F   UNL     1      33.801 -23.279 -18.274  0.00  0.00    -0.166 F 
ATOM     30  F   UNL     1      32.735 -21.514 -17.602  0.00  0.00    -0.166 F 
ATOM     31  C   UNL     1      33.671 -21.939 -18.498  0.00  0.00    +0.419 C 
ENDBRANCH  22  31
ENDBRANCH  18  21
TORSDOF 2
ENDMDL
MODEL 2
REMARK VINA RESULT:     -11.8      3.068      6.796
REMARK  Name = 58507717
REMARK  2 active torsions:
REMARK  status: ('A' for Active; 'I' for Inactive)
REMARK    1  A    between atoms: C_18  and  C_21
REMARK    2  A    between atoms: C_22  and  C_31
REMARK                            x       y       z     vdW  Elec       q    Type
REMARK                         _______ _______ _______ _____ _____    ______ ____
ROOT
ATOM      1  O   UNL     1      28.778 -23.524 -14.629  0.00  0.00    -0.350 OA
ATOM      2  O   UNL     1      34.955 -19.642 -20.735  0.00  0.00    -0.350 OA
ATOM      3  N   UNL     1      31.439 -23.001 -15.369  0.00  0.00    -0.228 N 
ATOM      4  N   UNL     1      34.450 -21.086 -18.377  0.00  0.00    -0.228 N 
ATOM      5  N   UNL     1      32.915 -22.025 -16.891  0.00  0.00    -0.246 NA
ATOM      6  N   UNL     1      35.255 -22.528 -16.730  0.00  0.00    -0.260 NA
ATOM      7  N   UNL     1      33.708 -23.512 -15.183  0.00  0.00    -0.260 NA
ATOM      8  C   UNL     1      30.333 -22.299 -16.031  0.00  0.00    +0.135 C 
ATOM      9  C   UNL     1      31.080 -24.280 -14.741  0.00  0.00    +0.135 C 
ATOM     10  C   UNL     1      35.823 -20.919 -18.865  0.00  0.00    +0.135 C 
ATOM     11  C   UNL     1      33.403 -20.939 -19.397  0.00  0.00    +0.135 C 
ATOM     12  C   UNL     1      29.136 -22.223 -15.091  0.00  0.00    +0.164 C 
ATOM     13  C   UNL     1      29.843 -24.098 -13.870  0.00  0.00    +0.164 C 
ATOM     14  C   UNL     1      33.634 -19.659 -20.193  0.00  0.00    +0.164 C 
ATOM     15  C   UNL     1      35.926 -19.641 -19.690  0.00  0.00    +0.164 C 
ATOM     16  C   UNL     1      32.747 -22.838 -15.836  0.00  0.00    +0.224 C 
ATOM     17  C   UNL     1      34.195 -21.918 -17.282  0.00  0.00    +0.224 C 
ATOM     18  C   UNL     1      34.935 -23.309 -15.685  0.00  0.00    +0.164 C 
ENDROOT
BRANCH  18  21
ATOM     19  N   UNL     1      37.047 -26.114 -14.473  0.00  0.00    -0.229 NA
ATOM     20  N   UNL     1      39.072 -26.136 -13.220  0.00  0.00    -0.343 N 
ATOM     21  C   UNL     1      36.022 -24.000 -15.039  0.00  0.00    +0.110 C 
ATOM     22  C   UNL     1      37.043 -23.321 -14.385  0.00  0.00    +0.087 C 
ATOM     23  C   UNL     1      36.069 -25.384 -15.054  0.00  0.00    +0.112 C 
ATOM     24  C   UNL     1      38.067 -24.037 -13.775  0.00  0.00    +0.038 C 
ATOM     25  C   UNL     1      38.023 -25.420 -13.847  0.00  0.00    +0.125 C 
ATOM     26  H   UNL     1      39.081 -27.120 -13.246  0.00  0.00    +0.144 HD
ATOM     27  H   UNL     1      39.793 -25.650 -12.757  0.00  0.00    +0.144 HD
BRANCH  22  31
ATOM     28  F   UNL     1      37.737 -21.368 -13.218  0.00  0.00    -0.166 F 
ATOM     29  F   UNL     1      37.682 -21.245 -15.388  0.00  0.00    -0.166 F 
ATOM     30  F   UNL     1      35.831 -21.263 -14.258  0.00  0.00    -0.166 F 
ATOM     31  C   UNL     1      37.071 -21.828 -14.316  0.00  0.00    +0.419 C 
ENDBRANCH  22  31
ENDBRANCH  18  21
TORSDOF 2
ENDMDL
MODEL 3
REMARK VINA RESULT:     -10.9      3.053      5.970
REMARK  Name = 58507717
REMARK  2 active torsions:
REMARK  status: ('A' for Active; 'I' for Inactive)
REMARK    1  A    between atoms: C_18  and  C_21
REMARK    2  A    between atoms: C_22  and  C_31
REMARK                            x       y       z     vdW  Elec       q    Type
REMARK                         _______ _______ _______ _____ _____    ______ ____
ROOT
ATOM      1  O   UNL     1      34.912 -19.227 -20.347  0.00  0.00    -0.350 OA
ATOM      2  O   UNL     1      28.798 -23.440 -14.398  0.00  0.00    -0.350 OA
ATOM      3  N   UNL     1      34.408 -21.159 -18.369  0.00  0.00    -0.228 N 
ATOM      4  N   UNL     1      31.390 -23.213 -15.461  0.00  0.00    -0.228 N 
ATOM      5  N   UNL     1      32.870 -22.168 -16.932  0.00  0.00    -0.246 NA
ATOM      6  N   UNL     1      33.669 -23.657 -15.229  0.00  0.00    -0.260 NA
ATOM      7  N   UNL     1      35.221 -22.602 -16.725  0.00  0.00    -0.260 NA
ATOM      8  C   UNL     1      33.296 -20.480 -19.041  0.00  0.00    +0.135 C 
ATOM      9  C   UNL     1      35.689 -20.438 -18.394  0.00  0.00    +0.135 C 
ATOM     10  C   UNL     1      31.129 -24.111 -14.330  0.00  0.00    +0.135 C 
ATOM     11  C   UNL     1      30.420 -22.123 -15.631  0.00  0.00    +0.135 C 
ATOM     12  C   UNL     1      33.733 -20.026 -20.429  0.00  0.00    +0.164 C 
ATOM     13  C   UNL     1      35.998 -19.988 -19.817  0.00  0.00    +0.164 C 
ATOM     14  C   UNL     1      29.003 -22.685 -15.593  0.00  0.00    +0.164 C 
ATOM     15  C   UNL     1      29.674 -24.566 -14.360  0.00  0.00    +0.164 C 
ATOM     16  C   UNL     1      34.155 -22.016 -17.293  0.00  0.00    +0.224 C 
ATOM     17  C   UNL     1      32.704 -23.003 -15.894  0.00  0.00    +0.224 C 
ATOM     18  C   UNL     1      34.902 -23.408 -15.700  0.00  0.00    +0.164 C 
ENDROOT
BRANCH  18  21
ATOM     19  N   UNL     1      37.068 -26.163 -14.469  0.00  0.00    -0.229 NA
ATOM     20  N   UNL     1      39.064 -26.139 -13.169  0.00  0.00    -0.343 N 
ATOM     21  C   UNL     1      35.993 -24.073 -15.036  0.00  0.00    +0.110 C 
ATOM     22  C   UNL     1      36.979 -23.372 -14.351  0.00  0.00    +0.087 C 
ATOM     23  C   UNL     1      36.082 -25.455 -15.065  0.00  0.00    +0.112 C 
ATOM     24  C   UNL     1      38.009 -24.065 -13.725  0.00  0.00    +0.038 C 
ATOM     25  C   UNL     1      38.009 -25.448 -13.814  0.00  0.00    +0.125 C 
ATOM     26  H   UNL     1      39.103 -27.122 -13.206  0.00  0.00    +0.144 HD
ATOM     27  H   UNL     1      39.759 -25.637 -12.685  0.00  0.00    +0.144 HD
BRANCH  22  31
ATOM     28  F   UNL     1      37.635 -21.411 -13.176  0.00  0.00    -0.166 F 
ATOM     29  F   UNL     1      37.527 -21.266 -15.343  0.00  0.00    -0.166 F 
ATOM     30  F   UNL     1      35.704 -21.356 -14.172  0.00  0.00    -0.166 F 
ATOM     31  C   UNL     1      36.960 -21.879 -14.264  0.00  0.00    +0.419 C 
ENDBRANCH  22  31
ENDBRANCH  18  21
TORSDOF 2
ENDMDL
MODEL 4
REMARK VINA RESULT:     -10.9      1.884      2.281
REMARK  Name = 58507717
REMARK  2 active torsions:
REMARK  status: ('A' for Active; 'I' for Inactive)
REMARK    1  A    between atoms: C_18  and  C_21
REMARK    2  A    between atoms: C_22  and  C_31
REMARK                            x       y       z     vdW  Elec       q    Type
REMARK                         _______ _______ _______ _____ _____    ______ ____
ROOT
ATOM      1  O   UNL     1      38.706 -25.772 -12.506  0.00  0.00    -0.350 OA
ATOM      2  O   UNL     1      29.469 -23.800 -13.643  0.00  0.00    -0.350 OA
ATOM      3  N   UNL     1      36.692 -24.300 -13.800  0.00  0.00    -0.228 N 
ATOM      4  N   UNL     1      32.154 -23.348 -14.338  0.00  0.00    -0.228 N 
ATOM      5  N   UNL     1      34.414 -23.845 -14.037  0.00  0.00    -0.246 NA
ATOM      6  N   UNL     1      33.681 -22.504 -15.887  0.00  0.00    -0.260 NA
ATOM      7  N   UNL     1      36.015 -22.993 -15.610  0.00  0.00    -0.260 NA
ATOM      8  C   UNL     1      36.384 -25.076 -12.593  0.00  0.00    +0.135 C 
ATOM      9  C   UNL     1      37.881 -24.743 -14.541  0.00  0.00    +0.135 C 
ATOM     10  C   UNL     1      31.075 -22.702 -15.092  0.00  0.00    +0.135 C 
ATOM     11  C   UNL     1      31.770 -24.569 -13.617  0.00  0.00    +0.135 C 
ATOM     12  C   UNL     1      37.639 -25.218 -11.739  0.00  0.00    +0.164 C 
ATOM     13  C   UNL     1      39.056 -24.902 -13.583  0.00  0.00    +0.164 C 
ATOM     14  C   UNL     1      30.506 -24.309 -12.804  0.00  0.00    +0.164 C 
ATOM     15  C   UNL     1      29.847 -22.543 -14.201  0.00  0.00    +0.164 C 
ATOM     16  C   UNL     1      35.660 -23.684 -14.515  0.00  0.00    +0.224 C 
ATOM     17  C   UNL     1      33.478 -23.227 -14.775  0.00  0.00    +0.224 C 
ATOM     18  C   UNL     1      34.974 -22.431 -16.245  0.00  0.00    +0.164 C 
ENDROOT
BRANCH  18  21
ATOM     19  N   UNL     1      34.602 -21.017 -19.659  0.00  0.00    -0.229 NA
ATOM     20  N   UNL     1      35.994 -19.553 -20.920  0.00  0.00    -0.343 N 
ATOM     21  C   UNL     1      35.273 -21.672 -17.432  0.00  0.00    +0.110 C 
ATOM     22  C   UNL     1      36.427 -20.905 -17.546  0.00  0.00    +0.087 C 
ATOM     23  C   UNL     1      34.401 -21.695 -18.507  0.00  0.00    +0.112 C 
ATOM     24  C   UNL     1      36.669 -20.193 -18.716  0.00  0.00    +0.038 C 
ATOM     25  C   UNL     1      35.733 -20.281 -19.734  0.00  0.00    +0.125 C 
ATOM     26  H   UNL     1      35.356 -19.586 -21.669  0.00  0.00    +0.144 HD
ATOM     27  H   UNL     1      36.813 -19.011 -20.996  0.00  0.00    +0.144 HD
BRANCH  22  31
ATOM     28  F   UNL     1      38.197 -19.701 -16.508  0.00  0.00    -0.166 F 
ATOM     29  F   UNL     1      36.860 -20.805 -15.196  0.00  0.00    -0.166 F 
ATOM     30  F   UNL     1      38.302 -21.871 -16.417  0.00  0.00    -0.166 F 
ATOM     31  C   UNL     1      37.427 -20.825 -16.437  0.00  0.00    +0.419 C 
ENDBRANCH  22  31
ENDBRANCH  18  21
TORSDOF 2
ENDMDL
MODEL 5
REMARK VINA RESULT:     -10.1      2.930      5.915
REMARK  Name = 58507717
REMARK  2 active torsions:
REMARK  status: ('A' for Active; 'I' for Inactive)
REMARK    1  A    between atoms: C_18  and  C_21
REMARK    2  A    between atoms: C_22  and  C_31
REMARK                            x       y       z     vdW  Elec       q    Type
REMARK                         _______ _______ _______ _____ _____    ______ ____
ROOT
ATOM      1  O   UNL     1      35.933 -20.300 -19.961  0.00  0.00    -0.350 OA
ATOM      2  O   UNL     1      28.720 -23.678 -14.757  0.00  0.00    -0.350 OA
ATOM      3  N   UNL     1      35.037 -21.716 -17.704  0.00  0.00    -0.228 N 
ATOM      4  N   UNL     1      31.483 -23.366 -15.169  0.00  0.00    -0.228 N 
ATOM      5  N   UNL     1      33.235 -22.533 -16.465  0.00  0.00    -0.246 NA
ATOM      6  N   UNL     1      33.634 -23.410 -14.268  0.00  0.00    -0.260 NA
ATOM      7  N   UNL     1      35.463 -22.563 -15.571  0.00  0.00    -0.260 NA
ATOM      8  C   UNL     1      34.109 -21.394 -18.793  0.00  0.00    +0.135 C 
ATOM      9  C   UNL     1      36.223 -20.852 -17.616  0.00  0.00    +0.135 C 
ATOM     10  C   UNL     1      30.982 -23.974 -13.931  0.00  0.00    +0.135 C 
ATOM     11  C   UNL     1      30.525 -22.504 -15.874  0.00  0.00    +0.135 C 
ATOM     12  C   UNL     1      34.879 -21.252 -20.101  0.00  0.00    +0.164 C 
ATOM     13  C   UNL     1      36.880 -20.740 -18.987  0.00  0.00    +0.164 C 
ATOM     14  C   UNL     1      29.194 -23.232 -16.028  0.00  0.00    +0.164 C 
ATOM     15  C   UNL     1      29.626 -24.622 -14.188  0.00  0.00    +0.164 C 
ATOM     16  C   UNL     1      34.556 -22.297 -16.526  0.00  0.00    +0.224 C 
ATOM     17  C   UNL     1      32.847 -23.090 -15.307  0.00  0.00    +0.224 C 
ATOM     18  C   UNL     1      34.929 -23.118 -14.471  0.00  0.00    +0.164 C 
ENDROOT
BRANCH  18  21
ATOM     19  N   UNL     1      36.796 -22.779 -11.278  0.00  0.00    -0.229 NA
ATOM     20  N   UNL     1      38.416 -24.184 -10.241  0.00  0.00    -0.343 N 
ATOM     21  C   UNL     1      35.838 -23.431 -13.399  0.00  0.00    +0.110 C 
ATOM     22  C   UNL     1      36.610 -24.588 -13.400  0.00  0.00    +0.087 C 
ATOM     23  C   UNL     1      35.968 -22.566 -12.325  0.00  0.00    +0.112 C 
ATOM     24  C   UNL     1      37.474 -24.841 -12.340  0.00  0.00    +0.038 C 
ATOM     25  C   UNL     1      37.529 -23.913 -11.313  0.00  0.00    +0.125 C 
ATOM     26  H   UNL     1      38.487 -23.552  -9.490  0.00  0.00    +0.144 HD
ATOM     27  H   UNL     1      38.960 -25.005 -10.247  0.00  0.00    +0.144 HD
BRANCH  22  31
ATOM     28  F   UNL     1      37.571 -25.442 -15.400  0.00  0.00    -0.166 F 
ATOM     29  F   UNL     1      36.574 -26.874 -14.103  0.00  0.00    -0.166 F 
ATOM     30  F   UNL     1      35.402 -25.468 -15.267  0.00  0.00    -0.166 F 
ATOM     31  C   UNL     1      36.538 -25.576 -14.520  0.00  0.00    +0.419 C 
ENDBRANCH  22  31
ENDBRANCH  18  21
TORSDOF 2
ENDMDL
MODEL 6
REMARK VINA RESULT:     -10.1      2.909      6.927
REMARK  Name = 58507717
REMARK  2 active torsions:
REMARK  status: ('A' for Active; 'I' for Inactive)
REMARK    1  A    between atoms: C_18  and  C_21
REMARK    2  A    between atoms: C_22  and  C_31
REMARK                            x       y       z     vdW  Elec       q    Type
REMARK                         _______ _______ _______ _____ _____    ______ ____
ROOT
ATOM      1  O   UNL     1      28.825 -24.161 -14.864  0.00  0.00    -0.350 OA
ATOM      2  O   UNL     1      35.946 -20.575 -20.054  0.00  0.00    -0.350 OA
ATOM      3  N   UNL     1      31.502 -23.324 -15.040  0.00  0.00    -0.228 N 
ATOM      4  N   UNL     1      34.979 -21.561 -17.606  0.00  0.00    -0.228 N 
ATOM      5  N   UNL     1      33.216 -22.434 -16.352  0.00  0.00    -0.246 NA
ATOM      6  N   UNL     1      35.460 -22.453 -15.505  0.00  0.00    -0.260 NA
ATOM      7  N   UNL     1      33.672 -23.359 -14.184  0.00  0.00    -0.260 NA
ATOM      8  C   UNL     1      30.549 -22.992 -16.105  0.00  0.00    +0.135 C 
ATOM      9  C   UNL     1      31.140 -24.487 -14.218  0.00  0.00    +0.135 C 
ATOM     10  C   UNL     1      36.404 -21.250 -17.770  0.00  0.00    +0.135 C 
ATOM     11  C   UNL     1      34.250 -21.827 -18.853  0.00  0.00    +0.135 C 
ATOM     12  C   UNL     1      29.137 -22.942 -15.536  0.00  0.00    +0.164 C 
ATOM     13  C   UNL     1      29.696 -24.357 -13.749  0.00  0.00    +0.164 C 
ATOM     14  C   UNL     1      34.538 -20.722 -19.863  0.00  0.00    +0.164 C 
ATOM     15  C   UNL     1      36.578 -20.177 -18.839  0.00  0.00    +0.164 C 
ATOM     16  C   UNL     1      32.859 -23.025 -15.200  0.00  0.00    +0.224 C 
ATOM     17  C   UNL     1      34.531 -22.178 -16.433  0.00  0.00    +0.224 C 
ATOM     18  C   UNL     1      34.958 -23.043 -14.407  0.00  0.00    +0.164 C 
ENDROOT
BRANCH  18  21
ATOM     19  N   UNL     1      36.906 -22.749 -11.259  0.00  0.00    -0.229 NA
ATOM     20  N   UNL     1      38.554 -24.167 -10.286  0.00  0.00    -0.343 N 
ATOM     21  C   UNL     1      35.895 -23.371 -13.364  0.00  0.00    +0.110 C 
ATOM     22  C   UNL     1      36.668 -24.526 -13.403  0.00  0.00    +0.087 C 
ATOM     23  C   UNL     1      36.050 -22.523 -12.281  0.00  0.00    +0.112 C 
ATOM     24  C   UNL     1      37.560 -24.793 -12.370  0.00  0.00    +0.038 C 
ATOM     25  C   UNL     1      37.640 -23.881 -11.330  0.00  0.00    +0.125 C 
ATOM     26  H   UNL     1      38.644 -23.546  -9.527  0.00  0.00    +0.144 HD
ATOM     27  H   UNL     1      39.100 -24.986 -10.319  0.00  0.00    +0.144 HD
BRANCH  22  31
ATOM     28  F   UNL     1      37.599 -25.372 -15.420  0.00  0.00    -0.166 F 
ATOM     29  F   UNL     1      36.581 -26.801 -14.137  0.00  0.00    -0.166 F 
ATOM     30  F   UNL     1      35.431 -25.355 -15.274  0.00  0.00    -0.166 F 
ATOM     31  C   UNL     1      36.569 -25.496 -14.536  0.00  0.00    +0.419 C 
ENDBRANCH  22  31
ENDBRANCH  18  21
TORSDOF 2
ENDMDL
MODEL 7
REMARK VINA RESULT:      -9.7      3.040      6.588
REMARK  Name = 58507717
REMARK  2 active torsions:
REMARK  status: ('A' for Active; 'I' for Inactive)
REMARK    1  A    between atoms: C_18  and  C_21
REMARK    2  A    between atoms: C_22  and  C_31
REMARK                            x       y       z     vdW  Elec       q    Type
REMARK                         _______ _______ _______ _____ _____    ______ ____
ROOT
ATOM      1  O   UNL     1      36.393 -20.054 -20.415  0.00  0.00    -0.350 OA
ATOM      2  O   UNL     1      37.618 -24.948 -12.349  0.00  0.00    -0.350 OA
ATOM      3  N   UNL     1      35.314 -21.123 -18.050  0.00  0.00    -0.228 N 
ATOM      4  N   UNL     1      35.939 -23.525 -14.097  0.00  0.00    -0.228 N 
ATOM      5  N   UNL     1      35.665 -22.323 -16.079  0.00  0.00    -0.246 NA
ATOM      6  N   UNL     1      33.767 -23.042 -14.799  0.00  0.00    -0.260 NA
ATOM      7  N   UNL     1      33.445 -21.806 -16.831  0.00  0.00    -0.260 NA
ATOM      8  C   UNL     1      36.767 -21.054 -18.237  0.00  0.00    +0.135 C 
ATOM      9  C   UNL     1      34.524 -21.113 -19.289  0.00  0.00    +0.135 C 
ATOM     10  C   UNL     1      35.379 -24.215 -12.930  0.00  0.00    +0.135 C 
ATOM     11  C   UNL     1      37.235 -24.036 -14.564  0.00  0.00    +0.135 C 
ATOM     12  C   UNL     1      37.111 -19.915 -19.189  0.00  0.00    +0.164 C 
ATOM     13  C   UNL     1      34.986 -19.970 -20.186  0.00  0.00    +0.164 C 
ATOM     14  C   UNL     1      38.196 -24.154 -13.386  0.00  0.00    +0.164 C 
ATOM     15  C   UNL     1      36.439 -24.325 -11.839  0.00  0.00    +0.164 C 
ATOM     16  C   UNL     1      34.784 -21.781 -16.936  0.00  0.00    +0.224 C 
ATOM     17  C   UNL     1      35.084 -22.936 -15.035  0.00  0.00    +0.224 C 
ATOM     18  C   UNL     1      33.009 -22.454 -15.739  0.00  0.00    +0.164 C 
ENDROOT
BRANCH  18  21
ATOM     19  N   UNL     1      29.385 -22.012 -16.422  0.00  0.00    -0.229 NA
ATOM     20  N   UNL     1      27.457 -22.645 -15.175  0.00  0.00    -0.343 N 
ATOM     21  C   UNL     1      31.582 -22.526 -15.557  0.00  0.00    +0.110 C 
ATOM     22  C   UNL     1      31.011 -23.120 -14.437  0.00  0.00    +0.087 C 
ATOM     23  C   UNL     1      30.734 -21.991 -16.511  0.00  0.00    +0.112 C 
ATOM     24  C   UNL     1      29.627 -23.160 -14.309  0.00  0.00    +0.038 C 
ATOM     25  C   UNL     1      28.865 -22.598 -15.321  0.00  0.00    +0.125 C 
ATOM     26  H   UNL     1      26.877 -22.257 -15.869  0.00  0.00    +0.144 HD
ATOM     27  H   UNL     1      27.057 -23.066 -14.379  0.00  0.00    +0.144 HD
BRANCH  22  31
ATOM     28  F   UNL     1      31.101 -24.240 -12.341  0.00  0.00    -0.166 F 
ATOM     29  F   UNL     1      32.647 -24.739 -13.787  0.00  0.00    -0.166 F 
ATOM     30  F   UNL     1      32.696 -22.826 -12.766  0.00  0.00    -0.166 F 
ATOM     31  C   UNL     1      31.851 -23.719 -13.354  0.00  0.00    +0.419 C 
ENDBRANCH  22  31
ENDBRANCH  18  21
TORSDOF 2
ENDMDL
MODEL 8
REMARK VINA RESULT:      -9.6     11.107     14.615
REMARK  Name = 58507717
REMARK  2 active torsions:
REMARK  status: ('A' for Active; 'I' for Inactive)
REMARK    1  A    between atoms: C_18  and  C_21
REMARK    2  A    between atoms: C_22  and  C_31
REMARK                            x       y       z     vdW  Elec       q    Type
REMARK                         _______ _______ _______ _____ _____    ______ ____
ROOT
ATOM      1  O   UNL     1      30.676  -9.678 -18.527  0.00  0.00    -0.350 OA
ATOM      2  O   UNL     1      35.764  -7.024 -26.115  0.00  0.00    -0.350 OA
ATOM      3  N   UNL     1      32.340 -10.372 -20.683  0.00  0.00    -0.228 N 
ATOM      4  N   UNL     1      34.832  -9.046 -24.400  0.00  0.00    -0.228 N 
ATOM      5  N   UNL     1      33.582  -9.672 -22.531  0.00  0.00    -0.246 NA
ATOM      6  N   UNL     1      34.433 -11.319 -24.055  0.00  0.00    -0.260 NA
ATOM      7  N   UNL     1      33.152 -12.001 -22.143  0.00  0.00    -0.260 NA
ATOM      8  C   UNL     1      32.190  -8.968 -20.284  0.00  0.00    +0.135 C 
ATOM      9  C   UNL     1      31.239 -11.258 -20.279  0.00  0.00    +0.135 C 
ATOM     10  C   UNL     1      35.583  -9.390 -25.612  0.00  0.00    +0.135 C 
ATOM     11  C   UNL     1      34.177  -7.731 -24.422  0.00  0.00    +0.135 C 
ATOM     12  C   UNL     1      31.831  -8.888 -18.805  0.00  0.00    +0.164 C 
ATOM     13  C   UNL     1      30.931 -11.056 -18.800  0.00  0.00    +0.164 C 
ATOM     14  C   UNL     1      35.175  -6.667 -24.864  0.00  0.00    +0.164 C 
ATOM     15  C   UNL     1      36.505  -8.237 -25.992  0.00  0.00    +0.164 C 
ATOM     16  C   UNL     1      33.058 -10.696 -21.838  0.00  0.00    +0.224 C 
ATOM     17  C   UNL     1      34.256 -10.059 -23.626  0.00  0.00    +0.224 C 
ATOM     18  C   UNL     1      33.853 -12.236 -23.263  0.00  0.00    +0.164 C 
ENDROOT
BRANCH  18  21
ATOM     19  N   UNL     1      33.820 -15.263 -25.416  0.00  0.00    -0.229 NA
ATOM     20  N   UNL     1      34.357 -17.536 -24.949  0.00  0.00    -0.343 N 
ATOM     21  C   UNL     1      33.999 -13.614 -23.658  0.00  0.00    +0.110 C 
ATOM     22  C   UNL     1      34.418 -14.597 -22.768  0.00  0.00    +0.087 C 
ATOM     23  C   UNL     1      33.714 -13.995 -24.959  0.00  0.00    +0.112 C 
ATOM     24  C   UNL     1      34.539 -15.912 -23.202  0.00  0.00    +0.038 C 
ATOM     25  C   UNL     1      34.231 -16.191 -24.524  0.00  0.00    +0.125 C 
ATOM     26  H   UNL     1      34.149 -17.779 -25.880  0.00  0.00    +0.144 HD
ATOM     27  H   UNL     1      34.654 -18.228 -24.315  0.00  0.00    +0.144 HD
BRANCH  22  31
ATOM     28  F   UNL     1      35.457 -15.266 -20.737  0.00  0.00    -0.166 F 
ATOM     29  F   UNL     1      35.487 -13.142 -21.199  0.00  0.00    -0.166 F 
ATOM     30  F   UNL     1      33.640 -14.085 -20.565  0.00  0.00    -0.166 F 
ATOM     31  C   UNL     1      34.743 -14.276 -21.345  0.00  0.00    +0.419 C 
ENDBRANCH  22  31
ENDBRANCH  18  21
TORSDOF 2
ENDMDL
MODEL 9
REMARK VINA RESULT:      -9.6     11.188     14.393
REMARK  Name = 58507717
REMARK  2 active torsions:
REMARK  status: ('A' for Active; 'I' for Inactive)
REMARK    1  A    between atoms: C_18  and  C_21
REMARK    2  A    between atoms: C_22  and  C_31
REMARK                            x       y       z     vdW  Elec       q    Type
REMARK                         _______ _______ _______ _____ _____    ______ ____
ROOT
ATOM      1  O   UNL     1      36.080  -6.845 -25.754  0.00  0.00    -0.350 OA
ATOM      2  O   UNL     1      30.938  -9.725 -18.286  0.00  0.00    -0.350 OA
ATOM      3  N   UNL     1      34.720  -8.902 -24.407  0.00  0.00    -0.228 N 
ATOM      4  N   UNL     1      32.196 -10.292 -20.735  0.00  0.00    -0.228 N 
ATOM      5  N   UNL     1      33.453  -9.560 -22.559  0.00  0.00    -0.246 NA
ATOM      6  N   UNL     1      33.061 -11.898 -22.189  0.00  0.00    -0.260 NA
ATOM      7  N   UNL     1      34.358 -11.184 -24.078  0.00  0.00    -0.260 NA
ATOM      8  C   UNL     1      34.541  -7.505 -23.999  0.00  0.00    +0.135 C 
ATOM      9  C   UNL     1      35.965  -9.187 -25.134  0.00  0.00    +0.135 C 
ATOM     10  C   UNL     1      31.602 -11.372 -19.940  0.00  0.00    +0.135 C 
ATOM     11  C   UNL     1      32.550  -9.082 -19.981  0.00  0.00    +0.135 C 
ATOM     12  C   UNL     1      34.797  -6.585 -25.187  0.00  0.00    +0.164 C 
ATOM     13  C   UNL     1      36.144  -8.178 -26.262  0.00  0.00    +0.164 C 
ATOM     14  C   UNL     1      31.369  -8.648 -19.119  0.00  0.00    +0.164 C 
ATOM     15  C   UNL     1      30.472 -10.817 -19.079  0.00  0.00    +0.164 C 
ATOM     16  C   UNL     1      34.151  -9.929 -23.647  0.00  0.00    +0.224 C 
ATOM     17  C   UNL     1      32.938 -10.598 -21.881  0.00  0.00    +0.224 C 
ATOM     18  C   UNL     1      33.784 -12.115 -23.301  0.00  0.00    +0.164 C 
ENDROOT
BRANCH  18  21
ATOM     19  N   UNL     1      33.832 -15.137 -25.459  0.00  0.00    -0.229 NA
ATOM     20  N   UNL     1      34.414 -17.400 -24.992  0.00  0.00    -0.343 N 
ATOM     21  C   UNL     1      33.962 -13.488 -23.697  0.00  0.00    +0.110 C 
ATOM     22  C   UNL     1      34.395 -14.464 -22.806  0.00  0.00    +0.087 C 
ATOM     23  C   UNL     1      33.696 -13.873 -25.000  0.00  0.00    +0.112 C 
ATOM     24  C   UNL     1      34.547 -15.776 -23.240  0.00  0.00    +0.038 C 
ATOM     25  C   UNL     1      34.256 -16.058 -24.565  0.00  0.00    +0.125 C 
ATOM     26  H   UNL     1      34.219 -17.645 -25.925  0.00  0.00    +0.144 HD
ATOM     27  H   UNL     1      34.721 -18.086 -24.357  0.00  0.00    +0.144 HD
BRANCH  22  31
ATOM     28  F   UNL     1      35.432 -15.114 -20.767  0.00  0.00    -0.166 F 
ATOM     29  F   UNL     1      35.419 -12.989 -21.225  0.00  0.00    -0.166 F 
ATOM     30  F   UNL     1      33.588 -13.975 -20.608  0.00  0.00    -0.166 F 
ATOM     31  C   UNL     1      34.701 -14.139 -21.379  0.00  0.00    +0.419 C 
ENDBRANCH  22  31
ENDBRANCH  18  21
TORSDOF 2
ENDMDL
