MODEL 1
REMARK VINA RESULT:     -13.1      0.000      0.000
REMARK  Name = 90311989
REMARK  4 active torsions:
REMARK  status: ('A' for Active; 'I' for Inactive)
REMARK    1  A    between atoms: C_16  and  O_33
REMARK    2  A    between atoms: C_17  and  C_21
REMARK    3  A    between atoms: N_20  and  C_23
REMARK    4  A    between atoms: C_23  and  C_27
REMARK                            x       y       z     vdW  Elec       q    Type
REMARK                         _______ _______ _______ _____ _____    ______ ____
ROOT
ATOM      1  O   UNL     1      38.744 -23.535 -13.922  0.00  0.00    -0.339 OA
ATOM      2  O   UNL     1      34.643 -23.895 -11.585  0.00  0.00    -0.268 OA
ATOM      3  O   UNL     1      31.297 -22.896 -15.292  0.00  0.00    -0.283 OA
ATOM      4  N   UNL     1      36.644 -23.842 -12.741  0.00  0.00    -0.253 N 
ATOM      5  N   UNL     1      35.324 -22.639 -14.907  0.00  0.00    -0.275 N 
ATOM      6  C   UNL     1      37.416 -24.427 -11.634  0.00  0.00    +0.080 C 
ATOM      7  C   UNL     1      39.379 -24.216 -12.835  0.00  0.00    +0.119 C 
ATOM      8  C   UNL     1      38.758 -23.716 -11.542  0.00  0.00    +0.049 C 
ATOM      9  C   UNL     1      37.816 -25.867 -11.980  0.00  0.00    +0.022 C 
ATOM     10  C   UNL     1      39.081 -25.721 -12.841  0.00  0.00    +0.031 C 
ATOM     11  C   UNL     1      37.322 -23.709 -14.035  0.00  0.00    +0.215 C 
ATOM     12  C   UNL     1      36.772 -22.505 -14.778  0.00  0.00    +0.147 C 
ATOM     13  C   UNL     1      35.263 -23.676 -12.625  0.00  0.00    +0.267 C 
ATOM     14  C   UNL     1      34.557 -23.189 -13.871  0.00  0.00    +0.143 C 
ATOM     15  C   UNL     1      34.677 -22.157 -16.036  0.00  0.00    +0.074 C 
ATOM     16  C   UNL     1      33.212 -23.299 -13.943  0.00  0.00    +0.191 C 
ATOM     17  C   UNL     1      33.355 -22.200 -16.239  0.00  0.00    +0.110 C 
ATOM     18  C   UNL     1      32.514 -22.806 -15.173  0.00  0.00    +0.236 C 
ENDROOT
BRANCH  17  21
ATOM     19  O   UNL     1      31.605 -21.636 -17.700  0.00  0.00    -0.270 OA
ATOM     20  N   UNL     1      33.801 -21.181 -18.339  0.00  0.00    -0.297 N 
ATOM     21  C   UNL     1      32.818 -21.652 -17.485  0.00  0.00    +0.251 C 
ATOM     22  H   UNL     1      34.740 -21.250 -18.052  0.00  0.00    +0.150 HD
BRANCH  20  23
ATOM     23  C   UNL     1      33.520 -20.594 -19.630  0.00  0.00    +0.121 C 
BRANCH  23  27
ATOM     24  F   UNL     1      36.058 -20.585 -18.380  0.00  0.00    -0.204 F 
ATOM     25  F   UNL     1      33.374 -18.999 -21.960  0.00  0.00    -0.204 F 
ATOM     26  F   UNL     1      37.895 -17.651 -21.605  0.00  0.00    -0.204 F 
ATOM     27  C   UNL     1      34.686 -19.811 -20.157  0.00  0.00    +0.053 C 
ATOM     28  C   UNL     1      35.912 -19.849 -19.491  0.00  0.00    +0.142 C 
ATOM     29  C   UNL     1      34.546 -19.043 -21.313  0.00  0.00    +0.142 C 
ATOM     30  C   UNL     1      36.995 -19.120 -19.980  0.00  0.00    +0.059 C 
ATOM     31  C   UNL     1      35.630 -18.314 -21.803  0.00  0.00    +0.059 C 
ATOM     32  C   UNL     1      36.854 -18.352 -21.136  0.00  0.00    +0.145 C 
ENDBRANCH  23  27
ENDBRANCH  20  23
ENDBRANCH  17  21
BRANCH  16  33
ATOM     33  O   UNL     1      32.427 -23.853 -12.955  0.00  0.00    -0.502 OA
ATOM     34  H   UNL     1      32.828 -24.270 -12.218  0.00  0.00    +0.292 HD
ENDBRANCH  16  33
TORSDOF 4
ENDMDL
MODEL 2
REMARK VINA RESULT:     -12.3      7.713     12.961
REMARK  Name = 90311989
REMARK  4 active torsions:
REMARK  status: ('A' for Active; 'I' for Inactive)
REMARK    1  A    between atoms: C_16  and  O_33
REMARK    2  A    between atoms: C_17  and  C_21
REMARK    3  A    between atoms: N_20  and  C_23
REMARK    4  A    between atoms: C_23  and  C_27
REMARK                            x       y       z     vdW  Elec       q    Type
REMARK                         _______ _______ _______ _____ _____    ______ ____
ROOT
ATOM      1  O   UNL     1      33.429  -8.529 -24.001  0.00  0.00    -0.339 OA
ATOM      2  O   UNL     1      31.531 -10.584 -20.182  0.00  0.00    -0.268 OA
ATOM      3  O   UNL     1      33.942 -15.070 -20.167  0.00  0.00    -0.283 OA
ATOM      4  N   UNL     1      32.538  -9.524 -21.973  0.00  0.00    -0.253 N 
ATOM      5  N   UNL     1      33.629 -11.982 -22.776  0.00  0.00    -0.275 N 
ATOM      6  C   UNL     1      31.968  -8.208 -21.644  0.00  0.00    +0.080 C 
ATOM      7  C   UNL     1      32.924  -7.276 -23.530  0.00  0.00    +0.119 C 
ATOM      8  C   UNL     1      31.548  -7.520 -22.934  0.00  0.00    +0.049 C 
ATOM      9  C   UNL     1      33.067  -7.282 -21.106  0.00  0.00    +0.022 C 
ATOM     10  C   UNL     1      33.749  -6.720 -22.363  0.00  0.00    +0.031 C 
ATOM     11  C   UNL     1      33.567  -9.567 -23.017  0.00  0.00    +0.215 C 
ATOM     12  C   UNL     1      33.501 -10.898 -23.744  0.00  0.00    +0.147 C 
ATOM     13  C   UNL     1      32.299 -10.621 -21.143  0.00  0.00    +0.267 C 
ATOM     14  C   UNL     1      33.042 -11.888 -21.507  0.00  0.00    +0.143 C 
ATOM     15  C   UNL     1      34.278 -13.157 -23.127  0.00  0.00    +0.074 C 
ATOM     16  C   UNL     1      33.112 -12.884 -20.597  0.00  0.00    +0.191 C 
ATOM     17  C   UNL     1      34.422 -14.221 -22.328  0.00  0.00    +0.110 C 
ATOM     18  C   UNL     1      33.839 -14.143 -20.963  0.00  0.00    +0.236 C 
ENDROOT
BRANCH  17  21
ATOM     19  O   UNL     1      35.391 -15.506 -24.040  0.00  0.00    -0.270 OA
ATOM     20  N   UNL     1      35.470 -16.300 -21.848  0.00  0.00    -0.297 N 
ATOM     21  C   UNL     1      35.137 -15.391 -22.839  0.00  0.00    +0.251 C 
ATOM     22  H   UNL     1      35.210 -16.094 -20.921  0.00  0.00    +0.150 HD
BRANCH  20  23
ATOM     23  C   UNL     1      36.178 -17.534 -22.104  0.00  0.00    +0.121 C 
BRANCH  23  27
ATOM     24  F   UNL     1      33.613 -18.669 -21.736  0.00  0.00    -0.204 F 
ATOM     25  F   UNL     1      38.147 -18.532 -20.338  0.00  0.00    -0.204 F 
ATOM     26  F   UNL     1      35.088 -21.434 -18.192  0.00  0.00    -0.204 F 
ATOM     27  C   UNL     1      35.888 -18.575 -21.063  0.00  0.00    +0.053 C 
ATOM     28  C   UNL     1      34.599 -19.093 -20.933  0.00  0.00    +0.142 C 
ATOM     29  C   UNL     1      36.906 -19.024 -20.222  0.00  0.00    +0.142 C 
ATOM     30  C   UNL     1      34.329 -20.058 -19.964  0.00  0.00    +0.059 C 
ATOM     31  C   UNL     1      36.636 -19.990 -19.253  0.00  0.00    +0.059 C 
ATOM     32  C   UNL     1      35.348 -20.506 -19.124  0.00  0.00    +0.145 C 
ENDBRANCH  23  27
ENDBRANCH  20  23
ENDBRANCH  17  21
BRANCH  16  33
ATOM     33  O   UNL     1      32.567 -12.819 -19.334  0.00  0.00    -0.502 OA
ATOM     34  H   UNL     1      32.854 -13.415 -18.669  0.00  0.00    +0.292 HD
ENDBRANCH  16  33
TORSDOF 4
ENDMDL
MODEL 3
REMARK VINA RESULT:     -12.0      3.587      6.052
REMARK  Name = 90311989
REMARK  4 active torsions:
REMARK  status: ('A' for Active; 'I' for Inactive)
REMARK    1  A    between atoms: C_16  and  O_33
REMARK    2  A    between atoms: C_17  and  C_21
REMARK    3  A    between atoms: N_20  and  C_23
REMARK    4  A    between atoms: C_23  and  C_27
REMARK                            x       y       z     vdW  Elec       q    Type
REMARK                         _______ _______ _______ _____ _____    ______ ____
ROOT
ATOM      1  O   UNL     1      30.662 -22.141 -16.356  0.00  0.00    -0.339 OA
ATOM      2  O   UNL     1      35.270 -23.178 -16.026  0.00  0.00    -0.268 OA
ATOM      3  O   UNL     1      37.270 -19.877 -19.349  0.00  0.00    -0.283 OA
ATOM      4  N   UNL     1      33.032 -22.598 -16.089  0.00  0.00    -0.253 N 
ATOM      5  N   UNL     1      33.519 -21.093 -18.407  0.00  0.00    -0.275 N 
ATOM      6  C   UNL     1      32.687 -23.401 -14.905  0.00  0.00    +0.080 C 
ATOM      7  C   UNL     1      30.454 -22.853 -15.132  0.00  0.00    +0.119 C 
ATOM      8  C   UNL     1      31.348 -24.081 -15.147  0.00  0.00    +0.049 C 
ATOM      9  C   UNL     1      32.391 -22.477 -13.716  0.00  0.00    +0.022 C 
ATOM     10  C   UNL     1      30.926 -22.055 -13.910  0.00  0.00    +0.031 C 
ATOM     11  C   UNL     1      32.004 -21.691 -16.606  0.00  0.00    +0.215 C 
ATOM     12  C   UNL     1      32.163 -21.542 -18.109  0.00  0.00    +0.147 C 
ATOM     13  C   UNL     1      34.357 -22.517 -16.521  0.00  0.00    +0.267 C 
ATOM     14  C   UNL     1      34.612 -21.560 -17.665  0.00  0.00    +0.143 C 
ATOM     15  C   UNL     1      33.752 -20.245 -19.481  0.00  0.00    +0.074 C 
ATOM     16  C   UNL     1      35.884 -21.191 -17.933  0.00  0.00    +0.191 C 
ATOM     17  C   UNL     1      34.956 -19.801 -19.859  0.00  0.00    +0.110 C 
ATOM     18  C   UNL     1      36.135 -20.252 -19.074  0.00  0.00    +0.236 C 
ENDROOT
BRANCH  17  21
ATOM     19  O   UNL     1      34.347 -19.089 -22.013  0.00  0.00    -0.270 OA
ATOM     20  N   UNL     1      35.964 -17.885 -20.841  0.00  0.00    -0.297 N 
ATOM     21  C   UNL     1      35.044 -18.907 -21.014  0.00  0.00    +0.251 C 
ATOM     22  H   UNL     1      36.462 -17.846 -19.993  0.00  0.00    +0.150 HD
BRANCH  20  23
ATOM     23  C   UNL     1      36.231 -16.876 -21.841  0.00  0.00    +0.121 C 
BRANCH  23  27
ATOM     24  F   UNL     1      35.177 -15.485 -24.068  0.00  0.00    -0.204 F 
ATOM     25  F   UNL     1      35.403 -15.849 -19.340  0.00  0.00    -0.204 F 
ATOM     26  F   UNL     1      32.793 -12.446 -21.337  0.00  0.00    -0.204 F 
ATOM     27  C   UNL     1      35.313 -15.696 -21.707  0.00  0.00    +0.053 C 
ATOM     28  C   UNL     1      34.830 -15.054 -22.847  0.00  0.00    +0.142 C 
ATOM     29  C   UNL     1      34.944 -15.239 -20.442  0.00  0.00    +0.142 C 
ATOM     30  C   UNL     1      33.978 -13.956 -22.722  0.00  0.00    +0.059 C 
ATOM     31  C   UNL     1      34.093 -14.142 -20.317  0.00  0.00    +0.059 C 
ATOM     32  C   UNL     1      33.610 -13.501 -21.457  0.00  0.00    +0.145 C 
ENDBRANCH  23  27
ENDBRANCH  20  23
ENDBRANCH  17  21
BRANCH  16  33
ATOM     33  O   UNL     1      36.980 -21.612 -17.214  0.00  0.00    -0.502 OA
ATOM     34  H   UNL     1      37.670 -21.009 -17.016  0.00  0.00    +0.292 HD
ENDBRANCH  16  33
TORSDOF 4
ENDMDL
MODEL 4
REMARK VINA RESULT:     -12.0      6.590     11.864
REMARK  Name = 90311989
REMARK  4 active torsions:
REMARK  status: ('A' for Active; 'I' for Inactive)
REMARK    1  A    between atoms: C_16  and  O_33
REMARK    2  A    between atoms: C_17  and  C_21
REMARK    3  A    between atoms: N_20  and  C_23
REMARK    4  A    between atoms: C_23  and  C_27
REMARK                            x       y       z     vdW  Elec       q    Type
REMARK                         _______ _______ _______ _____ _____    ______ ____
ROOT
ATOM      1  O   UNL     1      32.554 -11.802 -19.152  0.00  0.00    -0.339 OA
ATOM      2  O   UNL     1      33.493 -11.199 -23.753  0.00  0.00    -0.268 OA
ATOM      3  O   UNL     1      34.941 -15.894 -25.095  0.00  0.00    -0.283 OA
ATOM      4  N   UNL     1      32.916 -11.509 -21.536  0.00  0.00    -0.253 N 
ATOM      5  N   UNL     1      34.194 -14.008 -21.585  0.00  0.00    -0.275 N 
ATOM      6  C   UNL     1      32.266 -10.195 -21.416  0.00  0.00    +0.080 C 
ATOM      7  C   UNL     1      31.845 -10.559 -19.174  0.00  0.00    +0.119 C 
ATOM      8  C   UNL     1      32.614  -9.597 -20.062  0.00  0.00    +0.049 C 
ATOM      9  C   UNL     1      30.744 -10.371 -21.330  0.00  0.00    +0.022 C 
ATOM     10  C   UNL     1      30.474 -10.686 -19.850  0.00  0.00    +0.031 C 
ATOM     11  C   UNL     1      32.740 -12.448 -20.423  0.00  0.00    +0.215 C 
ATOM     12  C   UNL     1      33.964 -13.338 -20.308  0.00  0.00    +0.147 C 
ATOM     13  C   UNL     1      33.441 -11.925 -22.761  0.00  0.00    +0.267 C 
ATOM     14  C   UNL     1      33.966 -13.344 -22.798  0.00  0.00    +0.143 C 
ATOM     15  C   UNL     1      34.711 -15.295 -21.614  0.00  0.00    +0.074 C 
ATOM     16  C   UNL     1      34.197 -13.921 -23.997  0.00  0.00    +0.191 C 
ATOM     17  C   UNL     1      34.988 -15.985 -22.726  0.00  0.00    +0.110 C 
ATOM     18  C   UNL     1      34.727 -15.322 -24.031  0.00  0.00    +0.236 C 
ENDROOT
BRANCH  17  21
ATOM     19  O   UNL     1      35.687 -18.056 -23.586  0.00  0.00    -0.270 OA
ATOM     20  N   UNL     1      35.820 -17.684 -21.288  0.00  0.00    -0.297 N 
ATOM     21  C   UNL     1      35.528 -17.339 -22.597  0.00  0.00    +0.251 C 
ATOM     22  H   UNL     1      35.648 -17.020 -20.581  0.00  0.00    +0.150 HD
BRANCH  20  23
ATOM     23  C   UNL     1      36.363 -18.968 -20.904  0.00  0.00    +0.121 C 
BRANCH  23  27
ATOM     24  F   UNL     1      33.560 -18.940 -21.289  0.00  0.00    -0.204 F 
ATOM     25  F   UNL     1      37.218 -20.587 -18.750  0.00  0.00    -0.204 F 
ATOM     26  F   UNL     1      32.799 -21.876 -17.658  0.00  0.00    -0.204 F 
ATOM     27  C   UNL     1      35.413 -19.744 -20.040  0.00  0.00    +0.053 C 
ATOM     28  C   UNL     1      34.040 -19.685 -20.284  0.00  0.00    +0.142 C 
ATOM     29  C   UNL     1      35.901 -20.524 -18.992  0.00  0.00    +0.142 C 
ATOM     30  C   UNL     1      33.158 -20.406 -19.479  0.00  0.00    +0.059 C 
ATOM     31  C   UNL     1      35.019 -21.245 -18.188  0.00  0.00    +0.059 C 
ATOM     32  C   UNL     1      33.647 -21.185 -18.431  0.00  0.00    +0.145 C 
ENDBRANCH  23  27
ENDBRANCH  20  23
ENDBRANCH  17  21
BRANCH  16  33
ATOM     33  O   UNL     1      33.964 -13.308 -25.209  0.00  0.00    -0.502 OA
ATOM     34  H   UNL     1      33.266 -12.689 -25.293  0.00  0.00    +0.292 HD
ENDBRANCH  16  33
TORSDOF 4
ENDMDL
MODEL 5
REMARK VINA RESULT:     -12.0      6.588     11.774
REMARK  Name = 90311989
REMARK  4 active torsions:
REMARK  status: ('A' for Active; 'I' for Inactive)
REMARK    1  A    between atoms: C_16  and  O_33
REMARK    2  A    between atoms: C_17  and  C_21
REMARK    3  A    between atoms: N_20  and  C_23
REMARK    4  A    between atoms: C_23  and  C_27
REMARK                            x       y       z     vdW  Elec       q    Type
REMARK                         _______ _______ _______ _____ _____    ______ ____
ROOT
ATOM      1  O   UNL     1      32.548 -11.809 -19.147  0.00  0.00    -0.339 OA
ATOM      2  O   UNL     1      33.495 -11.198 -23.745  0.00  0.00    -0.268 OA
ATOM      3  O   UNL     1      34.934 -15.893 -25.094  0.00  0.00    -0.283 OA
ATOM      4  N   UNL     1      32.914 -11.511 -21.529  0.00  0.00    -0.253 N 
ATOM      5  N   UNL     1      34.186 -14.013 -21.582  0.00  0.00    -0.275 N 
ATOM      6  C   UNL     1      32.267 -10.196 -21.408  0.00  0.00    +0.080 C 
ATOM      7  C   UNL     1      31.842 -10.564 -19.167  0.00  0.00    +0.119 C 
ATOM      8  C   UNL     1      32.615  -9.601 -20.051  0.00  0.00    +0.049 C 
ATOM      9  C   UNL     1      30.745 -10.368 -21.324  0.00  0.00    +0.022 C 
ATOM     10  C   UNL     1      30.472 -10.686 -19.846  0.00  0.00    +0.031 C 
ATOM     11  C   UNL     1      32.735 -12.452 -20.419  0.00  0.00    +0.215 C 
ATOM     12  C   UNL     1      33.956 -13.345 -20.304  0.00  0.00    +0.147 C 
ATOM     13  C   UNL     1      33.440 -11.926 -22.754  0.00  0.00    +0.267 C 
ATOM     14  C   UNL     1      33.961 -13.346 -22.793  0.00  0.00    +0.143 C 
ATOM     15  C   UNL     1      34.700 -15.301 -21.612  0.00  0.00    +0.074 C 
ATOM     16  C   UNL     1      34.193 -13.921 -23.994  0.00  0.00    +0.191 C 
ATOM     17  C   UNL     1      34.977 -15.990 -22.726  0.00  0.00    +0.110 C 
ATOM     18  C   UNL     1      34.721 -15.323 -24.030  0.00  0.00    +0.236 C 
ENDROOT
BRANCH  17  21
ATOM     19  O   UNL     1      35.665 -18.064 -23.588  0.00  0.00    -0.270 OA
ATOM     20  N   UNL     1      35.812 -17.690 -21.291  0.00  0.00    -0.297 N 
ATOM     21  C   UNL     1      35.514 -17.345 -22.599  0.00  0.00    +0.251 C 
ATOM     22  H   UNL     1      35.646 -17.025 -20.584  0.00  0.00    +0.150 HD
BRANCH  20  23
ATOM     23  C   UNL     1      36.354 -18.975 -20.910  0.00  0.00    +0.121 C 
BRANCH  23  27
ATOM     24  F   UNL     1      37.215 -20.594 -18.756  0.00  0.00    -0.204 F 
ATOM     25  F   UNL     1      33.551 -18.940 -21.280  0.00  0.00    -0.204 F 
ATOM     26  F   UNL     1      32.798 -21.879 -17.650  0.00  0.00    -0.204 F 
ATOM     27  C   UNL     1      35.406 -19.748 -20.040  0.00  0.00    +0.053 C 
ATOM     28  C   UNL     1      35.898 -20.529 -18.994  0.00  0.00    +0.142 C 
ATOM     29  C   UNL     1      34.033 -19.687 -20.278  0.00  0.00    +0.142 C 
ATOM     30  C   UNL     1      35.016 -21.249 -18.187  0.00  0.00    +0.059 C 
ATOM     31  C   UNL     1      33.152 -20.406 -19.470  0.00  0.00    +0.059 C 
ATOM     32  C   UNL     1      33.644 -21.187 -18.426  0.00  0.00    +0.145 C 
ENDBRANCH  23  27
ENDBRANCH  20  23
ENDBRANCH  17  21
BRANCH  16  33
ATOM     33  O   UNL     1      33.964 -13.305 -25.204  0.00  0.00    -0.502 OA
ATOM     34  H   UNL     1      33.730 -13.818 -25.953  0.00  0.00    +0.292 HD
ENDBRANCH  16  33
TORSDOF 4
ENDMDL
MODEL 6
REMARK VINA RESULT:     -11.9      2.960      8.403
REMARK  Name = 90311989
REMARK  4 active torsions:
REMARK  status: ('A' for Active; 'I' for Inactive)
REMARK    1  A    between atoms: C_16  and  O_33
REMARK    2  A    between atoms: C_17  and  C_21
REMARK    3  A    between atoms: N_20  and  C_23
REMARK    4  A    between atoms: C_23  and  C_27
REMARK                            x       y       z     vdW  Elec       q    Type
REMARK                         _______ _______ _______ _____ _____    ______ ____
ROOT
ATOM      1  O   UNL     1      37.154 -18.808 -20.610  0.00  0.00    -0.339 OA
ATOM      2  O   UNL     1      32.643 -20.213 -20.305  0.00  0.00    -0.268 OA
ATOM      3  O   UNL     1      32.662 -22.647 -15.831  0.00  0.00    -0.283 OA
ATOM      4  N   UNL     1      34.812 -19.418 -20.408  0.00  0.00    -0.253 N 
ATOM      5  N   UNL     1      35.504 -21.121 -18.287  0.00  0.00    -0.275 N 
ATOM      6  C   UNL     1      34.540 -18.532 -21.550  0.00  0.00    +0.080 C 
ATOM      7  C   UNL     1      36.760 -17.896 -21.639  0.00  0.00    +0.119 C 
ATOM      8  C   UNL     1      35.723 -18.587 -22.506  0.00  0.00    +0.049 C 
ATOM      9  C   UNL     1      34.544 -17.068 -21.088  0.00  0.00    +0.022 C 
ATOM     10  C   UNL     1      36.029 -16.670 -21.077  0.00  0.00    +0.031 C 
ATOM     11  C   UNL     1      36.109 -19.272 -19.739  0.00  0.00    +0.215 C 
ATOM     12  C   UNL     1      36.545 -20.611 -19.173  0.00  0.00    +0.147 C 
ATOM     13  C   UNL     1      33.780 -20.164 -19.836  0.00  0.00    +0.267 C 
ATOM     14  C   UNL     1      34.148 -20.937 -18.588  0.00  0.00    +0.143 C 
ATOM     15  C   UNL     1      35.845 -21.861 -17.164  0.00  0.00    +0.074 C 
ATOM     16  C   UNL     1      33.157 -21.423 -17.808  0.00  0.00    +0.191 C 
ATOM     17  C   UNL     1      34.971 -22.401 -16.307  0.00  0.00    +0.110 C 
ATOM     18  C   UNL     1      33.524 -22.197 -16.579  0.00  0.00    +0.236 C 
ENDROOT
BRANCH  17  21
ATOM     19  O   UNL     1      35.273 -24.364 -15.053  0.00  0.00    -0.270 OA
ATOM     20  N   UNL     1      36.197 -22.371 -14.270  0.00  0.00    -0.297 N 
ATOM     21  C   UNL     1      35.484 -23.155 -15.162  0.00  0.00    +0.251 C 
ATOM     22  H   UNL     1      36.297 -21.412 -14.470  0.00  0.00    +0.150 HD
BRANCH  20  23
ATOM     23  C   UNL     1      36.801 -22.887 -13.062  0.00  0.00    +0.121 C 
BRANCH  23  27
ATOM     24  F   UNL     1      38.589 -22.373 -15.194  0.00  0.00    -0.204 F 
ATOM     25  F   UNL     1      37.454 -25.172 -11.531  0.00  0.00    -0.204 F 
ATOM     26  F   UNL     1      41.265 -26.136 -14.163  0.00  0.00    -0.204 F 
ATOM     27  C   UNL     1      37.992 -23.752 -13.355  0.00  0.00    +0.053 C 
ATOM     28  C   UNL     1      38.834 -23.443 -14.423  0.00  0.00    +0.142 C 
ATOM     29  C   UNL     1      38.257 -24.867 -12.560  0.00  0.00    +0.142 C 
ATOM     30  C   UNL     1      39.940 -24.248 -14.696  0.00  0.00    +0.059 C 
ATOM     31  C   UNL     1      39.362 -25.671 -12.832  0.00  0.00    +0.059 C 
ATOM     32  C   UNL     1      40.203 -25.363 -13.900  0.00  0.00    +0.145 C 
ENDBRANCH  23  27
ENDBRANCH  20  23
ENDBRANCH  17  21
BRANCH  16  33
ATOM     33  O   UNL     1      31.815 -21.243 -18.060  0.00  0.00    -0.502 OA
ATOM     34  H   UNL     1      31.537 -20.587 -18.669  0.00  0.00    +0.292 HD
ENDBRANCH  16  33
TORSDOF 4
ENDMDL
MODEL 7
REMARK VINA RESULT:     -11.6      8.980     12.917
REMARK  Name = 90311989
REMARK  4 active torsions:
REMARK  status: ('A' for Active; 'I' for Inactive)
REMARK    1  A    between atoms: C_16  and  O_33
REMARK    2  A    between atoms: C_17  and  C_21
REMARK    3  A    between atoms: N_20  and  C_23
REMARK    4  A    between atoms: C_23  and  C_27
REMARK                            x       y       z     vdW  Elec       q    Type
REMARK                         _______ _______ _______ _____ _____    ______ ____
ROOT
ATOM      1  O   UNL     1      35.405 -16.257 -20.268  0.00  0.00    -0.339 OA
ATOM      2  O   UNL     1      34.081 -16.507 -24.807  0.00  0.00    -0.268 OA
ATOM      3  O   UNL     1      34.040 -11.581 -26.102  0.00  0.00    -0.283 OA
ATOM      4  N   UNL     1      34.843 -16.405 -22.626  0.00  0.00    -0.253 N 
ATOM      5  N   UNL     1      34.375 -13.638 -22.624  0.00  0.00    -0.275 N 
ATOM      6  C   UNL     1      35.073 -17.855 -22.533  0.00  0.00    +0.080 C 
ATOM      7  C   UNL     1      35.705 -17.655 -20.319  0.00  0.00    +0.119 C 
ATOM      8  C   UNL     1      34.635 -18.333 -21.157  0.00  0.00    +0.049 C 
ATOM      9  C   UNL     1      36.580 -18.146 -22.530  0.00  0.00    +0.022 C 
ATOM     10  C   UNL     1      37.012 -17.940 -21.070  0.00  0.00    +0.031 C 
ATOM     11  C   UNL     1      35.352 -15.573 -21.531  0.00  0.00    +0.215 C 
ATOM     12  C   UNL     1      34.461 -14.357 -21.357  0.00  0.00    +0.147 C 
ATOM     13  C   UNL     1      34.402 -15.840 -23.824  0.00  0.00    +0.267 C 
ATOM     14  C   UNL     1      34.326 -14.328 -23.842  0.00  0.00    +0.143 C 
ATOM     15  C   UNL     1      34.268 -12.254 -22.634  0.00  0.00    +0.074 C 
ATOM     16  C   UNL     1      34.215 -13.697 -25.032  0.00  0.00    +0.191 C 
ATOM     17  C   UNL     1      34.151 -11.503 -23.735  0.00  0.00    +0.110 C 
ATOM     18  C   UNL     1      34.129 -12.201 -25.047  0.00  0.00    +0.236 C 
ENDROOT
BRANCH  17  21
ATOM     19  O   UNL     1      35.057  -9.356 -23.435  0.00  0.00    -0.270 OA
ATOM     20  N   UNL     1      32.745  -9.589 -23.637  0.00  0.00    -0.297 N 
ATOM     21  C   UNL     1      34.050 -10.051 -23.586  0.00  0.00    +0.251 C 
ATOM     22  H   UNL     1      32.023 -10.246 -23.762  0.00  0.00    +0.150 HD
BRANCH  20  23
ATOM     23  C   UNL     1      32.389  -8.193 -23.513  0.00  0.00    +0.121 C 
BRANCH  23  27
ATOM     24  F   UNL     1      31.745  -9.884 -21.339  0.00  0.00    -0.204 F 
ATOM     25  F   UNL     1      33.082  -5.557 -22.761  0.00  0.00    -0.204 F 
ATOM     26  F   UNL     1      32.474  -6.459 -18.157  0.00  0.00    -0.204 F 
ATOM     27  C   UNL     1      32.413  -7.732 -22.085  0.00  0.00    +0.053 C 
ATOM     28  C   UNL     1      32.083  -8.618 -21.059  0.00  0.00    +0.142 C 
ATOM     29  C   UNL     1      32.764  -6.416 -21.783  0.00  0.00    +0.142 C 
ATOM     30  C   UNL     1      32.104  -8.188 -19.732  0.00  0.00    +0.059 C 
ATOM     31  C   UNL     1      32.785  -5.986 -20.457  0.00  0.00    +0.059 C 
ATOM     32  C   UNL     1      32.455  -6.872 -19.432  0.00  0.00    +0.145 C 
ENDBRANCH  23  27
ENDBRANCH  20  23
ENDBRANCH  17  21
BRANCH  16  33
ATOM     33  O   UNL     1      34.186 -14.340 -26.250  0.00  0.00    -0.502 OA
ATOM     34  H   UNL     1      33.365 -14.551 -26.648  0.00  0.00    +0.292 HD
ENDBRANCH  16  33
TORSDOF 4
ENDMDL
MODEL 8
REMARK VINA RESULT:     -11.5      3.444      8.897
REMARK  Name = 90311989
REMARK  4 active torsions:
REMARK  status: ('A' for Active; 'I' for Inactive)
REMARK    1  A    between atoms: C_16  and  O_33
REMARK    2  A    between atoms: C_17  and  C_21
REMARK    3  A    between atoms: N_20  and  C_23
REMARK    4  A    between atoms: C_23  and  C_27
REMARK                            x       y       z     vdW  Elec       q    Type
REMARK                         _______ _______ _______ _____ _____    ______ ____
ROOT
ATOM      1  O   UNL     1      37.206 -18.159 -21.120  0.00  0.00    -0.339 OA
ATOM      2  O   UNL     1      33.158 -20.432 -20.193  0.00  0.00    -0.268 OA
ATOM      3  O   UNL     1      34.231 -22.577 -15.700  0.00  0.00    -0.283 OA
ATOM      4  N   UNL     1      35.085 -19.220 -20.598  0.00  0.00    -0.253 N 
ATOM      5  N   UNL     1      36.371 -20.635 -18.544  0.00  0.00    -0.275 N 
ATOM      6  C   UNL     1      34.497 -18.467 -21.717  0.00  0.00    +0.080 C 
ATOM      7  C   UNL     1      36.508 -17.399 -22.112  0.00  0.00    +0.119 C 
ATOM      8  C   UNL     1      35.538 -18.331 -22.818  0.00  0.00    +0.049 C 
ATOM      9  C   UNL     1      34.254 -17.011 -21.297  0.00  0.00    +0.022 C 
ATOM     10  C   UNL     1      35.613 -16.320 -21.490  0.00  0.00    +0.031 C 
ATOM     11  C   UNL     1      36.395 -18.779 -20.109  0.00  0.00    +0.215 C 
ATOM     12  C   UNL     1      37.167 -19.971 -19.571  0.00  0.00    +0.147 C 
ATOM     13  C   UNL     1      34.309 -20.129 -19.878  0.00  0.00    +0.267 C 
ATOM     14  C   UNL     1      34.980 -20.746 -18.670  0.00  0.00    +0.143 C 
ATOM     15  C   UNL     1      36.994 -21.232 -17.457  0.00  0.00    +0.074 C 
ATOM     16  C   UNL     1      34.215 -21.381 -17.755  0.00  0.00    +0.191 C 
ATOM     17  C   UNL     1      36.363 -21.893 -16.479  0.00  0.00    +0.110 C 
ATOM     18  C   UNL     1      34.883 -22.001 -16.565  0.00  0.00    +0.236 C 
ENDROOT
BRANCH  17  21
ATOM     19  O   UNL     1      37.868 -21.755 -14.681  0.00  0.00    -0.270 OA
ATOM     20  N   UNL     1      37.012 -23.840 -15.281  0.00  0.00    -0.297 N 
ATOM     21  C   UNL     1      37.158 -22.467 -15.393  0.00  0.00    +0.251 C 
ATOM     22  H   UNL     1      36.412 -24.298 -15.914  0.00  0.00    +0.150 HD
BRANCH  20  23
ATOM     23  C   UNL     1      37.695 -24.635 -14.286  0.00  0.00    +0.121 C 
BRANCH  23  27
ATOM     24  F   UNL     1      39.532 -24.016 -12.225  0.00  0.00    -0.204 F 
ATOM     25  F   UNL     1      34.984 -24.523 -13.490  0.00  0.00    -0.204 F 
ATOM     26  F   UNL     1      36.092 -23.302  -9.056  0.00  0.00    -0.204 F 
ATOM     27  C   UNL     1      37.268 -24.278 -12.892  0.00  0.00    +0.053 C 
ATOM     28  C   UNL     1      38.226 -23.984 -11.922  0.00  0.00    +0.142 C 
ATOM     29  C   UNL     1      35.912 -24.242 -12.565  0.00  0.00    +0.142 C 
ATOM     30  C   UNL     1      37.829 -23.654 -10.626  0.00  0.00    +0.059 C 
ATOM     31  C   UNL     1      35.515 -23.911 -11.270  0.00  0.00    +0.059 C 
ATOM     32  C   UNL     1      36.473 -23.618 -10.301  0.00  0.00    +0.145 C 
ENDBRANCH  23  27
ENDBRANCH  20  23
ENDBRANCH  17  21
BRANCH  16  33
ATOM     33  O   UNL     1      32.844 -21.491 -17.833  0.00  0.00    -0.502 OA
ATOM     34  H   UNL     1      32.431 -21.603 -18.667  0.00  0.00    +0.292 HD
ENDBRANCH  16  33
TORSDOF 4
ENDMDL
MODEL 9
REMARK VINA RESULT:     -10.9      9.090     13.636
REMARK  Name = 90311989
REMARK  4 active torsions:
REMARK  status: ('A' for Active; 'I' for Inactive)
REMARK    1  A    between atoms: C_16  and  O_33
REMARK    2  A    between atoms: C_17  and  C_21
REMARK    3  A    between atoms: N_20  and  C_23
REMARK    4  A    between atoms: C_23  and  C_27
REMARK                            x       y       z     vdW  Elec       q    Type
REMARK                         _______ _______ _______ _____ _____    ______ ____
ROOT
ATOM      1  O   UNL     1      32.721  -6.348 -21.897  0.00  0.00    -0.339 OA
ATOM      2  O   UNL     1      30.981  -9.324 -18.652  0.00  0.00    -0.268 OA
ATOM      3  O   UNL     1      32.789 -13.783 -20.324  0.00  0.00    -0.283 OA
ATOM      4  N   UNL     1      31.925  -7.848 -20.160  0.00  0.00    -0.253 N 
ATOM      5  N   UNL     1      32.604 -10.015 -21.810  0.00  0.00    -0.275 N 
ATOM      6  C   UNL     1      31.564  -6.657 -19.375  0.00  0.00    +0.080 C 
ATOM      7  C   UNL     1      32.431  -5.267 -21.005  0.00  0.00    +0.119 C 
ATOM      8  C   UNL     1      31.105  -5.563 -20.327  0.00  0.00    +0.049 C 
ATOM      9  C   UNL     1      32.822  -6.050 -18.739  0.00  0.00    +0.022 C 
ATOM     10  C   UNL     1      33.437  -5.184 -19.849  0.00  0.00    +0.031 C 
ATOM     11  C   UNL     1      32.826  -7.651 -21.300  0.00  0.00    +0.215 C 
ATOM     12  C   UNL     1      32.516  -8.674 -22.378  0.00  0.00    +0.147 C 
ATOM     13  C   UNL     1      31.634  -9.124 -19.676  0.00  0.00    +0.267 C 
ATOM     14  C   UNL     1      32.168 -10.273 -20.503  0.00  0.00    +0.143 C 
ATOM     15  C   UNL     1      33.059 -11.073 -22.585  0.00  0.00    +0.074 C 
ATOM     16  C   UNL     1      32.205 -11.508 -19.955  0.00  0.00    +0.191 C 
ATOM     17  C   UNL     1      33.148 -12.342 -22.172  0.00  0.00    +0.110 C 
ATOM     18  C   UNL     1      32.723 -12.646 -20.780  0.00  0.00    +0.236 C 
ENDROOT
BRANCH  17  21
ATOM     19  O   UNL     1      33.250 -13.394 -24.270  0.00  0.00    -0.270 OA
ATOM     20  N   UNL     1      34.585 -14.200 -22.536  0.00  0.00    -0.297 N 
ATOM     21  C   UNL     1      33.651 -13.351 -23.106  0.00  0.00    +0.251 C 
ATOM     22  H   UNL     1      34.824 -14.063 -21.591  0.00  0.00    +0.150 HD
BRANCH  20  23
ATOM     23  C   UNL     1      35.226 -15.277 -23.256  0.00  0.00    +0.121 C 
BRANCH  23  27
ATOM     24  F   UNL     1      35.688 -15.422 -20.469  0.00  0.00    -0.204 F 
ATOM     25  F   UNL     1      34.687 -17.774 -24.469  0.00  0.00    -0.204 F 
ATOM     26  F   UNL     1      35.091 -20.114 -20.378  0.00  0.00    -0.204 F 
ATOM     27  C   UNL     1      35.189 -16.566 -22.489  0.00  0.00    +0.053 C 
ATOM     28  C   UNL     1      35.427 -16.567 -21.114  0.00  0.00    +0.142 C 
ATOM     29  C   UNL     1      34.917 -17.764 -23.149  0.00  0.00    +0.142 C 
ATOM     30  C   UNL     1      35.394 -17.766 -20.401  0.00  0.00    +0.059 C 
ATOM     31  C   UNL     1      34.883 -18.962 -22.436  0.00  0.00    +0.059 C 
ATOM     32  C   UNL     1      35.122 -18.963 -21.063  0.00  0.00    +0.145 C 
ENDBRANCH  23  27
ENDBRANCH  20  23
ENDBRANCH  17  21
BRANCH  16  33
ATOM     33  O   UNL     1      31.805 -11.796 -18.669  0.00  0.00    -0.502 OA
ATOM     34  H   UNL     1      32.276 -12.430 -18.164  0.00  0.00    +0.292 HD
ENDBRANCH  16  33
TORSDOF 4
ENDMDL
