MODEL 1
REMARK VINA RESULT:     -11.2      0.000      0.000
REMARK  Name = 10182969
REMARK  5 active torsions:
REMARK  status: ('A' for Active; 'I' for Inactive)
REMARK    1  A    between atoms: N_2  and  C_11
REMARK    2  A    between atoms: N_3  and  C_24
REMARK    3  A    between atoms: C_10  and  C_34
REMARK    4  A    between atoms: C_12  and  N_18
REMARK    5  A    between atoms: C_29  and  O_30
REMARK                            x       y       z     vdW  Elec       q    Type
REMARK                         _______ _______ _______ _____ _____    ______ ____
ROOT
ATOM      1  O   UNL     1      32.377 -21.502 -17.183  0.00  0.00    -0.268 OA
ATOM      2  N   UNL     1      34.713 -21.525 -17.508  0.00  0.00    -0.254 N 
ATOM      3  N   UNL     1      32.773 -23.085 -14.743  0.00  0.00    -0.225 N 
ATOM      4  N   UNL     1      33.302 -23.716 -13.677  0.00  0.00    -0.161 NA
ATOM      5  C   UNL     1      36.186 -22.407 -15.635  0.00  0.00    +0.052 C 
ATOM      6  C   UNL     1      35.975 -22.235 -17.150  0.00  0.00    +0.103 C 
ATOM      7  C   UNL     1      34.923 -22.847 -15.018  0.00  0.00    +0.026 A 
ATOM      8  C   UNL     1      33.707 -22.552 -15.584  0.00  0.00    +0.134 A 
ATOM      9  C   UNL     1      33.503 -21.813 -16.808  0.00  0.00    +0.270 C 
ATOM     10  C   UNL     1      34.619 -23.564 -13.849  0.00  0.00    +0.152 A 
ENDROOT
BRANCH   2  11
ATOM     11  C   UNL     1      34.712 -20.697 -18.688  0.00  0.00    +0.054 C 
ATOM     12  C   UNL     1      34.711 -19.098 -20.967  0.00  0.00    +0.054 C 
ATOM     13  C   UNL     1      35.920 -20.291 -19.248  0.00  0.00    +0.016 C 
ATOM     14  C   UNL     1      33.504 -20.311 -19.260  0.00  0.00    +0.016 C 
ATOM     15  C   UNL     1      35.919 -19.489 -20.389  0.00  0.00    +0.016 C 
ATOM     16  C   UNL     1      33.503 -19.509 -20.401  0.00  0.00    +0.016 C 
BRANCH  12  18
ATOM     17  O   UNL     1      35.431 -16.313 -21.067  0.00  0.00    -0.275 OA
ATOM     18  N   UNL     1      34.709 -18.267 -22.150  0.00  0.00    -0.259 N 
ATOM     19  C   UNL     1      34.019 -18.788 -23.343  0.00  0.00    +0.098 C 
ATOM     20  C   UNL     1      34.490 -18.177 -24.652  0.00  0.00    +0.022 C 
ATOM     21  C   UNL     1      34.463 -16.670 -24.536  0.00  0.00    +0.011 C 
ATOM     22  C   UNL     1      35.407 -16.251 -23.430  0.00  0.00    +0.086 C 
ATOM     23  C   UNL     1      35.163 -16.937 -22.097  0.00  0.00    +0.229 C 
ENDBRANCH  12  18
ENDBRANCH   2  11
BRANCH   3  24
ATOM     24  C   UNL     1      31.387 -23.045 -14.892  0.00  0.00    +0.083 C 
ATOM     25  C   UNL     1      30.680 -21.933 -14.452  0.00  0.00    +0.022 C 
ATOM     26  C   UNL     1      30.729 -24.119 -15.479  0.00  0.00    +0.022 C 
ATOM     27  C   UNL     1      29.294 -21.895 -14.599  0.00  0.00    +0.038 C 
ATOM     28  C   UNL     1      29.342 -24.080 -15.627  0.00  0.00    +0.038 C 
ATOM     29  C   UNL     1      28.625 -22.967 -15.186  0.00  0.00    +0.139 C 
BRANCH  29  30
ATOM     30  O   UNL     1      27.272 -22.930 -15.331  0.00  0.00    -0.471 OA
ATOM     31  C   UNL     1      26.661 -21.642 -15.399  0.00  0.00    +0.252 C 
ENDBRANCH  29  30
ENDBRANCH   3  24
BRANCH  10  34
ATOM     32  O   UNL     1      35.615 -23.694 -11.709  0.00  0.00    -0.269 OA
ATOM     33  N   UNL     1      36.345 -25.167 -13.288  0.00  0.00    -0.324 N 
ATOM     34  C   UNL     1      35.531 -24.107 -12.884  0.00  0.00    +0.262 C 
ATOM     35  H   UNL     1      36.984 -25.566 -12.653  0.00  0.00    +0.145 HD
ATOM     36  H   UNL     1      36.281 -25.515 -14.206  0.00  0.00    +0.145 HD
ENDBRANCH  10  34
TORSDOF 5
ENDMDL
MODEL 2
REMARK VINA RESULT:     -10.5      1.969      5.007
REMARK  Name = 10182969
REMARK  5 active torsions:
REMARK  status: ('A' for Active; 'I' for Inactive)
REMARK    1  A    between atoms: N_2  and  C_11
REMARK    2  A    between atoms: N_3  and  C_24
REMARK    3  A    between atoms: C_10  and  C_34
REMARK    4  A    between atoms: C_12  and  N_18
REMARK    5  A    between atoms: C_29  and  O_30
REMARK                            x       y       z     vdW  Elec       q    Type
REMARK                         _______ _______ _______ _____ _____    ______ ____
ROOT
ATOM      1  O   UNL     1      35.289 -22.176 -16.598  0.00  0.00    -0.268 OA
ATOM      2  N   UNL     1      33.102 -21.594 -17.266  0.00  0.00    -0.254 N 
ATOM      3  N   UNL     1      34.123 -23.768 -14.425  0.00  0.00    -0.225 N 
ATOM      4  N   UNL     1      33.282 -24.446 -13.619  0.00  0.00    -0.161 NA
ATOM      5  C   UNL     1      31.146 -22.804 -16.189  0.00  0.00    +0.052 C 
ATOM      6  C   UNL     1      31.684 -21.504 -16.812  0.00  0.00    +0.103 C 
ATOM      7  C   UNL     1      32.154 -23.353 -15.267  0.00  0.00    +0.026 A 
ATOM      8  C   UNL     1      33.493 -23.089 -15.427  0.00  0.00    +0.134 A 
ATOM      9  C   UNL     1      34.072 -22.269 -16.466  0.00  0.00    +0.270 C 
ATOM     10  C   UNL     1      32.078 -24.190 -14.141  0.00  0.00    +0.152 A 
ENDROOT
BRANCH   2  11
ATOM     11  C   UNL     1      33.494 -20.824 -18.420  0.00  0.00    +0.054 C 
ATOM     12  C   UNL     1      34.253 -19.336 -20.647  0.00  0.00    +0.054 C 
ATOM     13  C   UNL     1      34.836 -20.761 -18.784  0.00  0.00    +0.016 C 
ATOM     14  C   UNL     1      32.529 -20.150 -19.161  0.00  0.00    +0.016 C 
ATOM     15  C   UNL     1      35.217 -20.015 -19.900  0.00  0.00    +0.016 C 
ATOM     16  C   UNL     1      32.909 -19.404 -20.277  0.00  0.00    +0.016 C 
BRANCH  12  18
ATOM     17  O   UNL     1      35.642 -16.816 -20.592  0.00  0.00    -0.275 OA
ATOM     18  N   UNL     1      34.646 -18.563 -21.804  0.00  0.00    -0.259 N 
ATOM     19  C   UNL     1      34.051 -18.933 -23.100  0.00  0.00    +0.098 C 
ATOM     20  C   UNL     1      34.862 -18.492 -24.308  0.00  0.00    +0.022 C 
ATOM     21  C   UNL     1      35.188 -17.021 -24.177  0.00  0.00    +0.011 C 
ATOM     22  C   UNL     1      36.016 -16.816 -22.927  0.00  0.00    +0.086 C 
ATOM     23  C   UNL     1      35.398 -17.384 -21.660  0.00  0.00    +0.229 C 
ENDBRANCH  12  18
ENDBRANCH   2  11
BRANCH   3  24
ATOM     24  C   UNL     1      35.494 -23.810 -14.169  0.00  0.00    +0.083 C 
ATOM     25  C   UNL     1      36.090 -22.779 -13.456  0.00  0.00    +0.022 C 
ATOM     26  C   UNL     1      36.246 -24.882 -14.633  0.00  0.00    +0.022 C 
ATOM     27  C   UNL     1      37.461 -22.819 -13.201  0.00  0.00    +0.038 C 
ATOM     28  C   UNL     1      37.617 -24.923 -14.378  0.00  0.00    +0.038 C 
ATOM     29  C   UNL     1      38.224 -23.891 -13.662  0.00  0.00    +0.139 C 
BRANCH  29  30
ATOM     30  O   UNL     1      39.562 -23.932 -13.413  0.00  0.00    -0.471 OA
ATOM     31  C   UNL     1      40.270 -25.091 -13.851  0.00  0.00    +0.252 C 
ENDBRANCH  29  30
ENDBRANCH   3  24
BRANCH  10  34
ATOM     32  O   UNL     1      30.155 -25.564 -14.135  0.00  0.00    -0.269 OA
ATOM     33  N   UNL     1      30.617 -24.413 -12.223  0.00  0.00    -0.324 N 
ATOM     34  C   UNL     1      30.907 -24.762 -13.544  0.00  0.00    +0.262 C 
ATOM     35  H   UNL     1      29.821 -24.785 -11.780  0.00  0.00    +0.145 HD
ATOM     36  H   UNL     1      31.208 -23.794 -11.737  0.00  0.00    +0.145 HD
ENDBRANCH  10  34
TORSDOF 5
ENDMDL
MODEL 3
REMARK VINA RESULT:     -10.4      1.471      2.151
REMARK  Name = 10182969
REMARK  5 active torsions:
REMARK  status: ('A' for Active; 'I' for Inactive)
REMARK    1  A    between atoms: N_2  and  C_11
REMARK    2  A    between atoms: N_3  and  C_24
REMARK    3  A    between atoms: C_10  and  C_34
REMARK    4  A    between atoms: C_12  and  N_18
REMARK    5  A    between atoms: C_29  and  O_30
REMARK                            x       y       z     vdW  Elec       q    Type
REMARK                         _______ _______ _______ _____ _____    ______ ____
ROOT
ATOM      1  O   UNL     1      33.552 -21.189 -17.376  0.00  0.00    -0.268 OA
ATOM      2  N   UNL     1      35.835 -20.939 -17.918  0.00  0.00    -0.254 N 
ATOM      3  N   UNL     1      34.357 -22.746 -15.022  0.00  0.00    -0.225 N 
ATOM      4  N   UNL     1      35.054 -23.325 -14.024  0.00  0.00    -0.161 NA
ATOM      5  C   UNL     1      37.570 -21.669 -16.213  0.00  0.00    +0.052 C 
ATOM      6  C   UNL     1      37.198 -21.504 -17.697  0.00  0.00    +0.103 C 
ATOM      7  C   UNL     1      36.431 -22.259 -15.491  0.00  0.00    +0.026 A 
ATOM      8  C   UNL     1      35.140 -22.099 -15.933  0.00  0.00    +0.134 A 
ATOM      9  C   UNL     1      34.738 -21.373 -17.115  0.00  0.00    +0.270 C 
ATOM     10  C   UNL     1      36.323 -23.021 -14.316  0.00  0.00    +0.152 A 
ENDROOT
BRANCH   2  11
ATOM     11  C   UNL     1      35.627 -20.103 -19.074  0.00  0.00    +0.054 C 
ATOM     12  C   UNL     1      35.225 -18.490 -21.307  0.00  0.00    +0.054 C 
ATOM     13  C   UNL     1      34.363 -20.027 -19.653  0.00  0.00    +0.016 C 
ATOM     14  C   UNL     1      36.690 -19.378 -19.603  0.00  0.00    +0.016 C 
ATOM     15  C   UNL     1      34.162 -19.218 -20.772  0.00  0.00    +0.016 C 
ATOM     16  C   UNL     1      36.489 -18.571 -20.722  0.00  0.00    +0.016 C 
BRANCH  12  18
ATOM     17  O   UNL     1      34.732 -19.419 -23.987  0.00  0.00    -0.275 OA
ATOM     18  N   UNL     1      35.017 -17.652 -22.467  0.00  0.00    -0.259 N 
ATOM     19  C   UNL     1      35.362 -16.225 -22.343  0.00  0.00    +0.098 C 
ATOM     20  C   UNL     1      34.649 -15.322 -23.335  0.00  0.00    +0.022 C 
ATOM     21  C   UNL     1      34.826 -15.878 -24.730  0.00  0.00    +0.011 C 
ATOM     22  C   UNL     1      34.205 -17.257 -24.786  0.00  0.00    +0.086 C 
ATOM     23  C   UNL     1      34.699 -18.216 -23.715  0.00  0.00    +0.229 C 
ENDBRANCH  12  18
ENDBRANCH   2  11
BRANCH   3  24
ATOM     24  C   UNL     1      32.968 -22.865 -15.039  0.00  0.00    +0.083 C 
ATOM     25  C   UNL     1      32.352 -23.574 -16.063  0.00  0.00    +0.022 C 
ATOM     26  C   UNL     1      32.216 -22.271 -14.033  0.00  0.00    +0.022 C 
ATOM     27  C   UNL     1      30.962 -23.691 -16.081  0.00  0.00    +0.038 C 
ATOM     28  C   UNL     1      30.826 -22.388 -14.051  0.00  0.00    +0.038 C 
ATOM     29  C   UNL     1      30.199 -23.098 -15.077  0.00  0.00    +0.139 C 
BRANCH  29  30
ATOM     30  O   UNL     1      28.843 -23.213 -15.094  0.00  0.00    -0.471 OA
ATOM     31  C   UNL     1      28.098 -22.058 -15.479  0.00  0.00    +0.252 C 
ENDBRANCH  29  30
ENDBRANCH   3  24
BRANCH  10  34
ATOM     32  O   UNL     1      38.020 -22.705 -12.700  0.00  0.00    -0.269 OA
ATOM     33  N   UNL     1      37.678 -24.831 -13.449  0.00  0.00    -0.324 N 
ATOM     34  C   UNL     1      37.379 -23.467 -13.453  0.00  0.00    +0.262 C 
ATOM     35  H   UNL     1      38.397 -25.175 -12.870  0.00  0.00    +0.145 HD
ATOM     36  H   UNL     1      37.171 -25.448 -14.025  0.00  0.00    +0.145 HD
ENDBRANCH  10  34
TORSDOF 5
ENDMDL
MODEL 4
REMARK VINA RESULT:      -8.4     10.126     14.353
REMARK  Name = 10182969
REMARK  5 active torsions:
REMARK  status: ('A' for Active; 'I' for Inactive)
REMARK    1  A    between atoms: N_2  and  C_11
REMARK    2  A    between atoms: N_3  and  C_24
REMARK    3  A    between atoms: C_10  and  C_34
REMARK    4  A    between atoms: C_12  and  N_18
REMARK    5  A    between atoms: C_29  and  O_30
REMARK                            x       y       z     vdW  Elec       q    Type
REMARK                         _______ _______ _______ _____ _____    ______ ____
ROOT
ATOM      1  O   UNL     1      34.056 -10.042 -23.812  0.00  0.00    -0.268 OA
ATOM      2  N   UNL     1      33.550  -8.000 -22.744  0.00  0.00    -0.254 N 
ATOM      3  N   UNL     1      32.825 -11.447 -21.548  0.00  0.00    -0.225 N 
ATOM      4  N   UNL     1      32.137 -11.758 -20.432  0.00  0.00    -0.161 NA
ATOM      5  C   UNL     1      32.046  -8.045 -20.698  0.00  0.00    +0.052 C 
ATOM      6  C   UNL     1      33.219  -7.373 -21.431  0.00  0.00    +0.103 C 
ATOM      7  C   UNL     1      32.206  -9.507 -20.767  0.00  0.00    +0.026 A 
ATOM      8  C   UNL     1      32.901 -10.106 -21.789  0.00  0.00    +0.134 A 
ATOM      9  C   UNL     1      33.549  -9.420 -22.883  0.00  0.00    +0.270 C 
ATOM     10  C   UNL     1      31.758 -10.566 -19.959  0.00  0.00    +0.152 A 
ENDROOT
BRANCH   2  11
ATOM     11  C   UNL     1      34.051  -7.149 -23.794  0.00  0.00    +0.054 C 
ATOM     12  C   UNL     1      35.016  -5.507 -25.825  0.00  0.00    +0.054 C 
ATOM     13  C   UNL     1      33.325  -6.025 -24.179  0.00  0.00    +0.016 C 
ATOM     14  C   UNL     1      35.256  -7.457 -24.417  0.00  0.00    +0.016 C 
ATOM     15  C   UNL     1      33.808  -5.203 -25.196  0.00  0.00    +0.016 C 
ATOM     16  C   UNL     1      35.740  -6.635 -25.436  0.00  0.00    +0.016 C 
BRANCH  12  18
ATOM     17  O   UNL     1      33.410  -4.070 -27.733  0.00  0.00    -0.275 OA
ATOM     18  N   UNL     1      35.518  -4.655 -26.879  0.00  0.00    -0.259 N 
ATOM     19  C   UNL     1      36.954  -4.743 -27.196  0.00  0.00    +0.098 C 
ATOM     20  C   UNL     1      37.519  -3.508 -27.879  0.00  0.00    +0.022 C 
ATOM     21  C   UNL     1      36.649  -3.154 -29.064  0.00  0.00    +0.011 C 
ATOM     22  C   UNL     1      35.254  -2.846 -28.567  0.00  0.00    +0.086 C 
ATOM     23  C   UNL     1      34.636  -3.932 -27.703  0.00  0.00    +0.229 C 
ENDBRANCH  12  18
ENDBRANCH   2  11
BRANCH   3  24
ATOM     24  C   UNL     1      33.381 -12.472 -22.313  0.00  0.00    +0.083 C 
ATOM     25  C   UNL     1      32.794 -12.821 -23.523  0.00  0.00    +0.022 C 
ATOM     26  C   UNL     1      34.513 -13.134 -21.855  0.00  0.00    +0.022 C 
ATOM     27  C   UNL     1      33.349 -13.847 -24.287  0.00  0.00    +0.038 C 
ATOM     28  C   UNL     1      35.068 -14.160 -22.620  0.00  0.00    +0.038 C 
ATOM     29  C   UNL     1      34.485 -14.517 -23.836  0.00  0.00    +0.139 C 
BRANCH  29  30
ATOM     30  O   UNL     1      35.028 -15.518 -24.583  0.00  0.00    -0.471 OA
ATOM     31  C   UNL     1      34.275 -16.725 -24.697  0.00  0.00    +0.252 C 
ENDBRANCH  29  30
ENDBRANCH   3  24
BRANCH  10  34
ATOM     32  O   UNL     1      29.733 -10.404 -18.751  0.00  0.00    -0.269 OA
ATOM     33  N   UNL     1      31.658 -10.545 -17.540  0.00  0.00    -0.324 N 
ATOM     34  C   UNL     1      30.978 -10.492 -18.758  0.00  0.00    +0.262 C 
ATOM     35  H   UNL     1      31.157 -10.496 -16.694  0.00  0.00    +0.145 HD
ATOM     36  H   UNL     1      32.639 -10.630 -17.527  0.00  0.00    +0.145 HD
ENDBRANCH  10  34
TORSDOF 5
ENDMDL
MODEL 5
REMARK VINA RESULT:      -8.4      9.400     15.868
REMARK  Name = 10182969
REMARK  5 active torsions:
REMARK  status: ('A' for Active; 'I' for Inactive)
REMARK    1  A    between atoms: N_2  and  C_11
REMARK    2  A    between atoms: N_3  and  C_24
REMARK    3  A    between atoms: C_10  and  C_34
REMARK    4  A    between atoms: C_12  and  N_18
REMARK    5  A    between atoms: C_29  and  O_30
REMARK                            x       y       z     vdW  Elec       q    Type
REMARK                         _______ _______ _______ _____ _____    ______ ____
ROOT
ATOM      1  O   UNL     1      33.459  -8.235 -24.027  0.00  0.00    -0.268 OA
ATOM      2  N   UNL     1      32.723  -9.302 -22.056  0.00  0.00    -0.254 N 
ATOM      3  N   UNL     1      32.783  -5.657 -22.796  0.00  0.00    -0.225 N 
ATOM      4  N   UNL     1      32.451  -4.679 -21.931  0.00  0.00    -0.161 NA
ATOM      5  C   UNL     1      32.203  -7.868 -20.025  0.00  0.00    +0.052 C 
ATOM      6  C   UNL     1      31.883  -9.137 -20.834  0.00  0.00    +0.103 C 
ATOM      7  C   UNL     1      32.348  -6.729 -20.948  0.00  0.00    +0.026 A 
ATOM      8  C   UNL     1      32.729  -6.909 -22.255  0.00  0.00    +0.134 A 
ATOM      9  C   UNL     1      33.019  -8.177 -22.882  0.00  0.00    +0.270 C 
ATOM     10  C   UNL     1      32.188  -5.341 -20.800  0.00  0.00    +0.152 A 
ENDROOT
BRANCH   2  11
ATOM     11  C   UNL     1      33.056 -10.641 -22.474  0.00  0.00    +0.054 C 
ATOM     12  C   UNL     1      33.698 -13.227 -23.282  0.00  0.00    +0.054 C 
ATOM     13  C   UNL     1      33.915 -10.835 -23.552  0.00  0.00    +0.016 C 
ATOM     14  C   UNL     1      32.517 -11.730 -21.797  0.00  0.00    +0.016 C 
ATOM     15  C   UNL     1      34.237 -12.130 -23.957  0.00  0.00    +0.016 C 
ATOM     16  C   UNL     1      32.838 -13.026 -22.202  0.00  0.00    +0.016 C 
BRANCH  12  18
ATOM     17  O   UNL     1      35.635 -14.947 -22.027  0.00  0.00    -0.275 OA
ATOM     18  N   UNL     1      34.031 -14.570 -23.701  0.00  0.00    -0.259 N 
ATOM     19  C   UNL     1      33.566 -15.000 -25.031  0.00  0.00    +0.098 C 
ATOM     20  C   UNL     1      33.456 -16.507 -25.196  0.00  0.00    +0.022 C 
ATOM     21  C   UNL     1      34.753 -17.151 -24.760  0.00  0.00    +0.011 C 
ATOM     22  C   UNL     1      34.986 -16.832 -23.299  0.00  0.00    +0.086 C 
ATOM     23  C   UNL     1      34.934 -15.352 -22.959  0.00  0.00    +0.229 C 
ENDBRANCH  12  18
ENDBRANCH   2  11
BRANCH   3  24
ATOM     24  C   UNL     1      33.124  -5.321 -24.107  0.00  0.00    +0.083 C 
ATOM     25  C   UNL     1      34.346  -5.729 -24.624  0.00  0.00    +0.022 C 
ATOM     26  C   UNL     1      32.236  -4.580 -24.878  0.00  0.00    +0.022 C 
ATOM     27  C   UNL     1      34.687  -5.391 -25.934  0.00  0.00    +0.038 C 
ATOM     28  C   UNL     1      32.577  -4.243 -26.187  0.00  0.00    +0.038 C 
ATOM     29  C   UNL     1      33.804  -4.648 -26.715  0.00  0.00    +0.139 C 
BRANCH  29  30
ATOM     30  O   UNL     1      34.136  -4.319 -27.994  0.00  0.00    -0.471 OA
ATOM     31  C   UNL     1      35.334  -3.567 -28.181  0.00  0.00    +0.252 C 
ENDBRANCH  29  30
ENDBRANCH   3  24
BRANCH  10  34
ATOM     32  O   UNL     1      32.484  -4.588 -18.579  0.00  0.00    -0.269 OA
ATOM     33  N   UNL     1      30.609  -3.893 -19.672  0.00  0.00    -0.324 N 
ATOM     34  C   UNL     1      31.802  -4.617 -19.624  0.00  0.00    +0.262 C 
ATOM     35  H   UNL     1      30.311  -3.384 -18.885  0.00  0.00    +0.145 HD
ATOM     36  H   UNL     1      30.067  -3.892 -20.494  0.00  0.00    +0.145 HD
ENDBRANCH  10  34
TORSDOF 5
ENDMDL
