MODEL 1
REMARK VINA RESULT:     -12.0      0.000      0.000
REMARK  Name = 154000
REMARK  7 active torsions:
REMARK  status: ('A' for Active; 'I' for Inactive)
REMARK    1  A    between atoms: O_1  and  C_5
REMARK    2  A    between atoms: O_1  and  C_17
REMARK    3  A    between atoms: C_2  and  C_8
REMARK    4  A    between atoms: C_8  and  C_13
REMARK    5  A    between atoms: C_17  and  C_18
REMARK    6  A    between atoms: C_18  and  C_21
REMARK    7  A    between atoms: C_23  and  C_25
REMARK                            x       y       z     vdW  Elec       q    Type
REMARK                         _______ _______ _______ _____ _____    ______ ____
ROOT
ATOM      1  O   UNL     1      33.199 -22.524 -17.571  0.00  0.00    -0.475 OA
ENDROOT
BRANCH   1   5
ATOM      2  C   UNL     1      35.255 -19.716 -19.801  0.00  0.00    -0.021 C 
ATOM      3  C   UNL     1      33.871 -19.768 -19.880  0.00  0.00    -0.001 C 
ATOM      4  C   UNL     1      35.961 -20.589 -18.987  0.00  0.00    -0.001 C 
ATOM      5  C   UNL     1      33.875 -21.599 -18.305  0.00  0.00    +0.139 C 
ATOM      6  C   UNL     1      33.177 -20.715 -19.128  0.00  0.00    +0.037 C 
ATOM      7  C   UNL     1      35.267 -21.536 -18.235  0.00  0.00    +0.037 C 
BRANCH   2   8
ATOM      8  C   UNL     1      36.005 -18.692 -20.616  0.00  0.00    +0.047 C 
BRANCH   8  13
ATOM      9  O   UNL     1      35.664 -15.549 -21.974  0.00  0.00    -0.346 OA
ATOM     10  O   UNL     1      35.080 -18.638 -23.497  0.00  0.00    -0.272 OA
ATOM     11  O   UNL     1      35.436 -15.844 -19.708  0.00  0.00    -0.247 OA
ATOM     12  N   UNL     1      35.557 -16.392 -23.100  0.00  0.00    -0.144 N 
ATOM     13  C   UNL     1      35.071 -17.687 -21.263  0.00  0.00    +0.184 C 
ATOM     14  C   UNL     1      35.226 -17.680 -22.754  0.00  0.00    +0.264 C 
ATOM     15  C   UNL     1      35.404 -16.278 -20.848  0.00  0.00    +0.348 C 
ATOM     16  H   UNL     1      35.703 -16.092 -24.026  0.00  0.00    +0.196 HD
ENDBRANCH   8  13
ENDBRANCH   2   8
ENDBRANCH   1   5
BRANCH   1  17
ATOM     17  C   UNL     1      32.361 -22.035 -16.524  0.00  0.00    +0.213 C 
BRANCH  17  18
ATOM     18  C   UNL     1      31.862 -23.201 -15.676  0.00  0.00    +0.105 C 
BRANCH  18  21
ATOM     19  O   UNL     1      33.371 -23.820 -12.411  0.00  0.00    -0.449 OA
ATOM     20  N   UNL     1      34.042 -23.350 -14.519  0.00  0.00    -0.373 NA
ATOM     21  C   UNL     1      32.691 -23.423 -14.444  0.00  0.00    +0.134 C 
ATOM     22  C   UNL     1      32.261 -23.703 -13.192  0.00  0.00    +0.216 C 
ATOM     23  C   UNL     1      34.396 -23.594 -13.277  0.00  0.00    +0.277 C 
ATOM     24  C   UNL     1      30.961 -23.895 -12.539  0.00  0.00    +0.055 C 
BRANCH  23  25
ATOM     25  C   UNL     1      35.711 -23.659 -12.700  0.00  0.00    +0.066 C 
ATOM     26  C   UNL     1      35.964 -23.071 -11.458  0.00  0.00    +0.006 C 
ATOM     27  C   UNL     1      36.744 -24.310 -13.380  0.00  0.00    +0.006 C 
ATOM     28  C   UNL     1      37.241 -23.134 -10.900  0.00  0.00    +0.000 C 
ATOM     29  C   UNL     1      38.021 -24.373 -12.822  0.00  0.00    +0.000 C 
ATOM     30  C   UNL     1      38.270 -23.785 -11.582  0.00  0.00    +0.000 C 
ENDBRANCH  23  25
ENDBRANCH  18  21
ENDBRANCH  17  18
ENDBRANCH   1  17
TORSDOF 7
ENDMDL
MODEL 2
REMARK VINA RESULT:     -11.9      1.150      1.690
REMARK  Name = 154000
REMARK  7 active torsions:
REMARK  status: ('A' for Active; 'I' for Inactive)
REMARK    1  A    between atoms: O_1  and  C_5
REMARK    2  A    between atoms: O_1  and  C_17
REMARK    3  A    between atoms: C_2  and  C_8
REMARK    4  A    between atoms: C_8  and  C_13
REMARK    5  A    between atoms: C_17  and  C_18
REMARK    6  A    between atoms: C_18  and  C_21
REMARK    7  A    between atoms: C_23  and  C_25
REMARK                            x       y       z     vdW  Elec       q    Type
REMARK                         _______ _______ _______ _____ _____    ______ ____
ROOT
ATOM      1  O   UNL     1      32.963 -21.929 -18.481  0.00  0.00    -0.475 OA
ENDROOT
BRANCH   1   5
ATOM      2  C   UNL     1      35.087 -18.965 -20.428  0.00  0.00    -0.021 C 
ATOM      3  C   UNL     1      35.768 -19.898 -19.659  0.00  0.00    -0.001 C 
ATOM      4  C   UNL     1      33.707 -19.009 -20.555  0.00  0.00    -0.001 C 
ATOM      5  C   UNL     1      33.663 -20.954 -19.122  0.00  0.00    +0.139 C 
ATOM      6  C   UNL     1      35.052 -20.898 -19.002  0.00  0.00    +0.037 C 
ATOM      7  C   UNL     1      32.991 -20.010 -19.898  0.00  0.00    +0.037 C 
BRANCH   2   8
ATOM      8  C   UNL     1      35.862 -17.883 -21.137  0.00  0.00    +0.047 C 
BRANCH   8  13
ATOM      9  O   UNL     1      35.568 -14.636 -22.238  0.00  0.00    -0.346 OA
ATOM     10  O   UNL     1      35.018 -17.585 -24.027  0.00  0.00    -0.272 OA
ATOM     11  O   UNL     1      35.277 -15.118 -20.011  0.00  0.00    -0.247 OA
ATOM     12  N   UNL     1      35.490 -15.382 -23.432  0.00  0.00    -0.144 N 
ATOM     13  C   UNL     1      34.950 -16.823 -21.723  0.00  0.00    +0.184 C 
ATOM     14  C   UNL     1      35.146 -16.693 -23.204  0.00  0.00    +0.264 C 
ATOM     15  C   UNL     1      35.275 -15.455 -21.183  0.00  0.00    +0.348 C 
ATOM     16  H   UNL     1      35.663 -15.007 -24.326  0.00  0.00    +0.196 HD
ENDBRANCH   8  13
ENDBRANCH   2   8
ENDBRANCH   1   5
BRANCH   1  17
ATOM     17  C   UNL     1      33.680 -22.736 -17.547  0.00  0.00    +0.213 C 
BRANCH  17  18
ATOM     18  C   UNL     1      33.006 -22.664 -16.180  0.00  0.00    +0.105 C 
BRANCH  18  21
ATOM     19  O   UNL     1      34.713 -23.712 -13.129  0.00  0.00    -0.449 OA
ATOM     20  N   UNL     1      35.183 -23.469 -15.328  0.00  0.00    -0.373 NA
ATOM     21  C   UNL     1      33.899 -23.128 -15.065  0.00  0.00    +0.134 C 
ATOM     22  C   UNL     1      33.589 -23.264 -13.755  0.00  0.00    +0.216 C 
ATOM     23  C   UNL     1      35.623 -23.809 -14.137  0.00  0.00    +0.277 C 
ATOM     24  C   UNL     1      32.400 -23.050 -12.922  0.00  0.00    +0.055 C 
BRANCH  23  25
ATOM     25  C   UNL     1      36.925 -24.271 -13.743  0.00  0.00    +0.066 C 
ATOM     26  C   UNL     1      37.599 -23.657 -12.683  0.00  0.00    +0.006 C 
ATOM     27  C   UNL     1      37.527 -25.335 -14.419  0.00  0.00    +0.006 C 
ATOM     28  C   UNL     1      38.864 -24.105 -12.303  0.00  0.00    +0.000 C 
ATOM     29  C   UNL     1      38.791 -25.784 -14.039  0.00  0.00    +0.000 C 
ATOM     30  C   UNL     1      39.461 -25.169 -12.981  0.00  0.00    +0.000 C 
ENDBRANCH  23  25
ENDBRANCH  18  21
ENDBRANCH  17  18
ENDBRANCH   1  17
TORSDOF 7
ENDMDL
MODEL 3
REMARK VINA RESULT:     -11.8      3.364     10.874
REMARK  Name = 154000
REMARK  7 active torsions:
REMARK  status: ('A' for Active; 'I' for Inactive)
REMARK    1  A    between atoms: O_1  and  C_5
REMARK    2  A    between atoms: O_1  and  C_17
REMARK    3  A    between atoms: C_2  and  C_8
REMARK    4  A    between atoms: C_8  and  C_13
REMARK    5  A    between atoms: C_17  and  C_18
REMARK    6  A    between atoms: C_18  and  C_21
REMARK    7  A    between atoms: C_23  and  C_25
REMARK                            x       y       z     vdW  Elec       q    Type
REMARK                         _______ _______ _______ _____ _____    ______ ____
ROOT
ATOM      1  O   UNL     1      36.174 -18.180 -20.932  0.00  0.00    -0.475 OA
ENDROOT
BRANCH   1   5
ATOM      2  C   UNL     1      34.408 -21.271 -18.830  0.00  0.00    -0.021 C 
ATOM      3  C   UNL     1      33.609 -20.386 -19.539  0.00  0.00    -0.001 C 
ATOM      4  C   UNL     1      35.788 -21.138 -18.814  0.00  0.00    -0.001 C 
ATOM      5  C   UNL     1      35.592 -19.198 -20.240  0.00  0.00    +0.139 C 
ATOM      6  C   UNL     1      34.204 -19.343 -20.248  0.00  0.00    +0.037 C 
ATOM      7  C   UNL     1      36.383 -20.095 -19.523  0.00  0.00    +0.037 C 
BRANCH   2   8
ATOM      8  C   UNL     1      33.764 -22.398 -18.063  0.00  0.00    +0.047 C 
BRANCH   8  13
ATOM      9  O   UNL     1      32.245 -23.245 -15.093  0.00  0.00    -0.346 OA
ATOM     10  O   UNL     1      35.656 -22.878 -15.750  0.00  0.00    -0.272 OA
ATOM     11  O   UNL     1      31.107 -21.985 -16.639  0.00  0.00    -0.247 OA
ATOM     12  N   UNL     1      33.608 -23.508 -14.837  0.00  0.00    -0.144 N 
ATOM     13  C   UNL     1      33.545 -22.039 -16.606  0.00  0.00    +0.184 C 
ATOM     14  C   UNL     1      34.437 -22.840 -15.706  0.00  0.00    +0.264 C 
ATOM     15  C   UNL     1      32.151 -22.390 -16.155  0.00  0.00    +0.348 C 
ATOM     16  H   UNL     1      33.927 -24.100 -14.118  0.00  0.00    +0.196 HD
ENDBRANCH   8  13
ENDBRANCH   2   8
ENDBRANCH   1   5
BRANCH   1  17
ATOM     17  C   UNL     1      35.543 -16.902 -20.860  0.00  0.00    +0.213 C 
BRANCH  17  18
ATOM     18  C   UNL     1      35.685 -16.182 -22.198  0.00  0.00    +0.105 C 
BRANCH  18  21
ATOM     19  O   UNL     1      33.374 -13.509 -23.114  0.00  0.00    -0.449 OA
ATOM     20  N   UNL     1      34.367 -14.317 -21.249  0.00  0.00    -0.373 NA
ATOM     21  C   UNL     1      34.734 -15.028 -22.342  0.00  0.00    +0.134 C 
ATOM     22  C   UNL     1      34.154 -14.566 -23.474  0.00  0.00    +0.216 C 
ATOM     23  C   UNL     1      33.555 -13.422 -21.768  0.00  0.00    +0.277 C 
ATOM     24  C   UNL     1      34.179 -14.925 -24.896  0.00  0.00    +0.055 C 
BRANCH  23  25
ATOM     25  C   UNL     1      32.828 -12.366 -21.119  0.00  0.00    +0.066 C 
ATOM     26  C   UNL     1      32.315 -12.552 -19.833  0.00  0.00    +0.006 C 
ATOM     27  C   UNL     1      32.628 -11.147 -21.773  0.00  0.00    +0.006 C 
ATOM     28  C   UNL     1      31.607 -11.527 -19.205  0.00  0.00    +0.000 C 
ATOM     29  C   UNL     1      31.921 -10.122 -21.146  0.00  0.00    +0.000 C 
ATOM     30  C   UNL     1      31.411 -10.311 -19.861  0.00  0.00    +0.000 C 
ENDBRANCH  23  25
ENDBRANCH  18  21
ENDBRANCH  17  18
ENDBRANCH   1  17
TORSDOF 7
ENDMDL
MODEL 4
REMARK VINA RESULT:     -11.7      5.884     10.363
REMARK  Name = 154000
REMARK  7 active torsions:
REMARK  status: ('A' for Active; 'I' for Inactive)
REMARK    1  A    between atoms: O_1  and  C_5
REMARK    2  A    between atoms: O_1  and  C_17
REMARK    3  A    between atoms: C_2  and  C_8
REMARK    4  A    between atoms: C_8  and  C_13
REMARK    5  A    between atoms: C_17  and  C_18
REMARK    6  A    between atoms: C_18  and  C_21
REMARK    7  A    between atoms: C_23  and  C_25
REMARK                            x       y       z     vdW  Elec       q    Type
REMARK                         _______ _______ _______ _____ _____    ______ ____
ROOT
ATOM      1  O   UNL     1      34.297 -13.339 -23.214  0.00  0.00    -0.475 OA
ENDROOT
BRANCH   1   5
ATOM      2  C   UNL     1      32.485  -9.889 -21.835  0.00  0.00    -0.021 C 
ATOM      3  C   UNL     1      33.386  -9.811 -22.886  0.00  0.00    -0.001 C 
ATOM      4  C   UNL     1      32.181 -11.103 -21.238  0.00  0.00    -0.001 C 
ATOM      5  C   UNL     1      33.701 -12.202 -22.760  0.00  0.00    +0.139 C 
ATOM      6  C   UNL     1      33.998 -10.975 -23.352  0.00  0.00    +0.037 C 
ATOM      7  C   UNL     1      32.792 -12.266 -21.703  0.00  0.00    +0.037 C 
BRANCH   2   8
ATOM      8  C   UNL     1      31.825  -8.630 -21.331  0.00  0.00    +0.047 C 
BRANCH   8  13
ATOM      9  O   UNL     1      32.334  -5.587 -19.808  0.00  0.00    -0.346 OA
ATOM     10  O   UNL     1      32.749  -8.779 -18.453  0.00  0.00    -0.272 OA
ATOM     11  O   UNL     1      32.547  -5.773 -22.087  0.00  0.00    -0.247 OA
ATOM     12  N   UNL     1      32.394  -6.493 -18.728  0.00  0.00    -0.144 N 
ATOM     13  C   UNL     1      32.811  -7.713 -20.633  0.00  0.00    +0.184 C 
ATOM     14  C   UNL     1      32.655  -7.777 -19.143  0.00  0.00    +0.264 C 
ATOM     15  C   UNL     1      32.555  -6.268 -20.972  0.00  0.00    +0.348 C 
ATOM     16  H   UNL     1      32.263  -6.235 -17.787  0.00  0.00    +0.196 HD
ENDBRANCH   8  13
ENDBRANCH   2   8
ENDBRANCH   1   5
BRANCH   1  17
ATOM     17  C   UNL     1      34.780 -14.255 -22.232  0.00  0.00    +0.213 C 
BRANCH  17  18
ATOM     18  C   UNL     1      35.649 -15.316 -22.900  0.00  0.00    +0.105 C 
BRANCH  18  21
ATOM     19  O   UNL     1      34.510 -18.760 -22.494  0.00  0.00    -0.449 OA
ATOM     20  N   UNL     1      35.536 -17.164 -21.262  0.00  0.00    -0.373 NA
ATOM     21  C   UNL     1      35.265 -16.715 -22.510  0.00  0.00    +0.134 C 
ATOM     22  C   UNL     1      34.651 -17.650 -23.271  0.00  0.00    +0.216 C 
ATOM     23  C   UNL     1      35.063 -18.390 -21.306  0.00  0.00    +0.277 C 
ATOM     24  C   UNL     1      34.140 -17.726 -24.644  0.00  0.00    +0.055 C 
BRANCH  23  25
ATOM     25  C   UNL     1      35.048 -19.399 -20.283  0.00  0.00    +0.066 C 
ATOM     26  C   UNL     1      36.246 -19.860 -19.730  0.00  0.00    +0.006 C 
ATOM     27  C   UNL     1      33.833 -19.928 -19.837  0.00  0.00    +0.006 C 
ATOM     28  C   UNL     1      36.229 -20.841 -18.739  0.00  0.00    +0.000 C 
ATOM     29  C   UNL     1      33.817 -20.908 -18.845  0.00  0.00    +0.000 C 
ATOM     30  C   UNL     1      35.015 -21.365 -18.296  0.00  0.00    +0.000 C 
ENDBRANCH  23  25
ENDBRANCH  18  21
ENDBRANCH  17  18
ENDBRANCH   1  17
TORSDOF 7
ENDMDL
MODEL 5
REMARK VINA RESULT:     -11.6      2.566     10.087
REMARK  Name = 154000
REMARK  7 active torsions:
REMARK  status: ('A' for Active; 'I' for Inactive)
REMARK    1  A    between atoms: O_1  and  C_5
REMARK    2  A    between atoms: O_1  and  C_17
REMARK    3  A    between atoms: C_2  and  C_8
REMARK    4  A    between atoms: C_8  and  C_13
REMARK    5  A    between atoms: C_17  and  C_18
REMARK    6  A    between atoms: C_18  and  C_21
REMARK    7  A    between atoms: C_23  and  C_25
REMARK                            x       y       z     vdW  Elec       q    Type
REMARK                         _______ _______ _______ _____ _____    ______ ____
ROOT
ATOM      1  O   UNL     1      35.800 -21.493 -16.475  0.00  0.00    -0.475 OA
ENDROOT
BRANCH   1   5
ATOM      2  C   UNL     1      36.848 -24.229 -13.559  0.00  0.00    -0.021 C 
ATOM      3  C   UNL     1      35.513 -23.892 -13.728  0.00  0.00    -0.001 C 
ATOM      4  C   UNL     1      37.837 -23.665 -14.351  0.00  0.00    -0.001 C 
ATOM      5  C   UNL     1      36.144 -22.394 -15.515  0.00  0.00    +0.139 C 
ATOM      6  C   UNL     1      35.159 -22.969 -14.712  0.00  0.00    +0.037 C 
ATOM      7  C   UNL     1      37.483 -22.742 -15.334  0.00  0.00    +0.037 C 
BRANCH   2   8
ATOM      8  C   UNL     1      37.230 -25.226 -12.494  0.00  0.00    +0.047 C 
BRANCH   8  13
ATOM      9  O   UNL     1      38.304 -22.291 -11.055  0.00  0.00    -0.346 OA
ATOM     10  O   UNL     1      35.630 -24.320 -10.091  0.00  0.00    -0.272 OA
ATOM     11  O   UNL     1      39.793 -23.612 -12.202  0.00  0.00    -0.247 OA
ATOM     12  N   UNL     1      37.060 -22.512 -10.429  0.00  0.00    -0.144 N 
ATOM     13  C   UNL     1      37.754 -24.547 -11.244  0.00  0.00    +0.184 C 
ATOM     14  C   UNL     1      36.661 -23.824 -10.516  0.00  0.00    +0.264 C 
ATOM     15  C   UNL     1      38.754 -23.471 -11.578  0.00  0.00    +0.348 C 
ATOM     16  H   UNL     1      36.538 -21.807  -9.981  0.00  0.00    +0.196 HD
ENDBRANCH   8  13
ENDBRANCH   2   8
ENDBRANCH   1   5
BRANCH   1  17
ATOM     17  C   UNL     1      36.862 -20.777 -17.105  0.00  0.00    +0.213 C 
BRANCH  17  18
ATOM     18  C   UNL     1      36.825 -21.018 -18.611  0.00  0.00    +0.105 C 
BRANCH  18  21
ATOM     19  O   UNL     1      34.224 -19.035 -20.230  0.00  0.00    -0.449 OA
ATOM     20  N   UNL     1      36.460 -18.939 -19.898  0.00  0.00    -0.373 NA
ATOM     21  C   UNL     1      35.932 -20.052 -19.335  0.00  0.00    +0.134 C 
ATOM     22  C   UNL     1      34.594 -20.135 -19.517  0.00  0.00    +0.216 C 
ATOM     23  C   UNL     1      35.396 -18.369 -20.419  0.00  0.00    +0.277 C 
ATOM     24  C   UNL     1      33.533 -21.079 -19.147  0.00  0.00    +0.055 C 
BRANCH  23  25
ATOM     25  C   UNL     1      35.290 -17.142 -21.159  0.00  0.00    +0.066 C 
ATOM     26  C   UNL     1      35.090 -15.931 -20.490  0.00  0.00    +0.006 C 
ATOM     27  C   UNL     1      35.385 -17.152 -22.553  0.00  0.00    +0.006 C 
ATOM     28  C   UNL     1      34.984 -14.741 -21.210  0.00  0.00    +0.000 C 
ATOM     29  C   UNL     1      35.280 -15.962 -23.273  0.00  0.00    +0.000 C 
ATOM     30  C   UNL     1      35.080 -14.756 -22.601  0.00  0.00    +0.000 C 
ENDBRANCH  23  25
ENDBRANCH  18  21
ENDBRANCH  17  18
ENDBRANCH   1  17
TORSDOF 7
ENDMDL
MODEL 6
REMARK VINA RESULT:     -11.4      2.659      9.732
REMARK  Name = 154000
REMARK  7 active torsions:
REMARK  status: ('A' for Active; 'I' for Inactive)
REMARK    1  A    between atoms: O_1  and  C_5
REMARK    2  A    between atoms: O_1  and  C_17
REMARK    3  A    between atoms: C_2  and  C_8
REMARK    4  A    between atoms: C_8  and  C_13
REMARK    5  A    between atoms: C_17  and  C_18
REMARK    6  A    between atoms: C_18  and  C_21
REMARK    7  A    between atoms: C_23  and  C_25
REMARK                            x       y       z     vdW  Elec       q    Type
REMARK                         _______ _______ _______ _____ _____    ______ ____
ROOT
ATOM      1  O   UNL     1      33.947 -23.186 -16.402  0.00  0.00    -0.475 OA
ENDROOT
BRANCH   1   5
ATOM      2  C   UNL     1      36.708 -23.163 -13.327  0.00  0.00    -0.021 C 
ATOM      3  C   UNL     1      36.928 -22.372 -14.446  0.00  0.00    -0.001 C 
ATOM      4  C   UNL     1      35.580 -23.961 -13.222  0.00  0.00    -0.001 C 
ATOM      5  C   UNL     1      34.856 -23.178 -15.390  0.00  0.00    +0.139 C 
ATOM      6  C   UNL     1      35.997 -22.380 -15.484  0.00  0.00    +0.037 C 
ATOM      7  C   UNL     1      34.648 -23.969 -14.260  0.00  0.00    +0.037 C 
BRANCH   2   8
ATOM      8  C   UNL     1      37.717 -23.155 -12.206  0.00  0.00    +0.047 C 
BRANCH   8  13
ATOM      9  O   UNL     1      37.976 -26.479 -13.060  0.00  0.00    -0.346 OA
ATOM     10  O   UNL     1      39.940 -23.806 -14.154  0.00  0.00    -0.272 OA
ATOM     11  O   UNL     1      37.077 -25.888 -11.030  0.00  0.00    -0.247 OA
ATOM     12  N   UNL     1      38.830 -25.848 -13.988  0.00  0.00    -0.144 N 
ATOM     13  C   UNL     1      38.593 -24.394 -12.222  0.00  0.00    +0.184 C 
ATOM     14  C   UNL     1      39.222 -24.600 -13.566  0.00  0.00    +0.264 C 
ATOM     15  C   UNL     1      37.784 -25.644 -11.995  0.00  0.00    +0.348 C 
ATOM     16  H   UNL     1      39.113 -26.254 -14.839  0.00  0.00    +0.196 HD
ENDBRANCH   8  13
ENDBRANCH   2   8
ENDBRANCH   1   5
BRANCH   1  17
ATOM     17  C   UNL     1      33.724 -21.953 -17.086  0.00  0.00    +0.213 C 
BRANCH  17  18
ATOM     18  C   UNL     1      34.074 -22.111 -18.562  0.00  0.00    +0.105 C 
BRANCH  18  21
ATOM     19  O   UNL     1      36.313 -19.405 -19.555  0.00  0.00    -0.449 OA
ATOM     20  N   UNL     1      34.230 -20.139 -20.045  0.00  0.00    -0.373 NA
ATOM     21  C   UNL     1      34.818 -20.930 -19.116  0.00  0.00    +0.134 C 
ATOM     22  C   UNL     1      36.067 -20.514 -18.803  0.00  0.00    +0.216 C 
ATOM     23  C   UNL     1      35.166 -19.245 -20.271  0.00  0.00    +0.277 C 
ATOM     24  C   UNL     1      37.134 -20.959 -17.900  0.00  0.00    +0.055 C 
BRANCH  23  25
ATOM     25  C   UNL     1      35.157 -18.121 -21.168  0.00  0.00    +0.066 C 
ATOM     26  C   UNL     1      34.925 -18.312 -22.533  0.00  0.00    +0.006 C 
ATOM     27  C   UNL     1      35.383 -16.832 -20.679  0.00  0.00    +0.006 C 
ATOM     28  C   UNL     1      34.918 -17.221 -23.402  0.00  0.00    +0.000 C 
ATOM     29  C   UNL     1      35.376 -15.741 -21.548  0.00  0.00    +0.000 C 
ATOM     30  C   UNL     1      35.143 -15.935 -22.910  0.00  0.00    +0.000 C 
ENDBRANCH  23  25
ENDBRANCH  18  21
ENDBRANCH  17  18
ENDBRANCH   1  17
TORSDOF 7
ENDMDL
MODEL 7
REMARK VINA RESULT:     -11.4      5.325     12.103
REMARK  Name = 154000
REMARK  7 active torsions:
REMARK  status: ('A' for Active; 'I' for Inactive)
REMARK    1  A    between atoms: O_1  and  C_5
REMARK    2  A    between atoms: O_1  and  C_17
REMARK    3  A    between atoms: C_2  and  C_8
REMARK    4  A    between atoms: C_8  and  C_13
REMARK    5  A    between atoms: C_17  and  C_18
REMARK    6  A    between atoms: C_18  and  C_21
REMARK    7  A    between atoms: C_23  and  C_25
REMARK                            x       y       z     vdW  Elec       q    Type
REMARK                         _______ _______ _______ _____ _____    ______ ____
ROOT
ATOM      1  O   UNL     1      35.200 -15.004 -23.003  0.00  0.00    -0.475 OA
ENDROOT
BRANCH   1   5
ATOM      2  C   UNL     1      35.436 -18.710 -21.189  0.00  0.00    -0.021 C 
ATOM      3  C   UNL     1      35.151 -18.633 -22.544  0.00  0.00    -0.001 C 
ATOM      4  C   UNL     1      35.643 -17.567 -20.432  0.00  0.00    -0.001 C 
ATOM      5  C   UNL     1      35.277 -16.225 -22.406  0.00  0.00    +0.139 C 
ATOM      6  C   UNL     1      35.071 -17.382 -23.157  0.00  0.00    +0.037 C 
ATOM      7  C   UNL     1      35.563 -16.317 -21.044  0.00  0.00    +0.037 C 
BRANCH   2   8
ATOM      8  C   UNL     1      35.521 -20.063 -20.527  0.00  0.00    +0.047 C 
BRANCH   8  13
ATOM      9  O   UNL     1      32.935 -21.618 -18.873  0.00  0.00    -0.346 OA
ATOM     10  O   UNL     1      36.277 -21.346 -17.892  0.00  0.00    -0.272 OA
ATOM     11  O   UNL     1      32.493 -19.875 -20.301  0.00  0.00    -0.247 OA
ATOM     12  N   UNL     1      34.072 -22.052 -18.159  0.00  0.00    -0.144 N 
ATOM     13  C   UNL     1      34.685 -20.130 -19.263  0.00  0.00    +0.184 C 
ATOM     14  C   UNL     1      35.154 -21.227 -18.356  0.00  0.00    +0.264 C 
ATOM     15  C   UNL     1      33.253 -20.485 -19.568  0.00  0.00    +0.348 C 
ATOM     16  H   UNL     1      34.088 -22.852 -17.585  0.00  0.00    +0.196 HD
ENDBRANCH   8  13
ENDBRANCH   2   8
ENDBRANCH   1   5
BRANCH   1  17
ATOM     17  C   UNL     1      34.776 -13.909 -22.190  0.00  0.00    +0.213 C 
BRANCH  17  18
ATOM     18  C   UNL     1      33.522 -13.278 -22.788  0.00  0.00    +0.105 C 
BRANCH  18  21
ATOM     19  O   UNL     1      32.135 -10.898 -20.394  0.00  0.00    -0.449 OA
ATOM     20  N   UNL     1      33.025 -10.877 -22.473  0.00  0.00    -0.373 NA
ATOM     21  C   UNL     1      32.998 -12.134 -21.969  0.00  0.00    +0.134 C 
ATOM     22  C   UNL     1      32.470 -12.177 -20.725  0.00  0.00    +0.216 C 
ATOM     23  C   UNL     1      32.497 -10.180 -21.492  0.00  0.00    +0.277 C 
ATOM     24  C   UNL     1      32.197 -13.218 -19.727  0.00  0.00    +0.055 C 
BRANCH  23  25
ATOM     25  C   UNL     1      32.249  -8.767 -21.408  0.00  0.00    +0.066 C 
ATOM     26  C   UNL     1      32.538  -8.070 -20.231  0.00  0.00    +0.006 C 
ATOM     27  C   UNL     1      31.714  -8.082 -22.502  0.00  0.00    +0.006 C 
ATOM     28  C   UNL     1      32.294  -6.699 -20.150  0.00  0.00    +0.000 C 
ATOM     29  C   UNL     1      31.471  -6.711 -22.421  0.00  0.00    +0.000 C 
ATOM     30  C   UNL     1      31.761  -6.019 -21.245  0.00  0.00    +0.000 C 
ENDBRANCH  23  25
ENDBRANCH  18  21
ENDBRANCH  17  18
ENDBRANCH   1  17
TORSDOF 7
ENDMDL
MODEL 8
REMARK VINA RESULT:     -11.4      2.804      4.811
REMARK  Name = 154000
REMARK  7 active torsions:
REMARK  status: ('A' for Active; 'I' for Inactive)
REMARK    1  A    between atoms: O_1  and  C_5
REMARK    2  A    between atoms: O_1  and  C_17
REMARK    3  A    between atoms: C_2  and  C_8
REMARK    4  A    between atoms: C_8  and  C_13
REMARK    5  A    between atoms: C_17  and  C_18
REMARK    6  A    between atoms: C_18  and  C_21
REMARK    7  A    between atoms: C_23  and  C_25
REMARK                            x       y       z     vdW  Elec       q    Type
REMARK                         _______ _______ _______ _____ _____    ______ ____
ROOT
ATOM      1  O   UNL     1      35.521 -19.458 -19.596  0.00  0.00    -0.475 OA
ENDROOT
BRANCH   1   5
ATOM      2  C   UNL     1      35.408 -16.556 -22.537  0.00  0.00    -0.021 C 
ATOM      3  C   UNL     1      35.243 -17.888 -22.888  0.00  0.00    -0.001 C 
ATOM      4  C   UNL     1      35.611 -16.181 -21.218  0.00  0.00    -0.001 C 
ATOM      5  C   UNL     1      35.484 -18.503 -20.565  0.00  0.00    +0.139 C 
ATOM      6  C   UNL     1      35.281 -18.867 -21.896  0.00  0.00    +0.037 C 
ATOM      7  C   UNL     1      35.649 -17.160 -20.226  0.00  0.00    +0.037 C 
BRANCH   2   8
ATOM      8  C   UNL     1      35.368 -15.497 -23.610  0.00  0.00    +0.047 C 
BRANCH   8  13
ATOM      9  O   UNL     1      33.618 -12.698 -24.578  0.00  0.00    -0.346 OA
ATOM     10  O   UNL     1      33.151 -16.002 -25.607  0.00  0.00    -0.272 OA
ATOM     11  O   UNL     1      34.633 -12.754 -22.519  0.00  0.00    -0.247 OA
ATOM     12  N   UNL     1      33.180 -13.675 -25.496  0.00  0.00    -0.144 N 
ATOM     13  C   UNL     1      34.018 -14.810 -23.679  0.00  0.00    +0.184 C 
ATOM     14  C   UNL     1      33.402 -14.952 -25.038  0.00  0.00    +0.264 C 
ATOM     15  C   UNL     1      34.147 -13.322 -23.484  0.00  0.00    +0.348 C 
ATOM     16  H   UNL     1      32.764 -13.467 -26.363  0.00  0.00    +0.196 HD
ENDBRANCH   8  13
ENDBRANCH   2   8
ENDBRANCH   1   5
BRANCH   1  17
ATOM     17  C   UNL     1      34.330 -20.216 -19.385  0.00  0.00    +0.213 C 
BRANCH  17  18
ATOM     18  C   UNL     1      34.690 -21.662 -19.059  0.00  0.00    +0.105 C 
BRANCH  18  21
ATOM     19  O   UNL     1      34.478 -22.406 -15.492  0.00  0.00    -0.449 OA
ATOM     20  N   UNL     1      33.149 -22.506 -17.320  0.00  0.00    -0.373 NA
ATOM     21  C   UNL     1      34.379 -22.035 -17.638  0.00  0.00    +0.134 C 
ATOM     22  C   UNL     1      35.196 -21.964 -16.562  0.00  0.00    +0.216 C 
ATOM     23  C   UNL     1      33.264 -22.712 -16.027  0.00  0.00    +0.277 C 
ATOM     24  C   UNL     1      36.580 -21.548 -16.312  0.00  0.00    +0.055 C 
BRANCH  23  25
ATOM     25  C   UNL     1      32.293 -23.213 -15.093  0.00  0.00    +0.066 C 
ATOM     26  C   UNL     1      32.707 -23.806 -13.896  0.00  0.00    +0.006 C 
ATOM     27  C   UNL     1      30.929 -23.112 -15.377  0.00  0.00    +0.006 C 
ATOM     28  C   UNL     1      31.764 -24.293 -12.992  0.00  0.00    +0.000 C 
ATOM     29  C   UNL     1      29.985 -23.598 -14.473  0.00  0.00    +0.000 C 
ATOM     30  C   UNL     1      30.403 -24.189 -13.280  0.00  0.00    +0.000 C 
ENDBRANCH  23  25
ENDBRANCH  18  21
ENDBRANCH  17  18
ENDBRANCH   1  17
TORSDOF 7
ENDMDL
MODEL 9
REMARK VINA RESULT:     -11.3      4.568     11.487
REMARK  Name = 154000
REMARK  7 active torsions:
REMARK  status: ('A' for Active; 'I' for Inactive)
REMARK    1  A    between atoms: O_1  and  C_5
REMARK    2  A    between atoms: O_1  and  C_17
REMARK    3  A    between atoms: C_2  and  C_8
REMARK    4  A    between atoms: C_8  and  C_13
REMARK    5  A    between atoms: C_17  and  C_18
REMARK    6  A    between atoms: C_18  and  C_21
REMARK    7  A    between atoms: C_23  and  C_25
REMARK                            x       y       z     vdW  Elec       q    Type
REMARK                         _______ _______ _______ _____ _____    ______ ____
ROOT
ATOM      1  O   UNL     1      35.095 -15.166 -23.206  0.00  0.00    -0.475 OA
ENDROOT
BRANCH   1   5
ATOM      2  C   UNL     1      35.425 -18.787 -21.240  0.00  0.00    -0.021 C 
ATOM      3  C   UNL     1      35.712 -17.614 -20.558  0.00  0.00    -0.001 C 
ATOM      4  C   UNL     1      35.031 -18.767 -22.569  0.00  0.00    -0.001 C 
ATOM      5  C   UNL     1      35.204 -16.358 -22.558  0.00  0.00    +0.139 C 
ATOM      6  C   UNL     1      35.601 -16.392 -21.221  0.00  0.00    +0.037 C 
ATOM      7  C   UNL     1      34.920 -17.546 -23.232  0.00  0.00    +0.037 C 
BRANCH   2   8
ATOM      8  C   UNL     1      35.547 -20.108 -20.523  0.00  0.00    +0.047 C 
BRANCH   8  13
ATOM      9  O   UNL     1      32.961 -21.609 -18.819  0.00  0.00    -0.346 OA
ATOM     10  O   UNL     1      36.311 -21.343 -17.867  0.00  0.00    -0.272 OA
ATOM     11  O   UNL     1      32.522 -19.892 -20.280  0.00  0.00    -0.247 OA
ATOM     12  N   UNL     1      34.100 -22.037 -18.104  0.00  0.00    -0.144 N 
ATOM     13  C   UNL     1      34.719 -20.143 -19.252  0.00  0.00    +0.184 C 
ATOM     14  C   UNL     1      35.186 -21.225 -18.326  0.00  0.00    +0.264 C 
ATOM     15  C   UNL     1      33.283 -20.493 -19.539  0.00  0.00    +0.348 C 
ATOM     16  H   UNL     1      34.113 -22.825 -17.514  0.00  0.00    +0.196 HD
ENDBRANCH   8  13
ENDBRANCH   2   8
ENDBRANCH   1   5
BRANCH   1  17
ATOM     17  C   UNL     1      33.953 -14.984 -24.043  0.00  0.00    +0.213 C 
BRANCH  17  18
ATOM     18  C   UNL     1      34.024 -13.619 -24.722  0.00  0.00    +0.105 C 
BRANCH  18  21
ATOM     19  O   UNL     1      33.496 -10.527 -22.856  0.00  0.00    -0.449 OA
ATOM     20  N   UNL     1      33.099 -12.740 -22.604  0.00  0.00    -0.373 NA
ATOM     21  C   UNL     1      33.708 -12.487 -23.787  0.00  0.00    +0.134 C 
ATOM     22  C   UNL     1      33.957 -11.169 -23.965  0.00  0.00    +0.216 C 
ATOM     23  C   UNL     1      32.997 -11.535 -22.089  0.00  0.00    +0.277 C 
ATOM     24  C   UNL     1      34.570 -10.341 -25.010  0.00  0.00    +0.055 C 
BRANCH  23  25
ATOM     25  C   UNL     1      32.434 -11.125 -20.832  0.00  0.00    +0.066 C 
ATOM     26  C   UNL     1      32.210 -12.065 -19.821  0.00  0.00    +0.006 C 
ATOM     27  C   UNL     1      32.104  -9.785 -20.614  0.00  0.00    +0.006 C 
ATOM     28  C   UNL     1      31.661 -11.666 -18.603  0.00  0.00    +0.000 C 
ATOM     29  C   UNL     1      31.555  -9.386 -19.395  0.00  0.00    +0.000 C 
ATOM     30  C   UNL     1      31.333 -10.327 -18.389  0.00  0.00    +0.000 C 
ENDBRANCH  23  25
ENDBRANCH  18  21
ENDBRANCH  17  18
ENDBRANCH   1  17
TORSDOF 7
ENDMDL
