MODEL 1
REMARK VINA RESULT:     -12.4      0.000      0.000
REMARK  Name = 5288711
REMARK  4 active torsions:
REMARK  status: ('A' for Active; 'I' for Inactive)
REMARK    1  A    between atoms: C_1  and  S_7
REMARK    2  A    between atoms: C_2  and  N_17
REMARK    3  A    between atoms: S_7  and  N_11
REMARK    4  A    between atoms: N_17  and  C_25
REMARK                            x       y       z     vdW  Elec       q    Type
REMARK                         _______ _______ _______ _____ _____    ______ ____
ROOT
ATOM      1  C   UNL     1      34.797 -21.111 -18.745  0.00  0.00    +0.125 C 
ATOM      2  C   UNL     1      35.942 -19.042 -20.237  0.00  0.00    +0.048 C 
ATOM      3  C   UNL     1      33.988 -20.272 -19.511  0.00  0.00    +0.021 C 
ATOM      4  C   UNL     1      36.178 -20.918 -18.724  0.00  0.00    +0.021 C 
ATOM      5  C   UNL     1      34.559 -19.240 -20.255  0.00  0.00    +0.016 C 
ATOM      6  C   UNL     1      36.750 -19.886 -19.469  0.00  0.00    +0.016 C 
ENDROOT
BRANCH   1   7
ATOM      7  S   UNL     1      34.083 -22.402 -17.812  0.00  0.00    +0.075 S 
ATOM      8  O   UNL     1      33.804 -23.518 -18.707  0.00  0.00    -0.150 OA
ATOM      9  O   UNL     1      34.921 -22.617 -16.639  0.00  0.00    -0.150 OA
BRANCH   7  11
ATOM     10  S   UNL     1      30.237 -22.498 -16.120  0.00  0.00    -0.050 S 
ATOM     11  N   UNL     1      32.593 -21.687 -17.340  0.00  0.00    -0.194 N 
ATOM     12  N   UNL     1      32.618 -22.688 -15.133  0.00  0.00    -0.221 NA
ATOM     13  C   UNL     1      31.928 -22.293 -16.166  0.00  0.00    +0.179 C 
ATOM     14  C   UNL     1      30.405 -23.189 -14.560  0.00  0.00    +0.059 C 
ATOM     15  C   UNL     1      31.738 -23.206 -14.203  0.00  0.00    +0.108 C 
ATOM     16  H   UNL     1      32.207 -20.919 -17.820  0.00  0.00    +0.176 HD
ENDBRANCH   7  11
ENDBRANCH   1   7
BRANCH   2  17
ATOM     17  N   UNL     1      36.517 -18.003 -20.987  0.00  0.00    -0.311 N 
ATOM     18  H   UNL     1      37.427 -17.738 -20.722  0.00  0.00    +0.152 HD
BRANCH  17  25
ATOM     19  O   UNL     1      35.474 -15.672 -19.615  0.00  0.00    -0.270 OA
ATOM     20  N   UNL     1      34.447 -14.212 -21.163  0.00  0.00    -0.280 N 
ATOM     21  C   UNL     1      34.778 -15.389 -23.111  0.00  0.00    +0.019 C 
ATOM     22  C   UNL     1      35.355 -16.139 -22.000  0.00  0.00    +0.069 C 
ATOM     23  C   UNL     1      34.240 -14.228 -22.547  0.00  0.00    +0.051 C 
ATOM     24  C   UNL     1      35.130 -15.357 -20.738  0.00  0.00    +0.251 C 
ATOM     25  C   UNL     1      35.984 -17.316 -22.029  0.00  0.00    +0.066 C 
ATOM     26  C   UNL     1      34.689 -15.619 -24.470  0.00  0.00    +0.001 C 
ATOM     27  C   UNL     1      33.603 -13.265 -23.303  0.00  0.00    +0.015 C 
ATOM     28  C   UNL     1      34.047 -14.656 -25.257  0.00  0.00    +0.000 C 
ATOM     29  C   UNL     1      33.510 -13.491 -24.679  0.00  0.00    +0.001 C 
ATOM     30  H   UNL     1      34.150 -13.490 -20.565  0.00  0.00    +0.155 HD
ENDBRANCH  17  25
ENDBRANCH   2  17
TORSDOF 4
ENDMDL
MODEL 2
REMARK VINA RESULT:     -12.2      1.373      1.756
REMARK  Name = 5288711
REMARK  4 active torsions:
REMARK  status: ('A' for Active; 'I' for Inactive)
REMARK    1  A    between atoms: C_1  and  S_7
REMARK    2  A    between atoms: C_2  and  N_17
REMARK    3  A    between atoms: S_7  and  N_11
REMARK    4  A    between atoms: N_17  and  C_25
REMARK                            x       y       z     vdW  Elec       q    Type
REMARK                         _______ _______ _______ _____ _____    ______ ____
ROOT
ATOM      1  C   UNL     1      34.611 -21.166 -18.626  0.00  0.00    +0.125 C 
ATOM      2  C   UNL     1      35.676 -19.230 -20.338  0.00  0.00    +0.048 C 
ATOM      3  C   UNL     1      33.764 -20.400 -19.427  0.00  0.00    +0.021 C 
ATOM      4  C   UNL     1      35.990 -20.966 -18.680  0.00  0.00    +0.021 C 
ATOM      5  C   UNL     1      34.295 -19.435 -20.281  0.00  0.00    +0.016 C 
ATOM      6  C   UNL     1      36.522 -20.000 -19.534  0.00  0.00    +0.016 C 
ENDROOT
BRANCH   1   7
ATOM      7  S   UNL     1      33.946 -22.375 -17.556  0.00  0.00    +0.075 S 
ATOM      8  O   UNL     1      33.745 -23.603 -18.316  0.00  0.00    -0.150 OA
ATOM      9  O   UNL     1      34.768 -22.402 -16.354  0.00  0.00    -0.150 OA
BRANCH   7  11
ATOM     10  S   UNL     1      30.015 -22.534 -16.078  0.00  0.00    -0.050 S 
ATOM     11  N   UNL     1      32.410 -21.692 -17.196  0.00  0.00    -0.194 N 
ATOM     12  N   UNL     1      32.341 -22.608 -14.953  0.00  0.00    -0.221 NA
ATOM     13  C   UNL     1      31.699 -22.276 -16.038  0.00  0.00    +0.179 C 
ATOM     14  C   UNL     1      30.116 -23.161 -14.485  0.00  0.00    +0.059 C 
ATOM     15  C   UNL     1      31.426 -23.120 -14.054  0.00  0.00    +0.108 C 
ATOM     16  H   UNL     1      32.028 -20.956 -17.726  0.00  0.00    +0.176 HD
ENDBRANCH   7  11
ENDBRANCH   1   7
BRANCH   2  17
ATOM     17  N   UNL     1      36.212 -18.257 -21.198  0.00  0.00    -0.311 N 
ATOM     18  H   UNL     1      36.960 -18.553 -21.764  0.00  0.00    +0.152 HD
BRANCH  17  25
ATOM     19  O   UNL     1      34.996 -18.362 -23.828  0.00  0.00    -0.270 OA
ATOM     20  N   UNL     1      34.203 -16.223 -24.441  0.00  0.00    -0.280 N 
ATOM     21  C   UNL     1      34.799 -15.019 -22.574  0.00  0.00    +0.019 C 
ATOM     22  C   UNL     1      35.211 -16.408 -22.394  0.00  0.00    +0.069 C 
ATOM     23  C   UNL     1      34.192 -14.963 -23.832  0.00  0.00    +0.051 C 
ATOM     24  C   UNL     1      34.815 -17.178 -23.621  0.00  0.00    +0.251 C 
ATOM     25  C   UNL     1      35.833 -16.963 -21.352  0.00  0.00    +0.066 C 
ATOM     26  C   UNL     1      34.903 -13.887 -21.789  0.00  0.00    +0.001 C 
ATOM     27  C   UNL     1      33.673 -13.794 -24.351  0.00  0.00    +0.015 C 
ATOM     28  C   UNL     1      34.382 -12.691 -22.294  0.00  0.00    +0.000 C 
ATOM     29  C   UNL     1      33.773 -12.645 -23.562  0.00  0.00    +0.001 C 
ATOM     30  H   UNL     1      33.829 -16.414 -25.330  0.00  0.00    +0.155 HD
ENDBRANCH  17  25
ENDBRANCH   2  17
TORSDOF 4
ENDMDL
MODEL 3
REMARK VINA RESULT:     -11.7      2.859      9.770
REMARK  Name = 5288711
REMARK  4 active torsions:
REMARK  status: ('A' for Active; 'I' for Inactive)
REMARK    1  A    between atoms: C_1  and  S_7
REMARK    2  A    between atoms: C_2  and  N_17
REMARK    3  A    between atoms: S_7  and  N_11
REMARK    4  A    between atoms: N_17  and  C_25
REMARK                            x       y       z     vdW  Elec       q    Type
REMARK                         _______ _______ _______ _____ _____    ______ ____
ROOT
ATOM      1  C   UNL     1      35.638 -19.014 -20.368  0.00  0.00    +0.125 C 
ATOM      2  C   UNL     1      34.983 -21.113 -18.642  0.00  0.00    +0.048 C 
ATOM      3  C   UNL     1      36.643 -19.683 -19.669  0.00  0.00    +0.021 C 
ATOM      4  C   UNL     1      34.306 -19.393 -20.206  0.00  0.00    +0.021 C 
ATOM      5  C   UNL     1      36.317 -20.730 -18.809  0.00  0.00    +0.016 C 
ATOM      6  C   UNL     1      33.978 -20.441 -19.345  0.00  0.00    +0.016 C 
ENDROOT
BRANCH   1   7
ATOM      7  S   UNL     1      36.047 -17.702 -21.445  0.00  0.00    +0.075 S 
ATOM      8  O   UNL     1      35.273 -16.529 -21.059  0.00  0.00    -0.150 OA
ATOM      9  O   UNL     1      37.501 -17.614 -21.504  0.00  0.00    -0.150 OA
BRANCH   7  11
ATOM     10  S   UNL     1      33.385 -17.679 -24.697  0.00  0.00    -0.050 S 
ATOM     11  N   UNL     1      35.440 -18.297 -22.939  0.00  0.00    -0.194 N 
ATOM     12  N   UNL     1      35.287 -16.098 -23.947  0.00  0.00    -0.221 NA
ATOM     13  C   UNL     1      34.795 -17.298 -23.819  0.00  0.00    +0.179 C 
ATOM     14  C   UNL     1      33.402 -16.086 -25.333  0.00  0.00    +0.059 C 
ATOM     15  C   UNL     1      34.483 -15.396 -24.823  0.00  0.00    +0.108 C 
ATOM     16  H   UNL     1      35.519 -19.245 -23.195  0.00  0.00    +0.176 HD
ENDBRANCH   7  11
ENDBRANCH   1   7
BRANCH   2  17
ATOM     17  N   UNL     1      34.654 -22.168 -17.776  0.00  0.00    -0.311 N 
ATOM     18  H   UNL     1      35.333 -22.875 -17.686  0.00  0.00    +0.152 HD
BRANCH  17  25
ATOM     19  O   UNL     1      35.719 -23.555 -15.463  0.00  0.00    -0.270 OA
ATOM     20  N   UNL     1      33.982 -24.032 -13.934  0.00  0.00    -0.280 N 
ATOM     21  C   UNL     1      32.191 -23.129 -15.058  0.00  0.00    +0.019 C 
ATOM     22  C   UNL     1      33.398 -22.934 -15.855  0.00  0.00    +0.069 C 
ATOM     23  C   UNL     1      32.602 -23.800 -13.903  0.00  0.00    +0.051 C 
ATOM     24  C   UNL     1      34.556 -23.529 -15.106  0.00  0.00    +0.251 C 
ATOM     25  C   UNL     1      33.523 -22.342 -17.044  0.00  0.00    +0.066 C 
ATOM     26  C   UNL     1      30.864 -22.794 -15.246  0.00  0.00    +0.001 C 
ATOM     27  C   UNL     1      31.721 -24.159 -12.903  0.00  0.00    +0.015 C 
ATOM     28  C   UNL     1      29.952 -23.148 -14.244  0.00  0.00    +0.000 C 
ATOM     29  C   UNL     1      30.377 -23.823 -13.085  0.00  0.00    +0.001 C 
ATOM     30  H   UNL     1      34.485 -24.490 -13.222  0.00  0.00    +0.155 HD
ENDBRANCH  17  25
ENDBRANCH   2  17
TORSDOF 4
ENDMDL
MODEL 4
REMARK VINA RESULT:     -11.6      2.793      9.821
REMARK  Name = 5288711
REMARK  4 active torsions:
REMARK  status: ('A' for Active; 'I' for Inactive)
REMARK    1  A    between atoms: C_1  and  S_7
REMARK    2  A    between atoms: C_2  and  N_17
REMARK    3  A    between atoms: S_7  and  N_11
REMARK    4  A    between atoms: N_17  and  C_25
REMARK                            x       y       z     vdW  Elec       q    Type
REMARK                         _______ _______ _______ _____ _____    ______ ____
ROOT
ATOM      1  C   UNL     1      35.520 -19.020 -20.521  0.00  0.00    +0.125 C 
ATOM      2  C   UNL     1      35.041 -21.027 -18.634  0.00  0.00    +0.048 C 
ATOM      3  C   UNL     1      36.588 -19.615 -19.848  0.00  0.00    +0.021 C 
ATOM      4  C   UNL     1      34.214 -19.427 -20.252  0.00  0.00    +0.021 C 
ATOM      5  C   UNL     1      36.349 -20.616 -18.907  0.00  0.00    +0.016 C 
ATOM      6  C   UNL     1      33.974 -20.429 -19.311  0.00  0.00    +0.016 C 
ENDROOT
BRANCH   1   7
ATOM      7  S   UNL     1      35.819 -17.766 -21.698  0.00  0.00    +0.075 S 
ATOM      8  O   UNL     1      37.243 -17.458 -21.692  0.00  0.00    -0.150 OA
ATOM      9  O   UNL     1      35.177 -18.168 -22.944  0.00  0.00    -0.150 OA
BRANCH   7  11
ATOM     10  S   UNL     1      34.942 -13.682 -21.235  0.00  0.00    -0.050 S 
ATOM     11  N   UNL     1      34.964 -16.447 -21.003  0.00  0.00    -0.194 N 
ATOM     12  N   UNL     1      34.532 -15.383 -23.138  0.00  0.00    -0.221 NA
ATOM     13  C   UNL     1      34.797 -15.258 -21.867  0.00  0.00    +0.179 C 
ATOM     14  C   UNL     1      34.623 -13.069 -22.805  0.00  0.00    +0.059 C 
ATOM     15  C   UNL     1      34.431 -14.117 -23.681  0.00  0.00    +0.108 C 
ATOM     16  H   UNL     1      34.607 -16.481 -20.086  0.00  0.00    +0.176 HD
ENDBRANCH   7  11
ENDBRANCH   1   7
BRANCH   2  17
ATOM     17  N   UNL     1      34.801 -22.035 -17.686  0.00  0.00    -0.311 N 
ATOM     18  H   UNL     1      35.556 -22.641 -17.506  0.00  0.00    +0.152 HD
BRANCH  17  25
ATOM     19  O   UNL     1      35.885 -23.433 -15.389  0.00  0.00    -0.270 OA
ATOM     20  N   UNL     1      34.143 -24.039 -13.913  0.00  0.00    -0.280 N 
ATOM     21  C   UNL     1      32.333 -23.193 -15.052  0.00  0.00    +0.019 C 
ATOM     22  C   UNL     1      33.545 -22.917 -15.816  0.00  0.00    +0.069 C 
ATOM     23  C   UNL     1      32.752 -23.875 -13.907  0.00  0.00    +0.051 C 
ATOM     24  C   UNL     1      34.715 -23.475 -15.058  0.00  0.00    +0.251 C 
ATOM     25  C   UNL     1      33.665 -22.286 -16.986  0.00  0.00    +0.066 C 
ATOM     26  C   UNL     1      30.994 -22.919 -15.260  0.00  0.00    +0.001 C 
ATOM     27  C   UNL     1      31.869 -24.306 -12.937  0.00  0.00    +0.015 C 
ATOM     28  C   UNL     1      30.081 -23.346 -14.289  0.00  0.00    +0.000 C 
ATOM     29  C   UNL     1      30.515 -24.032 -13.139  0.00  0.00    +0.001 C 
ATOM     30  H   UNL     1      34.652 -24.491 -13.203  0.00  0.00    +0.155 HD
ENDBRANCH  17  25
ENDBRANCH   2  17
TORSDOF 4
ENDMDL
MODEL 5
REMARK VINA RESULT:     -11.3      1.958      2.175
REMARK  Name = 5288711
REMARK  4 active torsions:
REMARK  status: ('A' for Active; 'I' for Inactive)
REMARK    1  A    between atoms: C_1  and  S_7
REMARK    2  A    between atoms: C_2  and  N_17
REMARK    3  A    between atoms: S_7  and  N_11
REMARK    4  A    between atoms: N_17  and  C_25
REMARK                            x       y       z     vdW  Elec       q    Type
REMARK                         _______ _______ _______ _____ _____    ______ ____
ROOT
ATOM      1  C   UNL     1      34.262 -21.311 -18.231  0.00  0.00    +0.125 C 
ATOM      2  C   UNL     1      35.631 -19.545 -19.910  0.00  0.00    +0.048 C 
ATOM      3  C   UNL     1      33.557 -20.535 -19.151  0.00  0.00    +0.021 C 
ATOM      4  C   UNL     1      35.650 -21.207 -18.149  0.00  0.00    +0.021 C 
ATOM      5  C   UNL     1      34.240 -19.654 -19.988  0.00  0.00    +0.016 C 
ATOM      6  C   UNL     1      36.334 -20.325 -18.987  0.00  0.00    +0.016 C 
ENDROOT
BRANCH   1   7
ATOM      7  S   UNL     1      33.407 -22.414 -17.181  0.00  0.00    +0.075 S 
ATOM      8  O   UNL     1      31.985 -22.100 -17.242  0.00  0.00    -0.150 OA
ATOM      9  O   UNL     1      33.858 -23.764 -17.497  0.00  0.00    -0.150 OA
BRANCH   7  11
ATOM     10  S   UNL     1      34.649 -23.177 -13.239  0.00  0.00    -0.050 S 
ATOM     11  N   UNL     1      34.012 -21.945 -15.642  0.00  0.00    -0.194 N 
ATOM     12  N   UNL     1      35.654 -23.726 -15.556  0.00  0.00    -0.221 NA
ATOM     13  C   UNL     1      34.808 -22.963 -14.922  0.00  0.00    +0.179 C 
ATOM     14  C   UNL     1      35.827 -24.420 -13.329  0.00  0.00    +0.059 C 
ATOM     15  C   UNL     1      36.244 -24.569 -14.635  0.00  0.00    +0.108 C 
ATOM     16  H   UNL     1      33.840 -21.053 -15.263  0.00  0.00    +0.176 HD
ENDBRANCH   7  11
ENDBRANCH   1   7
BRANCH   2  17
ATOM     17  N   UNL     1      36.319 -18.657 -20.753  0.00  0.00    -0.311 N 
ATOM     18  H   UNL     1      37.269 -18.514 -20.539  0.00  0.00    +0.152 HD
BRANCH  17  25
ATOM     19  O   UNL     1      35.652 -16.121 -19.515  0.00  0.00    -0.270 OA
ATOM     20  N   UNL     1      34.778 -14.636 -21.131  0.00  0.00    -0.280 N 
ATOM     21  C   UNL     1      34.876 -15.969 -23.003  0.00  0.00    +0.019 C 
ATOM     22  C   UNL     1      35.386 -16.719 -21.860  0.00  0.00    +0.069 C 
ATOM     23  C   UNL     1      34.522 -14.711 -22.505  0.00  0.00    +0.051 C 
ATOM     24  C   UNL     1      35.314 -15.835 -20.648  0.00  0.00    +0.251 C 
ATOM     25  C   UNL     1      35.848 -17.970 -21.825  0.00  0.00    +0.066 C 
ATOM     26  C   UNL     1      34.709 -16.271 -24.341  0.00  0.00    +0.001 C 
ATOM     27  C   UNL     1      33.994 -13.720 -23.308  0.00  0.00    +0.015 C 
ATOM     28  C   UNL     1      34.176 -15.280 -25.174  0.00  0.00    +0.000 C 
ATOM     29  C   UNL     1      33.823 -14.018 -24.662  0.00  0.00    +0.001 C 
ATOM     30  H   UNL     1      34.603 -13.843 -20.576  0.00  0.00    +0.155 HD
ENDBRANCH  17  25
ENDBRANCH   2  17
TORSDOF 4
ENDMDL
MODEL 6
REMARK VINA RESULT:     -11.2      2.235      2.742
REMARK  Name = 5288711
REMARK  4 active torsions:
REMARK  status: ('A' for Active; 'I' for Inactive)
REMARK    1  A    between atoms: C_1  and  S_7
REMARK    2  A    between atoms: C_2  and  N_17
REMARK    3  A    between atoms: S_7  and  N_11
REMARK    4  A    between atoms: N_17  and  C_25
REMARK                            x       y       z     vdW  Elec       q    Type
REMARK                         _______ _______ _______ _____ _____    ______ ____
ROOT
ATOM      1  C   UNL     1      34.677 -20.789 -19.126  0.00  0.00    +0.125 C 
ATOM      2  C   UNL     1      35.526 -18.877 -20.980  0.00  0.00    +0.048 C 
ATOM      3  C   UNL     1      33.739 -20.081 -19.877  0.00  0.00    +0.021 C 
ATOM      4  C   UNL     1      36.038 -20.543 -19.300  0.00  0.00    +0.021 C 
ATOM      5  C   UNL     1      34.162 -19.128 -20.803  0.00  0.00    +0.016 C 
ATOM      6  C   UNL     1      36.463 -19.589 -20.225  0.00  0.00    +0.016 C 
ENDROOT
BRANCH   1   7
ATOM      7  S   UNL     1      34.147 -21.983 -17.967  0.00  0.00    +0.075 S 
ATOM      8  O   UNL     1      32.982 -21.459 -17.265  0.00  0.00    -0.150 OA
ATOM      9  O   UNL     1      34.053 -23.261 -18.660  0.00  0.00    -0.150 OA
BRANCH   7  11
ATOM     10  S   UNL     1      35.874 -22.032 -14.135  0.00  0.00    -0.050 S 
ATOM     11  N   UNL     1      35.480 -22.007 -16.882  0.00  0.00    -0.194 N 
ATOM     12  N   UNL     1      34.548 -23.774 -15.510  0.00  0.00    -0.221 NA
ATOM     13  C   UNL     1      35.244 -22.674 -15.583  0.00  0.00    +0.179 C 
ATOM     14  C   UNL     1      35.157 -23.342 -13.292  0.00  0.00    +0.059 C 
ATOM     15  C   UNL     1      34.497 -24.161 -14.185  0.00  0.00    +0.108 C 
ATOM     16  H   UNL     1      36.348 -21.602 -17.111  0.00  0.00    +0.176 HD
ENDBRANCH   7  11
ENDBRANCH   1   7
BRANCH   2  17
ATOM     17  N   UNL     1      35.952 -17.916 -21.912  0.00  0.00    -0.311 N 
ATOM     18  H   UNL     1      36.571 -18.240 -22.606  0.00  0.00    +0.152 HD
BRANCH  17  25
ATOM     19  O   UNL     1      34.616 -17.834 -24.483  0.00  0.00    -0.270 OA
ATOM     20  N   UNL     1      33.889 -15.635 -24.949  0.00  0.00    -0.280 N 
ATOM     21  C   UNL     1      34.622 -14.556 -23.054  0.00  0.00    +0.019 C 
ATOM     22  C   UNL     1      34.980 -15.968 -22.965  0.00  0.00    +0.069 C 
ATOM     23  C   UNL     1      33.962 -14.408 -24.278  0.00  0.00    +0.051 C 
ATOM     24  C   UNL     1      34.495 -16.655 -24.208  0.00  0.00    +0.251 C 
ATOM     25  C   UNL     1      35.624 -16.601 -21.983  0.00  0.00    +0.066 C 
ATOM     26  C   UNL     1      34.810 -13.471 -22.219  0.00  0.00    +0.001 C 
ATOM     27  C   UNL     1      33.471 -13.193 -24.712  0.00  0.00    +0.015 C 
ATOM     28  C   UNL     1      34.320 -12.229 -22.639  0.00  0.00    +0.000 C 
ATOM     29  C   UNL     1      33.657 -12.092 -23.872  0.00  0.00    +0.001 C 
ATOM     30  H   UNL     1      33.467 -15.763 -25.828  0.00  0.00    +0.155 HD
ENDBRANCH  17  25
ENDBRANCH   2  17
TORSDOF 4
ENDMDL
MODEL 7
REMARK VINA RESULT:     -11.1      3.172      3.929
REMARK  Name = 5288711
REMARK  4 active torsions:
REMARK  status: ('A' for Active; 'I' for Inactive)
REMARK    1  A    between atoms: C_1  and  S_7
REMARK    2  A    between atoms: C_2  and  N_17
REMARK    3  A    between atoms: S_7  and  N_11
REMARK    4  A    between atoms: N_17  and  C_25
REMARK                            x       y       z     vdW  Elec       q    Type
REMARK                         _______ _______ _______ _____ _____    ______ ____
ROOT
ATOM      1  C   UNL     1      34.947 -22.067 -16.756  0.00  0.00    +0.125 C 
ATOM      2  C   UNL     1      35.386 -20.436 -18.984  0.00  0.00    +0.048 C 
ATOM      3  C   UNL     1      33.918 -21.842 -17.671  0.00  0.00    +0.021 C 
ATOM      4  C   UNL     1      36.196 -21.478 -16.955  0.00  0.00    +0.021 C 
ATOM      5  C   UNL     1      34.136 -21.029 -18.782  0.00  0.00    +0.016 C 
ATOM      6  C   UNL     1      36.415 -20.664 -18.066  0.00  0.00    +0.016 C 
ENDROOT
BRANCH   1   7
ATOM      7  S   UNL     1      34.674 -23.085 -15.364  0.00  0.00    +0.075 S 
ATOM      8  O   UNL     1      33.246 -23.095 -15.074  0.00  0.00    -0.150 OA
ATOM      9  O   UNL     1      35.368 -24.345 -15.595  0.00  0.00    -0.150 OA
BRANCH   7  11
ATOM     10  S   UNL     1      36.926 -22.742 -11.832  0.00  0.00    -0.050 S 
ATOM     11  N   UNL     1      35.482 -22.193 -14.137  0.00  0.00    -0.194 N 
ATOM     12  N   UNL     1      37.479 -23.562 -14.220  0.00  0.00    -0.221 NA
ATOM     13  C   UNL     1      36.642 -22.862 -13.508  0.00  0.00    +0.179 C 
ATOM     14  C   UNL     1      38.317 -23.724 -12.041  0.00  0.00    +0.059 C 
ATOM     15  C   UNL     1      38.449 -24.061 -13.372  0.00  0.00    +0.108 C 
ATOM     16  H   UNL     1      35.191 -21.291 -13.869  0.00  0.00    +0.176 HD
ENDBRANCH   7  11
ENDBRANCH   1   7
BRANCH   2  17
ATOM     17  N   UNL     1      35.605 -19.617 -20.104  0.00  0.00    -0.311 N 
ATOM     18  H   UNL     1      35.912 -20.078 -20.917  0.00  0.00    +0.152 HD
BRANCH  17  25
ATOM     19  O   UNL     1      35.316 -19.341 -22.975  0.00  0.00    -0.270 OA
ATOM     20  N   UNL     1      35.020 -17.068 -23.546  0.00  0.00    -0.280 N 
ATOM     21  C   UNL     1      35.106 -16.111 -21.456  0.00  0.00    +0.019 C 
ATOM     22  C   UNL     1      35.273 -17.554 -21.324  0.00  0.00    +0.069 C 
ATOM     23  C   UNL     1      34.956 -15.869 -22.825  0.00  0.00    +0.051 C 
ATOM     24  C   UNL     1      35.214 -18.162 -22.696  0.00  0.00    +0.251 C 
ATOM     25  C   UNL     1      35.451 -18.272 -20.213  0.00  0.00    +0.066 C 
ATOM     26  C   UNL     1      35.077 -15.069 -20.549  0.00  0.00    +0.001 C 
ATOM     27  C   UNL     1      34.774 -14.600 -23.337  0.00  0.00    +0.015 C 
ATOM     28  C   UNL     1      34.893 -13.774 -21.046  0.00  0.00    +0.000 C 
ATOM     29  C   UNL     1      34.743 -13.542 -22.425  0.00  0.00    +0.001 C 
ATOM     30  H   UNL     1      34.938 -17.133 -24.524  0.00  0.00    +0.155 HD
ENDBRANCH  17  25
ENDBRANCH   2  17
TORSDOF 4
ENDMDL
MODEL 8
REMARK VINA RESULT:     -10.9      3.766     10.105
REMARK  Name = 5288711
REMARK  4 active torsions:
REMARK  status: ('A' for Active; 'I' for Inactive)
REMARK    1  A    between atoms: C_1  and  S_7
REMARK    2  A    between atoms: C_2  and  N_17
REMARK    3  A    between atoms: S_7  and  N_11
REMARK    4  A    between atoms: N_17  and  C_25
REMARK                            x       y       z     vdW  Elec       q    Type
REMARK                         _______ _______ _______ _____ _____    ______ ____
ROOT
ATOM      1  C   UNL     1      35.553 -19.437 -20.080  0.00  0.00    +0.125 C 
ATOM      2  C   UNL     1      35.163 -21.290 -18.024  0.00  0.00    +0.048 C 
ATOM      3  C   UNL     1      36.644 -19.910 -19.351  0.00  0.00    +0.021 C 
ATOM      4  C   UNL     1      34.268 -19.889 -19.784  0.00  0.00    +0.021 C 
ATOM      5  C   UNL     1      36.450 -20.835 -18.326  0.00  0.00    +0.016 C 
ATOM      6  C   UNL     1      34.072 -20.814 -18.759  0.00  0.00    +0.016 C 
ENDROOT
BRANCH   1   7
ATOM      7  S   UNL     1      35.797 -18.278 -21.364  0.00  0.00    +0.075 S 
ATOM      8  O   UNL     1      37.199 -17.880 -21.367  0.00  0.00    -0.150 OA
ATOM      9  O   UNL     1      35.205 -18.831 -22.576  0.00  0.00    -0.150 OA
BRANCH   7  11
ATOM     10  S   UNL     1      34.891 -14.190 -20.997  0.00  0.00    -0.050 S 
ATOM     11  N   UNL     1      34.849 -16.958 -20.804  0.00  0.00    -0.194 N 
ATOM     12  N   UNL     1      34.794 -15.862 -22.966  0.00  0.00    -0.221 NA
ATOM     13  C   UNL     1      34.841 -15.756 -21.667  0.00  0.00    +0.179 C 
ATOM     14  C   UNL     1      34.848 -13.554 -22.589  0.00  0.00    +0.059 C 
ATOM     15  C   UNL     1      34.798 -14.589 -23.499  0.00  0.00    +0.108 C 
ATOM     16  H   UNL     1      34.341 -16.999 -19.962  0.00  0.00    +0.176 HD
ENDBRANCH   7  11
ENDBRANCH   1   7
BRANCH   2  17
ATOM     17  N   UNL     1      34.967 -22.222 -16.992  0.00  0.00    -0.311 N 
ATOM     18  H   UNL     1      34.157 -22.776 -17.064  0.00  0.00    +0.152 HD
BRANCH  17  25
ATOM     19  O   UNL     1      32.945 -22.763 -14.986  0.00  0.00    -0.270 OA
ATOM     20  N   UNL     1      33.969 -23.232 -12.909  0.00  0.00    -0.280 N 
ATOM     21  C   UNL     1      36.184 -23.027 -13.493  0.00  0.00    +0.019 C 
ATOM     22  C   UNL     1      35.358 -22.769 -14.668  0.00  0.00    +0.069 C 
ATOM     23  C   UNL     1      35.291 -23.303 -12.454  0.00  0.00    +0.051 C 
ATOM     24  C   UNL     1      33.917 -22.907 -14.269  0.00  0.00    +0.251 C 
ATOM     25  C   UNL     1      35.747 -22.459 -15.906  0.00  0.00    +0.066 C 
ATOM     26  C   UNL     1      37.548 -23.039 -13.273  0.00  0.00    +0.001 C 
ATOM     27  C   UNL     1      35.714 -23.597 -11.173  0.00  0.00    +0.015 C 
ATOM     28  C   UNL     1      38.000 -23.335 -11.982  0.00  0.00    +0.000 C 
ATOM     29  C   UNL     1      37.092 -23.612 -10.943  0.00  0.00    +0.001 C 
ATOM     30  H   UNL     1      33.178 -23.391 -12.346  0.00  0.00    +0.155 HD
ENDBRANCH  17  25
ENDBRANCH   2  17
TORSDOF 4
ENDMDL
MODEL 9
REMARK VINA RESULT:     -10.9      3.872      9.011
REMARK  Name = 5288711
REMARK  4 active torsions:
REMARK  status: ('A' for Active; 'I' for Inactive)
REMARK    1  A    between atoms: C_1  and  S_7
REMARK    2  A    between atoms: C_2  and  N_17
REMARK    3  A    between atoms: S_7  and  N_11
REMARK    4  A    between atoms: N_17  and  C_25
REMARK                            x       y       z     vdW  Elec       q    Type
REMARK                         _______ _______ _______ _____ _____    ______ ____
ROOT
ATOM      1  C   UNL     1      34.679 -14.915 -21.838  0.00  0.00    +0.125 C 
ATOM      2  C   UNL     1      35.880 -17.385 -21.318  0.00  0.00    +0.048 C 
ATOM      3  C   UNL     1      34.909 -15.316 -20.522  0.00  0.00    +0.021 C 
ATOM      4  C   UNL     1      35.049 -15.746 -22.894  0.00  0.00    +0.021 C 
ATOM      5  C   UNL     1      35.508 -16.548 -20.262  0.00  0.00    +0.016 C 
ATOM      6  C   UNL     1      35.649 -16.979 -22.636  0.00  0.00    +0.016 C 
ENDROOT
BRANCH   1   7
ATOM      7  S   UNL     1      33.928 -13.372 -22.163  0.00  0.00    +0.075 S 
ATOM      8  O   UNL     1      34.913 -12.322 -21.932  0.00  0.00    -0.150 OA
ATOM      9  O   UNL     1      33.270 -13.466 -23.460  0.00  0.00    -0.150 OA
BRANCH   7  11
ATOM     10  S   UNL     1      31.874 -11.471 -19.029  0.00  0.00    -0.050 S 
ATOM     11  N   UNL     1      32.748 -13.307 -20.916  0.00  0.00    -0.194 N 
ATOM     12  N   UNL     1      31.908 -11.137 -21.591  0.00  0.00    -0.221 NA
ATOM     13  C   UNL     1      32.184 -11.970 -20.628  0.00  0.00    +0.179 C 
ATOM     14  C   UNL     1      31.307  -9.976 -19.651  0.00  0.00    +0.059 C 
ATOM     15  C   UNL     1      31.400  -9.983 -21.027  0.00  0.00    +0.108 C 
ATOM     16  H   UNL     1      32.463 -14.111 -20.423  0.00  0.00    +0.176 HD
ENDBRANCH   7  11
ENDBRANCH   1   7
BRANCH   2  17
ATOM     17  N   UNL     1      36.483 -18.626 -21.056  0.00  0.00    -0.311 N 
ATOM     18  H   UNL     1      37.078 -18.970 -21.762  0.00  0.00    +0.152 HD
BRANCH  17  25
ATOM     19  O   UNL     1      33.680 -19.346 -21.235  0.00  0.00    -0.270 OA
ATOM     20  N   UNL     1      33.089 -20.757 -19.435  0.00  0.00    -0.280 N 
ATOM     21  C   UNL     1      35.111 -20.894 -18.346  0.00  0.00    +0.019 C 
ATOM     22  C   UNL     1      35.262 -20.044 -19.523  0.00  0.00    +0.069 C 
ATOM     23  C   UNL     1      33.773 -21.300 -18.341  0.00  0.00    +0.051 C 
ATOM     24  C   UNL     1      33.935 -19.965 -20.220  0.00  0.00    +0.251 C 
ATOM     25  C   UNL     1      36.356 -19.416 -19.959  0.00  0.00    +0.066 C 
ATOM     26  C   UNL     1      35.979 -21.311 -17.355  0.00  0.00    +0.001 C 
ATOM     27  C   UNL     1      33.254 -22.125 -17.363  0.00  0.00    +0.015 C 
ATOM     28  C   UNL     1      35.474 -22.148 -16.354  0.00  0.00    +0.000 C 
ATOM     29  C   UNL     1      34.126 -22.551 -16.358  0.00  0.00    +0.001 C 
ATOM     30  H   UNL     1      32.137 -20.911 -19.627  0.00  0.00    +0.155 HD
ENDBRANCH  17  25
ENDBRANCH   2  17
TORSDOF 4
ENDMDL
