MODEL 1
REMARK VINA RESULT:     -11.6      0.000      0.000
REMARK  Name = 4470378
REMARK  6 active torsions:
REMARK  status: ('A' for Active; 'I' for Inactive)
REMARK    1  A    between atoms: C_5  and  O_10
REMARK    2  A    between atoms: C_6  and  O_24
REMARK    3  A    between atoms: O_10  and  C_11
REMARK    4  A    between atoms: C_12  and  C_19
REMARK    5  A    between atoms: O_24  and  C_25
REMARK    6  A    between atoms: C_26  and  C_33
REMARK                            x       y       z     vdW  Elec       q    Type
REMARK                         _______ _______ _______ _____ _____    ______ ____
ROOT
ATOM      1  F   UNL     1      34.105 -14.585 -24.068  0.00  0.00    -0.221 F 
ATOM      2  F   UNL     1      35.020 -19.229 -23.643  0.00  0.00    -0.199 F 
ATOM      3  N   UNL     1      35.791 -16.445 -21.449  0.00  0.00    -0.331 NA
ATOM      4  C   UNL     1      34.539 -16.916 -23.903  0.00  0.00    +0.031 C 
ATOM      5  C   UNL     1      35.250 -15.442 -22.178  0.00  0.00    +0.298 C 
ATOM      6  C   UNL     1      35.688 -17.676 -21.980  0.00  0.00    +0.312 C 
ATOM      7  C   UNL     1      34.619 -15.623 -23.398  0.00  0.00    +0.270 C 
ATOM      8  C   UNL     1      35.083 -17.974 -23.183  0.00  0.00    +0.201 C 
ATOM      9  C   UNL     1      33.872 -17.168 -25.213  0.00  0.00    +0.032 C 
ENDROOT
BRANCH   5  10
ATOM     10  O   UNL     1      35.344 -14.178 -21.659  0.00  0.00    -0.428 OA
BRANCH  10  11
ATOM     11  C   UNL     1      34.218 -13.654 -21.058  0.00  0.00    +0.148 C 
ATOM     12  C   UNL     1      32.543 -11.940 -20.928  0.00  0.00    +0.032 C 
ATOM     13  C   UNL     1      33.681 -12.470 -21.538  0.00  0.00    +0.040 C 
ATOM     14  C   UNL     1      33.649 -14.321 -19.986  0.00  0.00    +0.038 C 
ATOM     15  C   UNL     1      31.959 -12.601 -19.848  0.00  0.00    +0.003 C 
ATOM     16  C   UNL     1      32.511 -13.792 -19.376  0.00  0.00    +0.003 C 
BRANCH  12  19
ATOM     17  N   UNL     1      30.709 -10.368 -21.100  0.00  0.00    -0.387 N 
ATOM     18  N   UNL     1      32.690  -9.882 -22.197  0.00  0.00    -0.345 N 
ATOM     19  C   UNL     1      31.970 -10.706 -21.417  0.00  0.00    +0.096 C 
ATOM     20  H   UNL     1      30.326  -9.526 -21.437  0.00  0.00    +0.157 HD
ATOM     21  H   UNL     1      30.168 -10.962 -20.530  0.00  0.00    +0.157 HD
ATOM     22  H   UNL     1      32.293  -9.044 -22.527  0.00  0.00    +0.144 HD
ATOM     23  H   UNL     1      33.615 -10.117 -22.439  0.00  0.00    +0.144 HD
ENDBRANCH  12  19
ENDBRANCH  10  11
ENDBRANCH   5  10
BRANCH   6  24
ATOM     24  O   UNL     1      36.240 -18.711 -21.243  0.00  0.00    -0.426 OA
BRANCH  24  25
ATOM     25  C   UNL     1      35.418 -19.399 -20.405  0.00  0.00    +0.148 C 
ATOM     26  C   UNL     1      35.113 -20.834 -18.486  0.00  0.00    +0.034 C 
ATOM     27  C   UNL     1      35.956 -20.128 -19.344  0.00  0.00    +0.040 C 
ATOM     28  C   UNL     1      34.038 -19.376 -20.607  0.00  0.00    +0.038 C 
ATOM     29  C   UNL     1      33.733 -20.812 -18.688  0.00  0.00    +0.003 C 
ATOM     30  C   UNL     1      33.196 -20.083 -19.748  0.00  0.00    +0.003 C 
BRANCH  26  33
ATOM     31  N   UNL     1      36.972 -21.366 -16.928  0.00  0.00    -0.343 N 
ATOM     32  N   UNL     1      34.950 -22.528 -16.788  0.00  0.00    -0.285 NA
ATOM     33  C   UNL     1      35.674 -21.595 -17.380  0.00  0.00    +0.117 C 
ATOM     34  H   UNL     1      37.333 -21.892 -16.178  0.00  0.00    +0.144 HD
ATOM     35  H   UNL     1      37.530 -20.677 -17.358  0.00  0.00    +0.144 HD
ATOM     36  H   UNL     1      35.329 -23.043 -16.040  0.00  0.00    +0.188 HD
ENDBRANCH  26  33
ENDBRANCH  24  25
ENDBRANCH   6  24
TORSDOF 6
ENDMDL
MODEL 2
REMARK VINA RESULT:     -11.6      7.012      9.436
REMARK  Name = 4470378
REMARK  6 active torsions:
REMARK  status: ('A' for Active; 'I' for Inactive)
REMARK    1  A    between atoms: C_5  and  O_10
REMARK    2  A    between atoms: C_6  and  O_24
REMARK    3  A    between atoms: O_10  and  C_11
REMARK    4  A    between atoms: C_12  and  C_19
REMARK    5  A    between atoms: O_24  and  C_25
REMARK    6  A    between atoms: C_26  and  C_33
REMARK                            x       y       z     vdW  Elec       q    Type
REMARK                         _______ _______ _______ _____ _____    ______ ____
ROOT
ATOM      1  F   UNL     1      33.787 -21.840 -18.900  0.00  0.00    -0.221 F 
ATOM      2  F   UNL     1      37.869 -20.269 -17.040  0.00  0.00    -0.199 F 
ATOM      3  N   UNL     1      35.402 -22.589 -15.739  0.00  0.00    -0.331 NA
ATOM      4  C   UNL     1      35.836 -21.024 -18.014  0.00  0.00    +0.031 C 
ATOM      5  C   UNL     1      34.526 -22.570 -16.769  0.00  0.00    +0.298 C 
ATOM      6  C   UNL     1      36.489 -21.810 -15.880  0.00  0.00    +0.312 C 
ATOM      7  C   UNL     1      34.695 -21.813 -17.917  0.00  0.00    +0.270 C 
ATOM      8  C   UNL     1      36.761 -21.017 -16.974  0.00  0.00    +0.201 C 
ATOM      9  C   UNL     1      36.068 -20.188 -19.226  0.00  0.00    +0.032 C 
ENDROOT
BRANCH   5  10
ATOM     10  O   UNL     1      33.410 -23.355 -16.649  0.00  0.00    -0.428 OA
BRANCH  10  11
ATOM     11  C   UNL     1      32.447 -22.954 -15.746  0.00  0.00    +0.148 C 
ATOM     12  C   UNL     1      30.168 -22.375 -15.263  0.00  0.00    +0.032 C 
ATOM     13  C   UNL     1      31.142 -22.781 -16.177  0.00  0.00    +0.040 C 
ATOM     14  C   UNL     1      32.805 -22.733 -14.426  0.00  0.00    +0.038 C 
ATOM     15  C   UNL     1      30.514 -22.149 -13.931  0.00  0.00    +0.003 C 
ATOM     16  C   UNL     1      31.832 -22.328 -13.512  0.00  0.00    +0.003 C 
BRANCH  12  19
ATOM     17  N   UNL     1      27.903 -21.605 -14.887  0.00  0.00    -0.387 N 
ATOM     18  N   UNL     1      28.412 -22.600 -16.916  0.00  0.00    -0.345 N 
ATOM     19  C   UNL     1      28.802 -22.189 -15.697  0.00  0.00    +0.096 C 
ATOM     20  H   UNL     1      26.974 -21.482 -15.189  0.00  0.00    +0.157 HD
ATOM     21  H   UNL     1      28.173 -21.300 -13.990  0.00  0.00    +0.157 HD
ATOM     22  H   UNL     1      27.480 -22.471 -17.204  0.00  0.00    +0.144 HD
ATOM     23  H   UNL     1      29.059 -23.031 -17.520  0.00  0.00    +0.144 HD
ENDBRANCH  12  19
ENDBRANCH  10  11
ENDBRANCH   5  10
BRANCH   6  24
ATOM     24  O   UNL     1      37.392 -21.820 -14.831  0.00  0.00    -0.426 OA
BRANCH  24  25
ATOM     25  C   UNL     1      37.389 -22.901 -14.004  0.00  0.00    +0.148 C 
ATOM     26  C   UNL     1      36.905 -23.889 -11.853  0.00  0.00    +0.034 C 
ATOM     27  C   UNL     1      36.907 -22.781 -12.700  0.00  0.00    +0.040 C 
ATOM     28  C   UNL     1      37.869 -24.129 -14.460  0.00  0.00    +0.038 C 
ATOM     29  C   UNL     1      37.385 -25.117 -12.308  0.00  0.00    +0.003 C 
ATOM     30  C   UNL     1      37.867 -25.237 -13.612  0.00  0.00    +0.003 C 
BRANCH  26  33
ATOM     31  N   UNL     1      36.844 -22.747  -9.649  0.00  0.00    -0.343 N 
ATOM     32  N   UNL     1      35.513 -24.628 -10.038  0.00  0.00    -0.285 NA
ATOM     33  C   UNL     1      36.402 -23.764 -10.494  0.00  0.00    +0.117 C 
ATOM     34  H   UNL     1      36.491 -22.681  -8.733  0.00  0.00    +0.144 HD
ATOM     35  H   UNL     1      37.509 -22.095  -9.969  0.00  0.00    +0.144 HD
ATOM     36  H   UNL     1      35.173 -24.545  -9.118  0.00  0.00    +0.188 HD
ENDBRANCH  26  33
ENDBRANCH  24  25
ENDBRANCH   6  24
TORSDOF 6
ENDMDL
MODEL 3
REMARK VINA RESULT:     -11.4      2.978      9.408
REMARK  Name = 4470378
REMARK  6 active torsions:
REMARK  status: ('A' for Active; 'I' for Inactive)
REMARK    1  A    between atoms: C_5  and  O_10
REMARK    2  A    between atoms: C_6  and  O_24
REMARK    3  A    between atoms: O_10  and  C_11
REMARK    4  A    between atoms: C_12  and  C_19
REMARK    5  A    between atoms: O_24  and  C_25
REMARK    6  A    between atoms: C_26  and  C_33
REMARK                            x       y       z     vdW  Elec       q    Type
REMARK                         _______ _______ _______ _____ _____    ______ ____
ROOT
ATOM      1  F   UNL     1      34.157 -14.770 -19.655  0.00  0.00    -0.221 F 
ATOM      2  F   UNL     1      31.707 -11.190 -21.599  0.00  0.00    -0.199 F 
ATOM      3  N   UNL     1      34.584 -13.037 -22.814  0.00  0.00    -0.331 NA
ATOM      4  C   UNL     1      32.899 -12.978 -20.584  0.00  0.00    +0.031 C 
ATOM      5  C   UNL     1      34.746 -13.888 -21.776  0.00  0.00    +0.298 C 
ATOM      6  C   UNL     1      33.565 -12.166 -22.704  0.00  0.00    +0.312 C 
ATOM      7  C   UNL     1      33.939 -13.899 -20.649  0.00  0.00    +0.270 C 
ATOM      8  C   UNL     1      32.700 -12.087 -21.633  0.00  0.00    +0.201 C 
ATOM      9  C   UNL     1      32.001 -12.946 -19.394  0.00  0.00    +0.032 C 
ENDROOT
BRANCH   5  10
ATOM     10  O   UNL     1      35.778 -14.784 -21.863  0.00  0.00    -0.428 OA
BRANCH  10  11
ATOM     11  C   UNL     1      35.452 -16.110 -22.058  0.00  0.00    +0.148 C 
ATOM     12  C   UNL     1      35.281 -18.350 -21.213  0.00  0.00    +0.032 C 
ATOM     13  C   UNL     1      35.610 -17.008 -21.015  0.00  0.00    +0.040 C 
ATOM     14  C   UNL     1      34.975 -16.517 -23.294  0.00  0.00    +0.038 C 
ATOM     15  C   UNL     1      34.799 -18.774 -22.451  0.00  0.00    +0.003 C 
ATOM     16  C   UNL     1      34.647 -17.858 -23.492  0.00  0.00    +0.003 C 
BRANCH  12  19
ATOM     17  N   UNL     1      34.406 -20.065 -19.744  0.00  0.00    -0.387 N 
ATOM     18  N   UNL     1      36.620 -19.427 -19.507  0.00  0.00    -0.345 N 
ATOM     19  C   UNL     1      35.439 -19.299 -20.135  0.00  0.00    +0.096 C 
ATOM     20  H   UNL     1      34.521 -20.710 -19.009  0.00  0.00    +0.157 HD
ATOM     21  H   UNL     1      33.533 -19.982 -20.194  0.00  0.00    +0.157 HD
ATOM     22  H   UNL     1      36.720 -20.076 -18.773  0.00  0.00    +0.144 HD
ATOM     23  H   UNL     1      37.386 -18.872 -19.781  0.00  0.00    +0.144 HD
ENDBRANCH  12  19
ENDBRANCH  10  11
ENDBRANCH   5  10
BRANCH   6  24
ATOM     24  O   UNL     1      33.390 -11.289 -23.761  0.00  0.00    -0.426 OA
BRANCH  24  25
ATOM     25  C   UNL     1      33.976 -10.064 -23.670  0.00  0.00    +0.148 C 
ATOM     26  C   UNL     1      33.991  -7.810 -22.799  0.00  0.00    +0.034 C 
ATOM     27  C   UNL     1      33.390  -9.066 -22.891  0.00  0.00    +0.040 C 
ATOM     28  C   UNL     1      35.162  -9.806 -24.357  0.00  0.00    +0.038 C 
ATOM     29  C   UNL     1      35.177  -7.552 -23.486  0.00  0.00    +0.003 C 
ATOM     30  C   UNL     1      35.763  -8.550 -24.265  0.00  0.00    +0.003 C 
BRANCH  26  33
ATOM     31  N   UNL     1      32.615  -5.757 -22.563  0.00  0.00    -0.343 N 
ATOM     32  N   UNL     1      33.550  -6.772 -20.677  0.00  0.00    -0.285 NA
ATOM     33  C   UNL     1      33.379  -6.770 -21.987  0.00  0.00    +0.117 C 
ATOM     34  H   UNL     1      32.210  -5.063 -21.995  0.00  0.00    +0.144 HD
ATOM     35  H   UNL     1      32.479  -5.736 -23.538  0.00  0.00    +0.144 HD
ATOM     36  H   UNL     1      33.137  -6.068 -20.126  0.00  0.00    +0.188 HD
ENDBRANCH  26  33
ENDBRANCH  24  25
ENDBRANCH   6  24
TORSDOF 6
ENDMDL
MODEL 4
REMARK VINA RESULT:     -11.4      2.983      4.789
REMARK  Name = 4470378
REMARK  6 active torsions:
REMARK  status: ('A' for Active; 'I' for Inactive)
REMARK    1  A    between atoms: C_5  and  O_10
REMARK    2  A    between atoms: C_6  and  O_24
REMARK    3  A    between atoms: O_10  and  C_11
REMARK    4  A    between atoms: C_12  and  C_19
REMARK    5  A    between atoms: O_24  and  C_25
REMARK    6  A    between atoms: C_26  and  C_33
REMARK                            x       y       z     vdW  Elec       q    Type
REMARK                         _______ _______ _______ _____ _____    ______ ____
ROOT
ATOM      1  F   UNL     1      31.746 -11.180 -21.665  0.00  0.00    -0.221 F 
ATOM      2  F   UNL     1      34.175 -14.770 -19.715  0.00  0.00    -0.199 F 
ATOM      3  N   UNL     1      34.601 -13.057 -22.884  0.00  0.00    -0.331 NA
ATOM      4  C   UNL     1      32.928 -12.974 -20.647  0.00  0.00    +0.031 C 
ATOM      5  C   UNL     1      33.587 -12.168 -22.785  0.00  0.00    +0.298 C 
ATOM      6  C   UNL     1      34.750 -13.894 -21.842  0.00  0.00    +0.312 C 
ATOM      7  C   UNL     1      32.731 -12.085 -21.698  0.00  0.00    +0.270 C 
ATOM      8  C   UNL     1      33.961 -13.903 -20.712  0.00  0.00    +0.201 C 
ATOM      9  C   UNL     1      32.035 -12.931 -19.453  0.00  0.00    +0.032 C 
ENDROOT
BRANCH   5  10
ATOM     10  O   UNL     1      33.414 -11.305 -23.834  0.00  0.00    -0.428 OA
BRANCH  10  11
ATOM     11  C   UNL     1      34.008 -10.063 -23.740  0.00  0.00    +0.148 C 
ATOM     12  C   UNL     1      34.008  -7.824 -22.876  0.00  0.00    +0.032 C 
ATOM     13  C   UNL     1      33.407  -9.080 -22.970  0.00  0.00    +0.040 C 
ATOM     14  C   UNL     1      35.192  -9.825 -24.418  0.00  0.00    +0.038 C 
ATOM     15  C   UNL     1      35.201  -7.569 -23.553  0.00  0.00    +0.003 C 
ATOM     16  C   UNL     1      35.793  -8.569 -24.325  0.00  0.00    +0.003 C 
BRANCH  12  19
ATOM     17  N   UNL     1      32.660  -5.824 -22.658  0.00  0.00    -0.387 N 
ATOM     18  N   UNL     1      33.553  -6.772 -20.743  0.00  0.00    -0.345 N 
ATOM     19  C   UNL     1      33.395  -6.788 -22.077  0.00  0.00    +0.096 C 
ATOM     20  H   UNL     1      32.246  -5.121 -22.107  0.00  0.00    +0.157 HD
ATOM     21  H   UNL     1      32.536  -5.821 -23.635  0.00  0.00    +0.157 HD
ATOM     22  H   UNL     1      33.133  -6.062 -20.205  0.00  0.00    +0.144 HD
ATOM     23  H   UNL     1      34.090  -7.470 -20.303  0.00  0.00    +0.144 HD
ENDBRANCH  12  19
ENDBRANCH  10  11
ENDBRANCH   5  10
BRANCH   6  24
ATOM     24  O   UNL     1      35.785 -14.810 -21.934  0.00  0.00    -0.426 OA
BRANCH  24  25
ATOM     25  C   UNL     1      35.456 -16.119 -22.109  0.00  0.00    +0.148 C 
ATOM     26  C   UNL     1      35.272 -18.365 -21.236  0.00  0.00    +0.034 C 
ATOM     27  C   UNL     1      35.607 -17.023 -21.057  0.00  0.00    +0.040 C 
ATOM     28  C   UNL     1      34.970 -16.558 -23.340  0.00  0.00    +0.038 C 
ATOM     29  C   UNL     1      34.786 -18.804 -22.468  0.00  0.00    +0.003 C 
ATOM     30  C   UNL     1      34.634 -17.899 -23.520  0.00  0.00    +0.003 C 
BRANCH  26  33
ATOM     31  N   UNL     1      36.648 -19.449 -19.477  0.00  0.00    -0.343 N 
ATOM     32  N   UNL     1      34.407 -20.052 -19.759  0.00  0.00    -0.285 NA
ATOM     33  C   UNL     1      35.430 -19.307 -20.139  0.00  0.00    +0.117 C 
ATOM     34  H   UNL     1      36.733 -20.093 -18.737  0.00  0.00    +0.144 HD
ATOM     35  H   UNL     1      37.423 -18.906 -19.748  0.00  0.00    +0.144 HD
ATOM     36  H   UNL     1      34.513 -20.689 -19.017  0.00  0.00    +0.188 HD
ENDBRANCH  26  33
ENDBRANCH  24  25
ENDBRANCH   6  24
TORSDOF 6
ENDMDL
MODEL 5
REMARK VINA RESULT:     -11.3      0.123      7.903
REMARK  Name = 4470378
REMARK  6 active torsions:
REMARK  status: ('A' for Active; 'I' for Inactive)
REMARK    1  A    between atoms: C_5  and  O_10
REMARK    2  A    between atoms: C_6  and  O_24
REMARK    3  A    between atoms: O_10  and  C_11
REMARK    4  A    between atoms: C_12  and  C_19
REMARK    5  A    between atoms: O_24  and  C_25
REMARK    6  A    between atoms: C_26  and  C_33
REMARK                            x       y       z     vdW  Elec       q    Type
REMARK                         _______ _______ _______ _____ _____    ______ ____
ROOT
ATOM      1  F   UNL     1      35.044 -19.309 -23.479  0.00  0.00    -0.221 F 
ATOM      2  F   UNL     1      34.119 -14.688 -24.097  0.00  0.00    -0.199 F 
ATOM      3  N   UNL     1      35.787 -16.436 -21.391  0.00  0.00    -0.331 NA
ATOM      4  C   UNL     1      34.557 -17.010 -23.835  0.00  0.00    +0.031 C 
ATOM      5  C   UNL     1      35.697 -17.700 -21.866  0.00  0.00    +0.298 C 
ATOM      6  C   UNL     1      35.248 -15.480 -22.168  0.00  0.00    +0.312 C 
ATOM      7  C   UNL     1      35.099 -18.036 -23.069  0.00  0.00    +0.270 C 
ATOM      8  C   UNL     1      34.630 -15.697 -23.381  0.00  0.00    +0.201 C 
ATOM      9  C   UNL     1      33.900 -17.315 -25.139  0.00  0.00    +0.032 C 
ENDROOT
BRANCH   5  10
ATOM     10  O   UNL     1      36.237 -18.693 -21.092  0.00  0.00    -0.428 OA
BRANCH  10  11
ATOM     11  C   UNL     1      35.376 -19.409 -20.286  0.00  0.00    +0.148 C 
ATOM     12  C   UNL     1      35.014 -20.848 -18.400  0.00  0.00    +0.032 C 
ATOM     13  C   UNL     1      35.886 -20.122 -19.213  0.00  0.00    +0.040 C 
ATOM     14  C   UNL     1      34.019 -19.400 -20.568  0.00  0.00    +0.038 C 
ATOM     15  C   UNL     1      33.646 -20.848 -18.670  0.00  0.00    +0.003 C 
ATOM     16  C   UNL     1      33.148 -20.125 -19.755  0.00  0.00    +0.003 C 
BRANCH  12  19
ATOM     17  N   UNL     1      36.826 -21.507 -16.934  0.00  0.00    -0.387 N 
ATOM     18  N   UNL     1      34.720 -22.396 -16.561  0.00  0.00    -0.345 N 
ATOM     19  C   UNL     1      35.529 -21.597 -17.277  0.00  0.00    +0.096 C 
ATOM     20  H   UNL     1      37.170 -22.021 -16.168  0.00  0.00    +0.157 HD
ATOM     21  H   UNL     1      37.432 -20.926 -17.449  0.00  0.00    +0.157 HD
ATOM     22  H   UNL     1      35.079 -22.905 -15.798  0.00  0.00    +0.144 HD
ATOM     23  H   UNL     1      33.768 -22.474 -16.801  0.00  0.00    +0.144 HD
ENDBRANCH  12  19
ENDBRANCH  10  11
ENDBRANCH   5  10
BRANCH   6  24
ATOM     24  O   UNL     1      35.332 -14.182 -21.692  0.00  0.00    -0.426 OA
BRANCH  24  25
ATOM     25  C   UNL     1      34.233 -13.660 -21.084  0.00  0.00    +0.148 C 
ATOM     26  C   UNL     1      32.539 -11.943 -20.940  0.00  0.00    +0.034 C 
ATOM     27  C   UNL     1      33.665 -12.479 -21.564  0.00  0.00    +0.040 C 
ATOM     28  C   UNL     1      33.675 -14.302 -19.978  0.00  0.00    +0.038 C 
ATOM     29  C   UNL     1      31.981 -12.585 -19.835  0.00  0.00    +0.003 C 
ATOM     30  C   UNL     1      32.549 -13.765 -19.355  0.00  0.00    +0.003 C 
BRANCH  26  33
ATOM     31  N   UNL     1      32.681  -9.820 -22.221  0.00  0.00    -0.343 N 
ATOM     32  N   UNL     1      30.690 -10.422 -21.155  0.00  0.00    -0.285 NA
ATOM     33  C   UNL     1      31.947 -10.712 -21.442  0.00  0.00    +0.117 C 
ATOM     34  H   UNL     1      32.261  -8.993 -22.550  0.00  0.00    +0.144 HD
ATOM     35  H   UNL     1      33.620 -10.017 -22.443  0.00  0.00    +0.144 HD
ATOM     36  H   UNL     1      30.289  -9.589 -21.494  0.00  0.00    +0.188 HD
ENDBRANCH  26  33
ENDBRANCH  24  25
ENDBRANCH   6  24
TORSDOF 6
ENDMDL
MODEL 6
REMARK VINA RESULT:     -11.3      5.154      8.722
REMARK  Name = 4470378
REMARK  6 active torsions:
REMARK  status: ('A' for Active; 'I' for Inactive)
REMARK    1  A    between atoms: C_5  and  O_10
REMARK    2  A    between atoms: C_6  and  O_24
REMARK    3  A    between atoms: O_10  and  C_11
REMARK    4  A    between atoms: C_12  and  C_19
REMARK    5  A    between atoms: O_24  and  C_25
REMARK    6  A    between atoms: C_26  and  C_33
REMARK                            x       y       z     vdW  Elec       q    Type
REMARK                         _______ _______ _______ _____ _____    ______ ____
ROOT
ATOM      1  F   UNL     1      30.750 -21.397 -16.788  0.00  0.00    -0.221 F 
ATOM      2  F   UNL     1      32.833 -24.042 -13.433  0.00  0.00    -0.199 F 
ATOM      3  N   UNL     1      33.969 -23.071 -16.739  0.00  0.00    -0.331 NA
ATOM      4  C   UNL     1      31.748 -22.713 -15.078  0.00  0.00    +0.031 C 
ATOM      5  C   UNL     1      32.899 -22.340 -17.126  0.00  0.00    +0.298 C 
ATOM      6  C   UNL     1      33.894 -23.612 -15.510  0.00  0.00    +0.312 C 
ATOM      7  C   UNL     1      31.776 -22.133 -16.342  0.00  0.00    +0.270 C 
ATOM      8  C   UNL     1      32.830 -23.472 -14.644  0.00  0.00    +0.201 C 
ATOM      9  C   UNL     1      30.564 -22.524 -14.193  0.00  0.00    +0.032 C 
ENDROOT
BRANCH   5  10
ATOM     10  O   UNL     1      32.950 -21.780 -18.376  0.00  0.00    -0.428 OA
BRANCH  10  11
ATOM     11  C   UNL     1      34.107 -21.116 -18.727  0.00  0.00    +0.148 C 
ATOM     12  C   UNL     1      35.220 -19.438 -20.031  0.00  0.00    +0.032 C 
ATOM     13  C   UNL     1      34.049 -20.108 -19.676  0.00  0.00    +0.040 C 
ATOM     14  C   UNL     1      35.302 -21.472 -18.124  0.00  0.00    +0.038 C 
ATOM     15  C   UNL     1      36.431 -19.784 -19.433  0.00  0.00    +0.003 C 
ATOM     16  C   UNL     1      36.473 -20.802 -18.479  0.00  0.00    +0.003 C 
BRANCH  12  19
ATOM     17  N   UNL     1      34.783 -18.645 -22.278  0.00  0.00    -0.387 N 
ATOM     18  N   UNL     1      35.535 -17.130 -20.695  0.00  0.00    -0.345 N 
ATOM     19  C   UNL     1      35.178 -18.384 -21.020  0.00  0.00    +0.096 C 
ATOM     20  H   UNL     1      34.757 -17.922 -22.945  0.00  0.00    +0.157 HD
ATOM     21  H   UNL     1      34.518 -19.559 -22.531  0.00  0.00    +0.157 HD
ATOM     22  H   UNL     1      35.505 -16.418 -21.374  0.00  0.00    +0.144 HD
ATOM     23  H   UNL     1      35.829 -16.924 -19.778  0.00  0.00    +0.144 HD
ENDBRANCH  12  19
ENDBRANCH  10  11
ENDBRANCH   5  10
BRANCH   6  24
ATOM     24  O   UNL     1      34.983 -24.364 -15.103  0.00  0.00    -0.426 OA
BRANCH  24  25
ATOM     25  C   UNL     1      35.851 -23.795 -14.223  0.00  0.00    +0.148 C 
ATOM     26  C   UNL     1      36.553 -23.381 -11.948  0.00  0.00    +0.034 C 
ATOM     27  C   UNL     1      35.664 -23.965 -12.851  0.00  0.00    +0.040 C 
ATOM     28  C   UNL     1      36.926 -23.041 -14.692  0.00  0.00    +0.038 C 
ATOM     29  C   UNL     1      37.628 -22.627 -12.417  0.00  0.00    +0.003 C 
ATOM     30  C   UNL     1      37.815 -22.457 -13.789  0.00  0.00    +0.003 C 
BRANCH  26  33
ATOM     31  N   UNL     1      36.939 -22.691  -9.594  0.00  0.00    -0.343 N 
ATOM     32  N   UNL     1      35.622 -24.561 -10.072  0.00  0.00    -0.285 NA
ATOM     33  C   UNL     1      36.358 -23.558 -10.517  0.00  0.00    +0.117 C 
ATOM     34  H   UNL     1      36.794 -22.829  -8.631  0.00  0.00    +0.144 HD
ATOM     35  H   UNL     1      37.494 -21.939  -9.906  0.00  0.00    +0.144 HD
ATOM     36  H   UNL     1      35.489 -24.682  -9.105  0.00  0.00    +0.188 HD
ENDBRANCH  26  33
ENDBRANCH  24  25
ENDBRANCH   6  24
TORSDOF 6
ENDMDL
MODEL 7
REMARK VINA RESULT:     -11.2      5.257      8.646
REMARK  Name = 4470378
REMARK  6 active torsions:
REMARK  status: ('A' for Active; 'I' for Inactive)
REMARK    1  A    between atoms: C_5  and  O_10
REMARK    2  A    between atoms: C_6  and  O_24
REMARK    3  A    between atoms: O_10  and  C_11
REMARK    4  A    between atoms: C_12  and  C_19
REMARK    5  A    between atoms: O_24  and  C_25
REMARK    6  A    between atoms: C_26  and  C_33
REMARK                            x       y       z     vdW  Elec       q    Type
REMARK                         _______ _______ _______ _____ _____    ______ ____
ROOT
ATOM      1  F   UNL     1      30.861 -21.449 -16.856  0.00  0.00    -0.221 F 
ATOM      2  F   UNL     1      32.606 -23.660 -13.027  0.00  0.00    -0.199 F 
ATOM      3  N   UNL     1      33.980 -23.236 -16.358  0.00  0.00    -0.331 NA
ATOM      4  C   UNL     1      31.689 -22.542 -14.913  0.00  0.00    +0.031 C 
ATOM      5  C   UNL     1      32.974 -22.524 -16.915  0.00  0.00    +0.298 C 
ATOM      6  C   UNL     1      33.806 -23.586 -15.071  0.00  0.00    +0.312 C 
ATOM      7  C   UNL     1      31.820 -22.154 -16.243  0.00  0.00    +0.270 C 
ATOM      8  C   UNL     1      32.703 -23.275 -14.305  0.00  0.00    +0.201 C 
ATOM      9  C   UNL     1      30.467 -22.173 -14.143  0.00  0.00    +0.032 C 
ENDROOT
BRANCH   5  10
ATOM     10  O   UNL     1      33.126 -22.156 -18.225  0.00  0.00    -0.428 OA
BRANCH  10  11
ATOM     11  C   UNL     1      34.234 -21.399 -18.548  0.00  0.00    +0.148 C 
ATOM     12  C   UNL     1      35.230 -19.608 -19.796  0.00  0.00    +0.032 C 
ATOM     13  C   UNL     1      34.109 -20.373 -19.470  0.00  0.00    +0.040 C 
ATOM     14  C   UNL     1      35.448 -21.682 -17.943  0.00  0.00    +0.038 C 
ATOM     15  C   UNL     1      36.459 -19.880 -19.195  0.00  0.00    +0.003 C 
ATOM     16  C   UNL     1      36.568 -20.918 -18.269  0.00  0.00    +0.003 C 
BRANCH  12  19
ATOM     17  N   UNL     1      34.780 -18.791 -22.032  0.00  0.00    -0.387 N 
ATOM     18  N   UNL     1      35.350 -17.262 -20.387  0.00  0.00    -0.345 N 
ATOM     19  C   UNL     1      35.117 -18.533 -20.756  0.00  0.00    +0.096 C 
ATOM     20  H   UNL     1      34.706 -18.054 -22.680  0.00  0.00    +0.157 HD
ATOM     21  H   UNL     1      34.608 -19.718 -22.318  0.00  0.00    +0.157 HD
ATOM     22  H   UNL     1      35.273 -16.536 -21.047  0.00  0.00    +0.144 HD
ATOM     23  H   UNL     1      35.600 -17.058 -19.457  0.00  0.00    +0.144 HD
ENDBRANCH  12  19
ENDBRANCH  10  11
ENDBRANCH   5  10
BRANCH   6  24
ATOM     24  O   UNL     1      34.829 -24.317 -14.490  0.00  0.00    -0.426 OA
BRANCH  24  25
ATOM     25  C   UNL     1      36.093 -23.825 -14.591  0.00  0.00    +0.148 C 
ATOM     26  C   UNL     1      38.484 -24.181 -14.586  0.00  0.00    +0.034 C 
ATOM     27  C   UNL     1      37.187 -24.685 -14.484  0.00  0.00    +0.040 C 
ATOM     28  C   UNL     1      36.297 -22.461 -14.800  0.00  0.00    +0.038 C 
ATOM     29  C   UNL     1      38.687 -22.817 -14.795  0.00  0.00    +0.003 C 
ATOM     30  C   UNL     1      37.594 -21.957 -14.903  0.00  0.00    +0.003 C 
BRANCH  26  33
ATOM     31  N   UNL     1      39.790 -25.901 -13.362  0.00  0.00    -0.343 N 
ATOM     32  N   UNL     1      40.528 -25.117 -15.436  0.00  0.00    -0.285 NA
ATOM     33  C   UNL     1      39.624 -25.078 -14.474  0.00  0.00    +0.117 C 
ATOM     34  H   UNL     1      40.569 -26.500 -13.306  0.00  0.00    +0.144 HD
ATOM     35  H   UNL     1      39.129 -25.884 -12.633  0.00  0.00    +0.144 HD
ATOM     36  H   UNL     1      41.299 -25.723 -15.362  0.00  0.00    +0.188 HD
ENDBRANCH  26  33
ENDBRANCH  24  25
ENDBRANCH   6  24
TORSDOF 6
ENDMDL
MODEL 8
REMARK VINA RESULT:     -11.2      5.675      9.057
REMARK  Name = 4470378
REMARK  6 active torsions:
REMARK  status: ('A' for Active; 'I' for Inactive)
REMARK    1  A    between atoms: C_5  and  O_10
REMARK    2  A    between atoms: C_6  and  O_24
REMARK    3  A    between atoms: O_10  and  C_11
REMARK    4  A    between atoms: C_12  and  C_19
REMARK    5  A    between atoms: O_24  and  C_25
REMARK    6  A    between atoms: C_26  and  C_33
REMARK                            x       y       z     vdW  Elec       q    Type
REMARK                         _______ _______ _______ _____ _____    ______ ____
ROOT
ATOM      1  F   UNL     1      31.806 -23.074 -16.870  0.00  0.00    -0.221 F 
ATOM      2  F   UNL     1      33.770 -22.519 -12.578  0.00  0.00    -0.199 F 
ATOM      3  N   UNL     1      35.252 -22.503 -15.889  0.00  0.00    -0.331 NA
ATOM      4  C   UNL     1      32.740 -22.803 -14.701  0.00  0.00    +0.031 C 
ATOM      5  C   UNL     1      34.137 -22.714 -16.623  0.00  0.00    +0.298 C 
ATOM      6  C   UNL     1      35.074 -22.448 -14.557  0.00  0.00    +0.312 C 
ATOM      7  C   UNL     1      32.870 -22.868 -16.084  0.00  0.00    +0.270 C 
ATOM      8  C   UNL     1      33.864 -22.588 -13.911  0.00  0.00    +0.201 C 
ATOM      9  C   UNL     1      31.400 -22.963 -14.067  0.00  0.00    +0.032 C 
ENDROOT
BRANCH   5  10
ATOM     10  O   UNL     1      34.292 -22.775 -17.983  0.00  0.00    -0.428 OA
BRANCH  10  11
ATOM     11  C   UNL     1      34.202 -21.592 -18.687  0.00  0.00    +0.148 C 
ATOM     12  C   UNL     1      35.270 -19.734 -19.766  0.00  0.00    +0.032 C 
ATOM     13  C   UNL     1      35.362 -20.931 -19.055  0.00  0.00    +0.040 C 
ATOM     14  C   UNL     1      32.952 -21.089 -19.009  0.00  0.00    +0.038 C 
ATOM     15  C   UNL     1      34.019 -19.215 -20.098  0.00  0.00    +0.003 C 
ATOM     16  C   UNL     1      32.859 -19.892 -19.720  0.00  0.00    +0.003 C 
BRANCH  12  19
ATOM     17  N   UNL     1      36.399 -17.941 -20.939  0.00  0.00    -0.387 N 
ATOM     18  N   UNL     1      37.676 -19.462 -19.748  0.00  0.00    -0.345 N 
ATOM     19  C   UNL     1      36.471 -19.032 -20.157  0.00  0.00    +0.096 C 
ATOM     20  H   UNL     1      37.221 -17.468 -21.202  0.00  0.00    +0.157 HD
ATOM     21  H   UNL     1      35.523 -17.614 -21.249  0.00  0.00    +0.157 HD
ATOM     22  H   UNL     1      38.490 -18.979 -20.020  0.00  0.00    +0.144 HD
ATOM     23  H   UNL     1      37.746 -20.260 -19.176  0.00  0.00    +0.144 HD
ENDBRANCH  12  19
ENDBRANCH  10  11
ENDBRANCH   5  10
BRANCH   6  24
ATOM     24  O   UNL     1      36.210 -22.235 -13.794  0.00  0.00    -0.426 OA
BRANCH  24  25
ATOM     25  C   UNL     1      36.927 -23.326 -13.410  0.00  0.00    +0.148 C 
ATOM     26  C   UNL     1      38.833 -24.784 -13.695  0.00  0.00    +0.034 C 
ATOM     27  C   UNL     1      38.099 -23.665 -14.087  0.00  0.00    +0.040 C 
ATOM     28  C   UNL     1      36.491 -24.107 -12.339  0.00  0.00    +0.038 C 
ATOM     29  C   UNL     1      38.397 -25.564 -12.624  0.00  0.00    +0.003 C 
ATOM     30  C   UNL     1      37.225 -25.225 -11.946  0.00  0.00    +0.003 C 
BRANCH  26  33
ATOM     31  N   UNL     1      40.883 -26.161 -13.948  0.00  0.00    -0.343 N 
ATOM     32  N   UNL     1      40.398 -24.476 -15.493  0.00  0.00    -0.285 NA
ATOM     33  C   UNL     1      40.055 -25.137 -14.402  0.00  0.00    +0.117 C 
ATOM     34  H   UNL     1      41.705 -26.384 -14.442  0.00  0.00    +0.144 HD
ATOM     35  H   UNL     1      40.647 -26.664 -13.135  0.00  0.00    +0.144 HD
ATOM     36  H   UNL     1      41.224 -24.714 -15.972  0.00  0.00    +0.188 HD
ENDBRANCH  26  33
ENDBRANCH  24  25
ENDBRANCH   6  24
TORSDOF 6
ENDMDL
MODEL 9
REMARK VINA RESULT:     -11.2      6.735     10.345
REMARK  Name = 4470378
REMARK  6 active torsions:
REMARK  status: ('A' for Active; 'I' for Inactive)
REMARK    1  A    between atoms: C_5  and  O_10
REMARK    2  A    between atoms: C_6  and  O_24
REMARK    3  A    between atoms: O_10  and  C_11
REMARK    4  A    between atoms: C_12  and  C_19
REMARK    5  A    between atoms: O_24  and  C_25
REMARK    6  A    between atoms: C_26  and  C_33
REMARK                            x       y       z     vdW  Elec       q    Type
REMARK                         _______ _______ _______ _____ _____    ______ ____
ROOT
ATOM      1  F   UNL     1      37.557 -19.955 -17.790  0.00  0.00    -0.221 F 
ATOM      2  F   UNL     1      33.395 -21.976 -18.877  0.00  0.00    -0.199 F 
ATOM      3  N   UNL     1      35.599 -22.454 -16.035  0.00  0.00    -0.331 NA
ATOM      4  C   UNL     1      35.474 -20.936 -18.379  0.00  0.00    +0.031 C 
ATOM      5  C   UNL     1      36.573 -21.578 -16.370  0.00  0.00    +0.298 C 
ATOM      6  C   UNL     1      34.572 -22.547 -16.899  0.00  0.00    +0.312 C 
ATOM      7  C   UNL     1      36.558 -20.803 -17.518  0.00  0.00    +0.270 C 
ATOM      8  C   UNL     1      34.452 -21.828 -18.069  0.00  0.00    +0.201 C 
ATOM      9  C   UNL     1      35.407 -20.128 -19.630  0.00  0.00    +0.032 C 
ENDROOT
BRANCH   5  10
ATOM     10  O   UNL     1      37.631 -21.467 -15.507  0.00  0.00    -0.428 OA
BRANCH  10  11
ATOM     11  C   UNL     1      37.837 -22.502 -14.619  0.00  0.00    +0.148 C 
ATOM     12  C   UNL     1      37.327 -23.584 -12.539  0.00  0.00    +0.032 C 
ATOM     13  C   UNL     1      37.116 -22.536 -13.437  0.00  0.00    +0.040 C 
ATOM     14  C   UNL     1      38.762 -23.486 -14.928  0.00  0.00    +0.038 C 
ATOM     15  C   UNL     1      38.254 -24.582 -12.836  0.00  0.00    +0.003 C 
ATOM     16  C   UNL     1      38.973 -24.533 -14.031  0.00  0.00    +0.003 C 
BRANCH  12  19
ATOM     17  N   UNL     1      35.381 -24.236 -11.251  0.00  0.00    -0.387 N 
ATOM     18  N   UNL     1      37.080 -23.079 -10.183  0.00  0.00    -0.345 N 
ATOM     19  C   UNL     1      36.582 -23.635 -11.300  0.00  0.00    +0.096 C 
ATOM     20  H   UNL     1      34.880 -24.266 -10.404  0.00  0.00    +0.157 HD
ATOM     21  H   UNL     1      35.003 -24.647 -12.062  0.00  0.00    +0.157 HD
ATOM     22  H   UNL     1      36.567 -23.116  -9.343  0.00  0.00    +0.144 HD
ATOM     23  H   UNL     1      37.958 -22.633 -10.204  0.00  0.00    +0.144 HD
ENDBRANCH  12  19
ENDBRANCH  10  11
ENDBRANCH   5  10
BRANCH   6  24
ATOM     24  O   UNL     1      33.570 -23.443 -16.567  0.00  0.00    -0.426 OA
BRANCH  24  25
ATOM     25  C   UNL     1      32.614 -23.026 -15.693  0.00  0.00    +0.148 C 
ATOM     26  C   UNL     1      30.329 -22.384 -15.239  0.00  0.00    +0.034 C 
ATOM     27  C   UNL     1      31.308 -22.812 -16.135  0.00  0.00    +0.040 C 
ATOM     28  C   UNL     1      32.940 -22.810 -14.354  0.00  0.00    +0.038 C 
ATOM     29  C   UNL     1      30.655 -22.169 -13.900  0.00  0.00    +0.003 C 
ATOM     30  C   UNL     1      31.961 -22.382 -13.458  0.00  0.00    +0.003 C 
BRANCH  26  33
ATOM     31  N   UNL     1      28.506 -22.723 -16.890  0.00  0.00    -0.343 N 
ATOM     32  N   UNL     1      28.146 -21.410 -14.991  0.00  0.00    -0.285 NA
ATOM     33  C   UNL     1      28.968 -22.162 -15.701  0.00  0.00    +0.117 C 
ATOM     34  H   UNL     1      27.581 -22.560 -17.184  0.00  0.00    +0.144 HD
ATOM     35  H   UNL     1      29.104 -23.284 -17.436  0.00  0.00    +0.144 HD
ATOM     36  H   UNL     1      27.225 -21.258 -15.303  0.00  0.00    +0.188 HD
ENDBRANCH  26  33
ENDBRANCH  24  25
ENDBRANCH   6  24
TORSDOF 6
ENDMDL
