MODEL 1
REMARK VINA RESULT:     -11.7      0.000      0.000
REMARK  Name = 5289109
REMARK  6 active torsions:
REMARK  status: ('A' for Active; 'I' for Inactive)
REMARK    1  A    between atoms: C_3  and  C_9
REMARK    2  A    between atoms: C_4  and  C_21
REMARK    3  A    between atoms: N_8  and  C_11
REMARK    4  A    between atoms: C_11  and  C_12
REMARK    5  A    between atoms: N_20  and  C_23
REMARK    6  A    between atoms: C_23  and  C_24
REMARK                            x       y       z     vdW  Elec       q    Type
REMARK                         _______ _______ _______ _____ _____    ______ ____
ROOT
ATOM      1  N   UNL     1      32.065 -24.295 -12.783  0.00  0.00    -0.244 NA
ATOM      2  N   UNL     1      30.739 -23.591 -14.667  0.00  0.00    -0.244 NA
ATOM      3  C   UNL     1      33.094 -23.583 -13.289  0.00  0.00    +0.115 C 
ATOM      4  C   UNL     1      31.811 -22.918 -15.087  0.00  0.00    +0.115 C 
ATOM      5  C   UNL     1      33.022 -22.860 -14.463  0.00  0.00    +0.100 C 
ATOM      6  C   UNL     1      30.934 -24.255 -13.512  0.00  0.00    +0.250 C 
ENDROOT
BRANCH   3   9
ATOM      7  O   UNL     1      34.447 -22.915 -11.494  0.00  0.00    -0.269 OA
ATOM      8  N   UNL     1      35.337 -24.470 -12.966  0.00  0.00    -0.296 N 
ATOM      9  C   UNL     1      34.324 -23.612 -12.517  0.00  0.00    +0.260 C 
ATOM     10  H   UNL     1      35.175 -24.994 -13.783  0.00  0.00    +0.150 HD
BRANCH   8  11
ATOM     11  C   UNL     1      36.607 -24.628 -12.294  0.00  0.00    +0.117 C 
BRANCH  11  12
ATOM     12  C   UNL     1      37.765 -24.404 -13.223  0.00  0.00    -0.003 C 
ATOM     13  C   UNL     1      38.854 -25.265 -13.183  0.00  0.00    -0.007 C 
ATOM     14  C   UNL     1      39.929 -25.058 -14.048  0.00  0.00    -0.022 C 
ATOM     15  C   UNL     1      37.736 -23.336 -14.113  0.00  0.00    -0.003 C 
ATOM     16  C   UNL     1      39.909 -23.989 -14.943  0.00  0.00    -0.004 C 
ATOM     17  C   UNL     1      38.811 -23.128 -14.976  0.00  0.00    -0.001 C 
ATOM     18  C   UNL     1      41.104 -25.978 -14.012  0.00  0.00    +0.031 C 
ENDBRANCH  11  12
ENDBRANCH   8  11
ENDBRANCH   3   9
BRANCH   4  21
ATOM     19  O   UNL     1      30.496 -21.766 -16.650  0.00  0.00    -0.269 OA
ATOM     20  N   UNL     1      32.754 -21.987 -17.132  0.00  0.00    -0.296 N 
ATOM     21  C   UNL     1      31.617 -22.178 -16.360  0.00  0.00    +0.260 C 
ATOM     22  H   UNL     1      33.610 -22.356 -16.815  0.00  0.00    +0.150 HD
BRANCH  20  23
ATOM     23  C   UNL     1      32.732 -21.267 -18.381  0.00  0.00    +0.117 C 
BRANCH  23  24
ATOM     24  C   UNL     1      34.090 -20.808 -18.795  0.00  0.00    -0.003 C 
ATOM     25  C   UNL     1      34.226 -19.879 -19.825  0.00  0.00    -0.007 C 
ATOM     26  C   UNL     1      35.497 -19.448 -20.213  0.00  0.00    -0.022 C 
ATOM     27  C   UNL     1      35.222 -21.307 -18.151  0.00  0.00    -0.003 C 
ATOM     28  C   UNL     1      36.628 -19.947 -19.568  0.00  0.00    -0.004 C 
ATOM     29  C   UNL     1      36.491 -20.877 -18.537  0.00  0.00    -0.001 C 
ATOM     30  C   UNL     1      35.644 -18.455 -21.315  0.00  0.00    +0.031 C 
ENDBRANCH  23  24
ENDBRANCH  20  23
ENDBRANCH   4  21
TORSDOF 6
ENDMDL
MODEL 2
REMARK VINA RESULT:     -11.7      1.471      2.032
REMARK  Name = 5289109
REMARK  6 active torsions:
REMARK  status: ('A' for Active; 'I' for Inactive)
REMARK    1  A    between atoms: C_3  and  C_9
REMARK    2  A    between atoms: C_4  and  C_21
REMARK    3  A    between atoms: N_8  and  C_11
REMARK    4  A    between atoms: C_11  and  C_12
REMARK    5  A    between atoms: N_20  and  C_23
REMARK    6  A    between atoms: C_23  and  C_24
REMARK                            x       y       z     vdW  Elec       q    Type
REMARK                         _______ _______ _______ _____ _____    ______ ____
ROOT
ATOM      1  N   UNL     1      31.950 -22.681 -13.995  0.00  0.00    -0.244 NA
ATOM      2  N   UNL     1      31.494 -22.206 -16.312  0.00  0.00    -0.244 NA
ATOM      3  C   UNL     1      33.260 -22.769 -14.310  0.00  0.00    +0.115 C 
ATOM      4  C   UNL     1      32.807 -22.313 -16.525  0.00  0.00    +0.115 C 
ATOM      5  C   UNL     1      33.755 -22.592 -15.586  0.00  0.00    +0.100 C 
ATOM      6  C   UNL     1      31.136 -22.400 -15.030  0.00  0.00    +0.250 C 
ENDROOT
BRANCH   3   9
ATOM      7  O   UNL     1      33.799 -23.831 -12.290  0.00  0.00    -0.269 OA
ATOM      8  N   UNL     1      35.431 -22.491 -13.247  0.00  0.00    -0.296 N 
ATOM      9  C   UNL     1      34.157 -23.072 -13.208  0.00  0.00    +0.260 C 
ATOM     10  H   UNL     1      35.650 -21.898 -14.002  0.00  0.00    +0.150 HD
BRANCH   8  11
ATOM     11  C   UNL     1      36.443 -22.714 -12.239  0.00  0.00    +0.117 C 
BRANCH  11  12
ATOM     12  C   UNL     1      37.342 -23.863 -12.590  0.00  0.00    -0.003 C 
ATOM     13  C   UNL     1      38.486 -23.635 -13.345  0.00  0.00    -0.007 C 
ATOM     14  C   UNL     1      39.323 -24.702 -13.669  0.00  0.00    -0.022 C 
ATOM     15  C   UNL     1      37.022 -25.144 -12.156  0.00  0.00    -0.003 C 
ATOM     16  C   UNL     1      39.009 -25.991 -13.238  0.00  0.00    -0.004 C 
ATOM     17  C   UNL     1      37.859 -26.212 -12.481  0.00  0.00    -0.001 C 
ATOM     18  C   UNL     1      40.553 -24.467 -14.481  0.00  0.00    +0.031 C 
ENDBRANCH  11  12
ENDBRANCH   8  11
ENDBRANCH   3   9
BRANCH   4  21
ATOM     19  O   UNL     1      33.808 -23.005 -18.530  0.00  0.00    -0.269 OA
ATOM     20  N   UNL     1      32.888 -20.876 -18.492  0.00  0.00    -0.296 N 
ATOM     21  C   UNL     1      33.223 -22.103 -17.935  0.00  0.00    +0.260 C 
ATOM     22  H   UNL     1      32.418 -20.216 -17.933  0.00  0.00    +0.150 HD
BRANCH  20  23
ATOM     23  C   UNL     1      33.201 -20.532 -19.856  0.00  0.00    +0.117 C 
BRANCH  23  24
ATOM     24  C   UNL     1      34.534 -19.873 -19.982  0.00  0.00    -0.003 C 
ATOM     25  C   UNL     1      34.672 -18.727 -20.765  0.00  0.00    -0.007 C 
ATOM     26  C   UNL     1      35.919 -18.110 -20.883  0.00  0.00    -0.022 C 
ATOM     27  C   UNL     1      35.640 -20.403 -19.319  0.00  0.00    -0.003 C 
ATOM     28  C   UNL     1      37.024 -18.640 -20.219  0.00  0.00    -0.004 C 
ATOM     29  C   UNL     1      36.886 -19.786 -19.437  0.00  0.00    -0.001 C 
ATOM     30  C   UNL     1      36.068 -16.884 -21.720  0.00  0.00    +0.031 C 
ENDBRANCH  23  24
ENDBRANCH  20  23
ENDBRANCH   4  21
TORSDOF 6
ENDMDL
MODEL 3
REMARK VINA RESULT:     -11.7      1.469      7.385
REMARK  Name = 5289109
REMARK  6 active torsions:
REMARK  status: ('A' for Active; 'I' for Inactive)
REMARK    1  A    between atoms: C_3  and  C_9
REMARK    2  A    between atoms: C_4  and  C_21
REMARK    3  A    between atoms: N_8  and  C_11
REMARK    4  A    between atoms: C_11  and  C_12
REMARK    5  A    between atoms: N_20  and  C_23
REMARK    6  A    between atoms: C_23  and  C_24
REMARK                            x       y       z     vdW  Elec       q    Type
REMARK                         _______ _______ _______ _____ _____    ______ ____
ROOT
ATOM      1  N   UNL     1      31.492 -22.215 -16.280  0.00  0.00    -0.244 NA
ATOM      2  N   UNL     1      31.959 -22.688 -13.965  0.00  0.00    -0.244 NA
ATOM      3  C   UNL     1      32.814 -22.318 -16.530  0.00  0.00    +0.115 C 
ATOM      4  C   UNL     1      33.246 -22.770 -14.309  0.00  0.00    +0.115 C 
ATOM      5  C   UNL     1      33.757 -22.599 -15.562  0.00  0.00    +0.100 C 
ATOM      6  C   UNL     1      31.140 -22.409 -14.995  0.00  0.00    +0.250 C 
ENDROOT
BRANCH   3   9
ATOM      7  O   UNL     1      33.812 -23.007 -18.537  0.00  0.00    -0.269 OA
ATOM      8  N   UNL     1      32.880 -20.884 -18.494  0.00  0.00    -0.296 N 
ATOM      9  C   UNL     1      33.215 -22.112 -17.911  0.00  0.00    +0.260 C 
ATOM     10  H   UNL     1      32.409 -20.219 -17.942  0.00  0.00    +0.150 HD
BRANCH   8  11
ATOM     11  C   UNL     1      33.189 -20.538 -19.863  0.00  0.00    +0.117 C 
BRANCH  11  12
ATOM     12  C   UNL     1      34.530 -19.875 -19.987  0.00  0.00    -0.003 C 
ATOM     13  C   UNL     1      34.666 -18.742 -20.780  0.00  0.00    -0.007 C 
ATOM     14  C   UNL     1      35.912 -18.125 -20.892  0.00  0.00    -0.022 C 
ATOM     15  C   UNL     1      35.622 -20.401 -19.306  0.00  0.00    -0.003 C 
ATOM     16  C   UNL     1      37.013 -18.646 -20.213  0.00  0.00    -0.004 C 
ATOM     17  C   UNL     1      36.868 -19.784 -19.419  0.00  0.00    -0.001 C 
ATOM     18  C   UNL     1      36.068 -16.909 -21.743  0.00  0.00    +0.031 C 
ENDBRANCH  11  12
ENDBRANCH   8  11
ENDBRANCH   3   9
BRANCH   4  21
ATOM     19  O   UNL     1      33.791 -23.821 -12.285  0.00  0.00    -0.269 OA
ATOM     20  N   UNL     1      35.428 -22.498 -13.258  0.00  0.00    -0.296 N 
ATOM     21  C   UNL     1      34.168 -23.076 -13.186  0.00  0.00    +0.260 C 
ATOM     22  H   UNL     1      35.637 -21.913 -14.022  0.00  0.00    +0.150 HD
BRANCH  20  23
ATOM     23  C   UNL     1      36.442 -22.720 -12.258  0.00  0.00    +0.117 C 
BRANCH  23  24
ATOM     24  C   UNL     1      37.334 -23.865 -12.600  0.00  0.00    -0.003 C 
ATOM     25  C   UNL     1      38.482 -23.651 -13.363  0.00  0.00    -0.007 C 
ATOM     26  C   UNL     1      39.317 -24.722 -13.683  0.00  0.00    -0.022 C 
ATOM     27  C   UNL     1      37.021 -25.150 -12.158  0.00  0.00    -0.003 C 
ATOM     28  C   UNL     1      39.003 -26.007 -13.239  0.00  0.00    -0.004 C 
ATOM     29  C   UNL     1      37.855 -26.221 -12.477  0.00  0.00    -0.001 C 
ATOM     30  C   UNL     1      40.544 -24.494 -14.499  0.00  0.00    +0.031 C 
ENDBRANCH  23  24
ENDBRANCH  20  23
ENDBRANCH   4  21
TORSDOF 6
ENDMDL
MODEL 4
REMARK VINA RESULT:     -11.5      7.030     12.949
REMARK  Name = 5289109
REMARK  6 active torsions:
REMARK  status: ('A' for Active; 'I' for Inactive)
REMARK    1  A    between atoms: C_3  and  C_9
REMARK    2  A    between atoms: C_4  and  C_21
REMARK    3  A    between atoms: N_8  and  C_11
REMARK    4  A    between atoms: C_11  and  C_12
REMARK    5  A    between atoms: N_20  and  C_23
REMARK    6  A    between atoms: C_23  and  C_24
REMARK                            x       y       z     vdW  Elec       q    Type
REMARK                         _______ _______ _______ _____ _____    ______ ____
ROOT
ATOM      1  N   UNL     1      34.582 -13.907 -20.987  0.00  0.00    -0.244 NA
ATOM      2  N   UNL     1      35.342 -15.922 -19.907  0.00  0.00    -0.244 NA
ATOM      3  C   UNL     1      34.651 -14.558 -22.167  0.00  0.00    +0.115 C 
ATOM      4  C   UNL     1      35.379 -16.480 -21.119  0.00  0.00    +0.115 C 
ATOM      5  C   UNL     1      35.052 -15.873 -22.296  0.00  0.00    +0.100 C 
ATOM      6  C   UNL     1      34.936 -14.639 -19.914  0.00  0.00    +0.250 C 
ENDROOT
BRANCH   3   9
ATOM      7  O   UNL     1      33.903 -14.358 -24.381  0.00  0.00    -0.269 OA
ATOM      8  N   UNL     1      34.323 -12.392 -23.226  0.00  0.00    -0.296 N 
ATOM      9  C   UNL     1      34.272 -13.787 -23.339  0.00  0.00    +0.260 C 
ATOM     10  H   UNL     1      34.625 -12.004 -22.373  0.00  0.00    +0.150 HD
BRANCH   8  11
ATOM     11  C   UNL     1      33.955 -11.489 -24.293  0.00  0.00    +0.117 C 
BRANCH  11  12
ATOM     12  C   UNL     1      34.437 -10.091 -24.037  0.00  0.00    -0.003 C 
ATOM     13  C   UNL     1      33.835  -9.327 -23.045  0.00  0.00    -0.007 C 
ATOM     14  C   UNL     1      34.285  -8.028 -22.806  0.00  0.00    -0.022 C 
ATOM     15  C   UNL     1      35.482  -9.573 -24.796  0.00  0.00    -0.003 C 
ATOM     16  C   UNL     1      35.332  -7.501 -23.562  0.00  0.00    -0.004 C 
ATOM     17  C   UNL     1      35.931  -8.275 -24.557  0.00  0.00    -0.001 C 
ATOM     18  C   UNL     1      33.643  -7.200 -21.743  0.00  0.00    +0.031 C 
ENDBRANCH  11  12
ENDBRANCH   8  11
ENDBRANCH   3   9
BRANCH   4  21
ATOM     19  O   UNL     1      35.749 -18.539 -22.178  0.00  0.00    -0.269 OA
ATOM     20  N   UNL     1      36.330 -18.388 -19.938  0.00  0.00    -0.296 N 
ATOM     21  C   UNL     1      35.825 -17.896 -21.134  0.00  0.00    +0.260 C 
ATOM     22  H   UNL     1      36.350 -17.793 -19.153  0.00  0.00    +0.150 HD
BRANCH  20  23
ATOM     23  C   UNL     1      36.825 -19.734 -19.800  0.00  0.00    +0.117 C 
BRANCH  23  24
ATOM     24  C   UNL     1      36.018 -20.539 -18.839  0.00  0.00    -0.003 C 
ATOM     25  C   UNL     1      36.592 -20.984 -17.648  0.00  0.00    -0.007 C 
ATOM     26  C   UNL     1      35.837 -21.737 -16.747  0.00  0.00    -0.022 C 
ATOM     27  C   UNL     1      34.689 -20.847 -19.129  0.00  0.00    -0.003 C 
ATOM     28  C   UNL     1      34.508 -22.044 -17.039  0.00  0.00    -0.004 C 
ATOM     29  C   UNL     1      33.934 -21.599 -18.230  0.00  0.00    -0.001 C 
ATOM     30  C   UNL     1      36.451 -22.213 -15.475  0.00  0.00    +0.031 C 
ENDBRANCH  23  24
ENDBRANCH  20  23
ENDBRANCH   4  21
TORSDOF 6
ENDMDL
MODEL 5
REMARK VINA RESULT:     -11.5      7.034     10.500
REMARK  Name = 5289109
REMARK  6 active torsions:
REMARK  status: ('A' for Active; 'I' for Inactive)
REMARK    1  A    between atoms: C_3  and  C_9
REMARK    2  A    between atoms: C_4  and  C_21
REMARK    3  A    between atoms: N_8  and  C_11
REMARK    4  A    between atoms: C_11  and  C_12
REMARK    5  A    between atoms: N_20  and  C_23
REMARK    6  A    between atoms: C_23  and  C_24
REMARK                            x       y       z     vdW  Elec       q    Type
REMARK                         _______ _______ _______ _____ _____    ______ ____
ROOT
ATOM      1  N   UNL     1      35.332 -15.898 -19.915  0.00  0.00    -0.244 NA
ATOM      2  N   UNL     1      34.581 -13.884 -21.004  0.00  0.00    -0.244 NA
ATOM      3  C   UNL     1      35.384 -16.489 -21.126  0.00  0.00    +0.115 C 
ATOM      4  C   UNL     1      34.664 -14.554 -22.155  0.00  0.00    +0.115 C 
ATOM      5  C   UNL     1      35.053 -15.853 -22.306  0.00  0.00    +0.100 C 
ATOM      6  C   UNL     1      34.929 -14.613 -19.927  0.00  0.00    +0.250 C 
ENDROOT
BRANCH   3   9
ATOM      7  O   UNL     1      35.734 -18.558 -22.173  0.00  0.00    -0.269 OA
ATOM      8  N   UNL     1      36.344 -18.386 -19.942  0.00  0.00    -0.296 N 
ATOM      9  C   UNL     1      35.816 -17.876 -21.136  0.00  0.00    +0.260 C 
ATOM     10  H   UNL     1      36.380 -17.793 -19.158  0.00  0.00    +0.150 HD
BRANCH   8  11
ATOM     11  C   UNL     1      36.838 -19.737 -19.799  0.00  0.00    +0.117 C 
BRANCH  11  12
ATOM     12  C   UNL     1      36.005 -20.542 -18.844  0.00  0.00    -0.003 C 
ATOM     13  C   UNL     1      36.564 -20.990 -17.654  0.00  0.00    -0.007 C 
ATOM     14  C   UNL     1      35.789 -21.736 -16.765  0.00  0.00    -0.022 C 
ATOM     15  C   UNL     1      34.681 -20.829 -19.159  0.00  0.00    -0.003 C 
ATOM     16  C   UNL     1      34.461 -22.030 -17.074  0.00  0.00    -0.004 C 
ATOM     17  C   UNL     1      33.907 -21.575 -18.271  0.00  0.00    -0.001 C 
ATOM     18  C   UNL     1      36.382 -22.223 -15.485  0.00  0.00    +0.031 C 
ENDBRANCH  11  12
ENDBRANCH   8  11
ENDBRANCH   3   9
BRANCH   4  21
ATOM     19  O   UNL     1      33.948 -14.359 -24.380  0.00  0.00    -0.269 OA
ATOM     20  N   UNL     1      34.318 -12.387 -23.216  0.00  0.00    -0.296 N 
ATOM     21  C   UNL     1      34.284 -13.768 -23.356  0.00  0.00    +0.260 C 
ATOM     22  H   UNL     1      34.602 -12.007 -22.353  0.00  0.00    +0.150 HD
BRANCH  20  23
ATOM     23  C   UNL     1      33.953 -11.490 -24.282  0.00  0.00    +0.117 C 
BRANCH  23  24
ATOM     24  C   UNL     1      34.435 -10.099 -24.042  0.00  0.00    -0.003 C 
ATOM     25  C   UNL     1      33.859  -9.327 -23.033  0.00  0.00    -0.007 C 
ATOM     26  C   UNL     1      34.310  -8.025 -22.807  0.00  0.00    -0.022 C 
ATOM     27  C   UNL     1      35.460  -9.570 -24.825  0.00  0.00    -0.003 C 
ATOM     28  C   UNL     1      35.336  -7.498 -23.591  0.00  0.00    -0.004 C 
ATOM     29  C   UNL     1      35.911  -8.270 -24.600  0.00  0.00    -0.001 C 
ATOM     30  C   UNL     1      33.695  -7.199 -21.729  0.00  0.00    +0.031 C 
ENDBRANCH  23  24
ENDBRANCH  20  23
ENDBRANCH   4  21
TORSDOF 6
ENDMDL
MODEL 6
REMARK VINA RESULT:     -11.2      3.485      9.661
REMARK  Name = 5289109
REMARK  6 active torsions:
REMARK  status: ('A' for Active; 'I' for Inactive)
REMARK    1  A    between atoms: C_3  and  C_9
REMARK    2  A    between atoms: C_4  and  C_21
REMARK    3  A    between atoms: N_8  and  C_11
REMARK    4  A    between atoms: C_11  and  C_12
REMARK    5  A    between atoms: N_20  and  C_23
REMARK    6  A    between atoms: C_23  and  C_24
REMARK                            x       y       z     vdW  Elec       q    Type
REMARK                         _______ _______ _______ _____ _____    ______ ____
ROOT
ATOM      1  N   UNL     1      34.602 -20.570 -19.827  0.00  0.00    -0.244 NA
ATOM      2  N   UNL     1      34.785 -21.884 -17.816  0.00  0.00    -0.244 NA
ATOM      3  C   UNL     1      35.772 -19.980 -19.504  0.00  0.00    +0.115 C 
ATOM      4  C   UNL     1      35.934 -21.245 -17.581  0.00  0.00    +0.115 C 
ATOM      5  C   UNL     1      36.496 -20.284 -18.369  0.00  0.00    +0.100 C 
ATOM      6  C   UNL     1      34.174 -21.499 -18.951  0.00  0.00    +0.250 C 
ENDROOT
BRANCH   3   9
ATOM      7  O   UNL     1      37.462 -18.687 -20.488  0.00  0.00    -0.269 OA
ATOM      8  N   UNL     1      35.301 -18.374 -21.270  0.00  0.00    -0.296 N 
ATOM      9  C   UNL     1      36.252 -18.974 -20.435  0.00  0.00    +0.260 C 
ATOM     10  H   UNL     1      34.360 -18.647 -21.176  0.00  0.00    +0.150 HD
BRANCH   8  11
ATOM     11  C   UNL     1      35.625 -17.375 -22.263  0.00  0.00    +0.117 C 
BRANCH  11  12
ATOM     12  C   UNL     1      35.236 -15.995 -21.820  0.00  0.00    -0.003 C 
ATOM     13  C   UNL     1      34.979 -15.015 -22.770  0.00  0.00    -0.007 C 
ATOM     14  C   UNL     1      34.616 -13.732 -22.358  0.00  0.00    -0.022 C 
ATOM     15  C   UNL     1      35.137 -15.711 -20.462  0.00  0.00    -0.003 C 
ATOM     16  C   UNL     1      34.514 -13.439 -20.998  0.00  0.00    -0.004 C 
ATOM     17  C   UNL     1      34.774 -14.429 -20.050  0.00  0.00    -0.001 C 
ATOM     18  C   UNL     1      34.339 -12.673 -23.371  0.00  0.00    +0.031 C 
ENDBRANCH  11  12
ENDBRANCH   8  11
ENDBRANCH   3   9
BRANCH   4  21
ATOM     19  O   UNL     1      37.849 -21.571 -16.268  0.00  0.00    -0.269 OA
ATOM     20  N   UNL     1      35.806 -22.089 -15.299  0.00  0.00    -0.296 N 
ATOM     21  C   UNL     1      36.624 -21.655 -16.332  0.00  0.00    +0.260 C 
ATOM     22  H   UNL     1      34.833 -22.121 -15.447  0.00  0.00    +0.150 HD
BRANCH  20  23
ATOM     23  C   UNL     1      36.324 -22.496 -14.017  0.00  0.00    +0.117 C 
BRANCH  23  24
ATOM     24  C   UNL     1      37.027 -23.810 -14.081  0.00  0.00    -0.003 C 
ATOM     25  C   UNL     1      38.396 -23.881 -13.822  0.00  0.00    -0.007 C 
ATOM     26  C   UNL     1      39.054 -25.111 -13.881  0.00  0.00    -0.022 C 
ATOM     27  C   UNL     1      36.317 -24.967 -14.400  0.00  0.00    -0.003 C 
ATOM     28  C   UNL     1      38.343 -26.267 -14.200  0.00  0.00    -0.004 C 
ATOM     29  C   UNL     1      36.974 -26.196 -14.459  0.00  0.00    -0.001 C 
ATOM     30  C   UNL     1      40.518 -25.187 -13.604  0.00  0.00    +0.031 C 
ENDBRANCH  23  24
ENDBRANCH  20  23
ENDBRANCH   4  21
TORSDOF 6
ENDMDL
MODEL 7
REMARK VINA RESULT:     -11.2      3.477      5.446
REMARK  Name = 5289109
REMARK  6 active torsions:
REMARK  status: ('A' for Active; 'I' for Inactive)
REMARK    1  A    between atoms: C_3  and  C_9
REMARK    2  A    between atoms: C_4  and  C_21
REMARK    3  A    between atoms: N_8  and  C_11
REMARK    4  A    between atoms: C_11  and  C_12
REMARK    5  A    between atoms: N_20  and  C_23
REMARK    6  A    between atoms: C_23  and  C_24
REMARK                            x       y       z     vdW  Elec       q    Type
REMARK                         _______ _______ _______ _____ _____    ______ ____
ROOT
ATOM      1  N   UNL     1      34.828 -21.896 -17.847  0.00  0.00    -0.244 NA
ATOM      2  N   UNL     1      34.657 -20.585 -19.862  0.00  0.00    -0.244 NA
ATOM      3  C   UNL     1      35.972 -21.240 -17.562  0.00  0.00    +0.115 C 
ATOM      4  C   UNL     1      35.796 -19.993 -19.495  0.00  0.00    +0.115 C 
ATOM      5  C   UNL     1      36.515 -20.259 -18.367  0.00  0.00    +0.100 C 
ATOM      6  C   UNL     1      34.231 -21.523 -18.995  0.00  0.00    +0.250 C 
ENDROOT
BRANCH   3   9
ATOM      7  O   UNL     1      37.863 -21.495 -16.199  0.00  0.00    -0.269 OA
ATOM      8  N   UNL     1      35.820 -22.124 -15.300  0.00  0.00    -0.296 N 
ATOM      9  C   UNL     1      36.633 -21.627 -16.327  0.00  0.00    +0.260 C 
ATOM     10  H   UNL     1      34.853 -22.203 -15.467  0.00  0.00    +0.150 HD
BRANCH   8  11
ATOM     11  C   UNL     1      36.324 -22.528 -14.007  0.00  0.00    +0.117 C 
BRANCH  11  12
ATOM     12  C   UNL     1      37.044 -23.844 -14.070  0.00  0.00    -0.003 C 
ATOM     13  C   UNL     1      38.415 -23.887 -13.850  0.00  0.00    -0.007 C 
ATOM     14  C   UNL     1      39.084 -25.110 -13.906  0.00  0.00    -0.022 C 
ATOM     15  C   UNL     1      36.332 -25.005 -14.347  0.00  0.00    -0.003 C 
ATOM     16  C   UNL     1      38.378 -26.280 -14.185  0.00  0.00    -0.004 C 
ATOM     17  C   UNL     1      37.001 -26.227 -14.404  0.00  0.00    -0.001 C 
ATOM     18  C   UNL     1      40.557 -25.167 -13.673  0.00  0.00    +0.031 C 
ENDBRANCH  11  12
ENDBRANCH   8  11
ENDBRANCH   3   9
BRANCH   4  21
ATOM     19  O   UNL     1      37.478 -18.663 -20.443  0.00  0.00    -0.269 OA
ATOM     20  N   UNL     1      35.330 -18.400 -21.279  0.00  0.00    -0.296 N 
ATOM     21  C   UNL     1      36.284 -18.956 -20.438  0.00  0.00    +0.260 C 
ATOM     22  H   UNL     1      34.396 -18.700 -21.198  0.00  0.00    +0.150 HD
BRANCH  20  23
ATOM     23  C   UNL     1      35.653 -17.400 -22.265  0.00  0.00    +0.117 C 
BRANCH  23  24
ATOM     24  C   UNL     1      35.264 -16.027 -21.828  0.00  0.00    -0.003 C 
ATOM     25  C   UNL     1      34.987 -15.046 -22.780  0.00  0.00    -0.007 C 
ATOM     26  C   UNL     1      34.622 -13.762 -22.372  0.00  0.00    -0.022 C 
ATOM     27  C   UNL     1      35.177 -15.725 -20.469  0.00  0.00    -0.003 C 
ATOM     28  C   UNL     1      34.535 -13.461 -21.013  0.00  0.00    -0.004 C 
ATOM     29  C   UNL     1      34.813 -14.442 -20.061  0.00  0.00    -0.001 C 
ATOM     30  C   UNL     1      34.326 -12.712 -23.389  0.00  0.00    +0.031 C 
ENDBRANCH  23  24
ENDBRANCH  20  23
ENDBRANCH   4  21
TORSDOF 6
ENDMDL
MODEL 8
REMARK VINA RESULT:     -11.1      2.527      4.325
REMARK  Name = 5289109
REMARK  6 active torsions:
REMARK  status: ('A' for Active; 'I' for Inactive)
REMARK    1  A    between atoms: C_3  and  C_9
REMARK    2  A    between atoms: C_4  and  C_21
REMARK    3  A    between atoms: N_8  and  C_11
REMARK    4  A    between atoms: C_11  and  C_12
REMARK    5  A    between atoms: N_20  and  C_23
REMARK    6  A    between atoms: C_23  and  C_24
REMARK                            x       y       z     vdW  Elec       q    Type
REMARK                         _______ _______ _______ _____ _____    ______ ____
ROOT
ATOM      1  N   UNL     1      33.369 -22.337 -16.796  0.00  0.00    -0.244 NA
ATOM      2  N   UNL     1      33.979 -21.174 -18.817  0.00  0.00    -0.244 NA
ATOM      3  C   UNL     1      34.647 -22.206 -16.380  0.00  0.00    +0.115 C 
ATOM      4  C   UNL     1      35.215 -21.095 -18.320  0.00  0.00    +0.115 C 
ATOM      5  C   UNL     1      35.633 -21.582 -17.117  0.00  0.00    +0.100 C 
ATOM      6  C   UNL     1      33.109 -21.805 -18.006  0.00  0.00    +0.250 C 
ENDROOT
BRANCH   3   9
ATOM      7  O   UNL     1      34.402 -23.825 -14.702  0.00  0.00    -0.269 OA
ATOM      8  N   UNL     1      35.891 -22.095 -14.292  0.00  0.00    -0.296 N 
ATOM      9  C   UNL     1      34.949 -22.772 -15.077  0.00  0.00    +0.260 C 
ATOM     10  H   UNL     1      36.286 -21.267 -14.649  0.00  0.00    +0.150 HD
BRANCH   8  11
ATOM     11  C   UNL     1      36.314 -22.545 -12.986  0.00  0.00    +0.117 C 
BRANCH  11  12
ATOM     12  C   UNL     1      37.242 -23.722 -13.070  0.00  0.00    -0.003 C 
ATOM     13  C   UNL     1      38.432 -23.610 -13.779  0.00  0.00    -0.007 C 
ATOM     14  C   UNL     1      39.295 -24.703 -13.856  0.00  0.00    -0.022 C 
ATOM     15  C   UNL     1      36.902 -24.912 -12.437  0.00  0.00    -0.003 C 
ATOM     16  C   UNL     1      38.962 -25.901 -13.224  0.00  0.00    -0.004 C 
ATOM     17  C   UNL     1      37.765 -26.005 -12.514  0.00  0.00    -0.001 C 
ATOM     18  C   UNL     1      40.574 -24.592 -14.616  0.00  0.00    +0.031 C 
ENDBRANCH  11  12
ENDBRANCH   8  11
ENDBRANCH   3   9
BRANCH   4  21
ATOM     19  O   UNL     1      37.268 -20.941 -19.443  0.00  0.00    -0.269 OA
ATOM     20  N   UNL     1      35.786 -19.178 -19.713  0.00  0.00    -0.296 N 
ATOM     21  C   UNL     1      36.191 -20.403 -19.200  0.00  0.00    +0.260 C 
ATOM     22  H   UNL     1      34.901 -18.828 -19.459  0.00  0.00    +0.150 HD
BRANCH  20  23
ATOM     23  C   UNL     1      36.610 -18.397 -20.601  0.00  0.00    +0.117 C 
BRANCH  23  24
ATOM     24  C   UNL     1      35.847 -17.877 -21.772  0.00  0.00    -0.003 C 
ATOM     25  C   UNL     1      35.764 -16.503 -21.994  0.00  0.00    -0.007 C 
ATOM     26  C   UNL     1      35.050 -16.015 -23.090  0.00  0.00    -0.022 C 
ATOM     27  C   UNL     1      35.217 -18.764 -22.644  0.00  0.00    -0.003 C 
ATOM     28  C   UNL     1      34.421 -16.903 -23.962  0.00  0.00    -0.004 C 
ATOM     29  C   UNL     1      34.504 -18.277 -23.740  0.00  0.00    -0.001 C 
ATOM     30  C   UNL     1      34.960 -14.546 -23.328  0.00  0.00    +0.031 C 
ENDBRANCH  23  24
ENDBRANCH  20  23
ENDBRANCH   4  21
TORSDOF 6
ENDMDL
MODEL 9
REMARK VINA RESULT:     -11.0      4.425      7.875
REMARK  Name = 5289109
REMARK  6 active torsions:
REMARK  status: ('A' for Active; 'I' for Inactive)
REMARK    1  A    between atoms: C_3  and  C_9
REMARK    2  A    between atoms: C_4  and  C_21
REMARK    3  A    between atoms: N_8  and  C_11
REMARK    4  A    between atoms: C_11  and  C_12
REMARK    5  A    between atoms: N_20  and  C_23
REMARK    6  A    between atoms: C_23  and  C_24
REMARK                            x       y       z     vdW  Elec       q    Type
REMARK                         _______ _______ _______ _____ _____    ______ ____
ROOT
ATOM      1  N   UNL     1      35.993 -20.013 -19.216  0.00  0.00    -0.244 NA
ATOM      2  N   UNL     1      36.819 -18.309 -20.706  0.00  0.00    -0.244 NA
ATOM      3  C   UNL     1      34.778 -19.867 -19.784  0.00  0.00    +0.115 C 
ATOM      4  C   UNL     1      35.582 -18.237 -21.204  0.00  0.00    +0.115 C 
ATOM      5  C   UNL     1      34.508 -18.975 -20.802  0.00  0.00    +0.100 C 
ATOM      6  C   UNL     1      36.954 -19.214 -19.719  0.00  0.00    +0.250 C 
ENDROOT
BRANCH   3   9
ATOM      7  O   UNL     1      32.655 -20.860 -19.873  0.00  0.00    -0.269 OA
ATOM      8  N   UNL     1      33.990 -21.381 -18.049  0.00  0.00    -0.296 N 
ATOM      9  C   UNL     1      33.726 -20.720 -19.256  0.00  0.00    +0.260 C 
ATOM     10  H   UNL     1      34.858 -21.225 -17.612  0.00  0.00    +0.150 HD
BRANCH   8  11
ATOM     11  C   UNL     1      33.056 -22.280 -17.410  0.00  0.00    +0.117 C 
BRANCH  11  12
ATOM     12  C   UNL     1      33.503 -22.667 -16.030  0.00  0.00    -0.003 C 
ATOM     13  C   UNL     1      32.592 -23.230 -15.145  0.00  0.00    -0.007 C 
ATOM     14  C   UNL     1      33.008 -23.592 -13.864  0.00  0.00    -0.022 C 
ATOM     15  C   UNL     1      34.824 -22.458 -15.651  0.00  0.00    -0.003 C 
ATOM     16  C   UNL     1      34.332 -23.385 -13.475  0.00  0.00    -0.004 C 
ATOM     17  C   UNL     1      35.240 -22.819 -14.370  0.00  0.00    -0.001 C 
ATOM     18  C   UNL     1      32.037 -24.197 -12.906  0.00  0.00    +0.031 C 
ENDBRANCH  11  12
ENDBRANCH   8  11
ENDBRANCH   3   9
BRANCH   4  21
ATOM     19  O   UNL     1      35.173 -17.637 -23.433  0.00  0.00    -0.269 OA
ATOM     20  N   UNL     1      35.516 -15.910 -21.924  0.00  0.00    -0.296 N 
ATOM     21  C   UNL     1      35.412 -17.244 -22.294  0.00  0.00    +0.260 C 
ATOM     22  H   UNL     1      35.710 -15.694 -20.983  0.00  0.00    +0.150 HD
BRANCH  20  23
ATOM     23  C   UNL     1      35.350 -14.829 -22.862  0.00  0.00    +0.117 C 
BRANCH  23  24
ATOM     24  C   UNL     1      34.444 -13.763 -22.344  0.00  0.00    -0.003 C 
ATOM     25  C   UNL     1      33.753 -13.956 -21.149  0.00  0.00    -0.007 C 
ATOM     26  C   UNL     1      32.906 -12.959 -20.663  0.00  0.00    -0.022 C 
ATOM     27  C   UNL     1      34.289 -12.573 -23.054  0.00  0.00    -0.003 C 
ATOM     28  C   UNL     1      32.752 -11.769 -21.374  0.00  0.00    -0.004 C 
ATOM     29  C   UNL     1      33.443 -11.576 -22.570  0.00  0.00    -0.001 C 
ATOM     30  C   UNL     1      32.166 -13.165 -19.385  0.00  0.00    +0.031 C 
ENDBRANCH  23  24
ENDBRANCH  20  23
ENDBRANCH   4  21
TORSDOF 6
ENDMDL
