MODEL 1
REMARK VINA RESULT:     -12.0      0.000      0.000
REMARK  Name = 2267
REMARK  3 active torsions:
REMARK  status: ('A' for Active; 'I' for Inactive)
REMARK    1  A    between atoms: N_2  and  C_13
REMARK    2  A    between atoms: C_6  and  C_21
REMARK    3  A    between atoms: C_21  and  C_23
REMARK                            x       y       z     vdW  Elec       q    Type
REMARK                         _______ _______ _______ _____ _____    ______ ____
ROOT
ATOM      1  O   UNL     1      32.535 -21.856 -18.221  0.00  0.00    -0.266 OA
ATOM      2  N   UNL     1      33.968 -22.393 -16.477  0.00  0.00    -0.219 N 
ATOM      3  N   UNL     1      35.210 -22.335 -15.913  0.00  0.00    -0.171 NA
ATOM      4  C   UNL     1      33.648 -21.811 -17.702  0.00  0.00    +0.276 A 
ATOM      5  C   UNL     1      34.732 -21.100 -18.404  0.00  0.00    +0.059 A 
ATOM      6  C   UNL     1      36.166 -21.711 -16.525  0.00  0.00    +0.083 A 
ATOM      7  C   UNL     1      35.995 -21.044 -17.827  0.00  0.00    +0.020 A 
ATOM      8  C   UNL     1      34.497 -20.488 -19.641  0.00  0.00    +0.005 C 
ATOM      9  C   UNL     1      37.035 -20.376 -18.480  0.00  0.00    +0.001 C 
ATOM     10  C   UNL     1      35.535 -19.821 -20.292  0.00  0.00    +0.000 C 
ATOM     11  C   UNL     1      36.800 -19.766 -19.712  0.00  0.00    +0.000 C 
ENDROOT
BRANCH   2  13
ATOM     12  N   UNL     1      30.510 -24.267 -14.476  0.00  0.00    +0.386 N 
ATOM     13  C   UNL     1      32.983 -23.117 -15.700  0.00  0.00    +0.106 C 
ATOM     14  C   UNL     1      33.555 -23.392 -14.306  0.00  0.00    +0.022 C 
ATOM     15  C   UNL     1      31.688 -22.304 -15.629  0.00  0.00    +0.002 C 
ATOM     16  C   UNL     1      32.737 -24.342 -13.436  0.00  0.00    -0.021 C 
ATOM     17  C   UNL     1      30.419 -23.133 -15.402  0.00  0.00    -0.075 C 
ATOM     18  C   UNL     1      31.261 -23.983 -13.253  0.00  0.00    -0.077 C 
ATOM     19  C   UNL     1      29.170 -24.772 -14.175  0.00  0.00    -0.101 C 
ATOM     20  H   UNL     1      31.051 -24.987 -14.954  0.00  0.00    -0.080 HD
ENDBRANCH   2  13
BRANCH   6  21
ATOM     21  C   UNL     1      37.519 -21.681 -15.853  0.00  0.00    +0.074 C 
BRANCH  21  23
ATOM     22 CL   UNL     1      37.706 -25.623 -11.330  0.00  0.00    -0.082 Cl
ATOM     23  C   UNL     1      37.566 -22.663 -14.725  0.00  0.00    -0.016 C 
ATOM     24  C   UNL     1      38.207 -23.887 -14.899  0.00  0.00    -0.003 C 
ATOM     25  C   UNL     1      36.968 -22.349 -13.506  0.00  0.00    -0.003 C 
ATOM     26  C   UNL     1      38.250 -24.803 -13.848  0.00  0.00    +0.011 C 
ATOM     27  C   UNL     1      37.011 -23.265 -12.456  0.00  0.00    +0.011 C 
ATOM     28  C   UNL     1      37.653 -24.493 -12.626  0.00  0.00    +0.058 C 
ENDBRANCH  21  23
ENDBRANCH   6  21
TORSDOF 3
ENDMDL
MODEL 2
REMARK VINA RESULT:     -12.0      2.944      6.732
REMARK  Name = 2267
REMARK  3 active torsions:
REMARK  status: ('A' for Active; 'I' for Inactive)
REMARK    1  A    between atoms: N_2  and  C_13
REMARK    2  A    between atoms: C_6  and  C_21
REMARK    3  A    between atoms: C_21  and  C_23
REMARK                            x       y       z     vdW  Elec       q    Type
REMARK                         _______ _______ _______ _____ _____    ______ ____
ROOT
ATOM      1  O   UNL     1      34.130 -23.149 -12.541  0.00  0.00    -0.266 OA
ATOM      2  N   UNL     1      35.001 -23.250 -14.690  0.00  0.00    -0.219 N 
ATOM      3  N   UNL     1      34.816 -23.169 -16.041  0.00  0.00    -0.171 NA
ATOM      4  C   UNL     1      33.978 -23.079 -13.759  0.00  0.00    +0.276 A 
ATOM      5  C   UNL     1      32.633 -22.797 -14.292  0.00  0.00    +0.059 A 
ATOM      6  C   UNL     1      33.636 -22.921 -16.515  0.00  0.00    +0.083 A 
ATOM      7  C   UNL     1      32.449 -22.716 -15.668  0.00  0.00    +0.020 A 
ATOM      8  C   UNL     1      31.549 -22.613 -13.427  0.00  0.00    +0.005 C 
ATOM      9  C   UNL     1      31.180 -22.451 -16.190  0.00  0.00    +0.001 C 
ATOM     10  C   UNL     1      30.283 -22.348 -13.948  0.00  0.00    +0.000 C 
ATOM     11  C   UNL     1      30.100 -22.267 -15.327  0.00  0.00    +0.000 C 
ENDROOT
BRANCH   2  13
ATOM     12  N   UNL     1      39.079 -24.678 -13.799  0.00  0.00    +0.386 N 
ATOM     13  C   UNL     1      36.362 -23.533 -14.280  0.00  0.00    +0.106 C 
ATOM     14  C   UNL     1      36.604 -22.907 -12.903  0.00  0.00    +0.022 C 
ATOM     15  C   UNL     1      36.586 -25.047 -14.260  0.00  0.00    +0.002 C 
ATOM     16  C   UNL     1      38.054 -22.916 -12.425  0.00  0.00    -0.021 C 
ATOM     17  C   UNL     1      38.042 -25.484 -14.451  0.00  0.00    -0.075 C 
ATOM     18  C   UNL     1      38.755 -24.276 -12.430  0.00  0.00    -0.077 C 
ATOM     19  C   UNL     1      40.364 -25.377 -13.860  0.00  0.00    -0.101 C 
ATOM     20  H   UNL     1      39.138 -23.804 -14.322  0.00  0.00    -0.080 HD
ENDBRANCH   2  13
BRANCH   6  21
ATOM     21  C   UNL     1      33.493 -22.843 -18.017  0.00  0.00    +0.074 C 
BRANCH  21  23
ATOM     22 CL   UNL     1      36.632 -18.218 -20.201  0.00  0.00    -0.082 Cl
ATOM     23  C   UNL     1      34.275 -21.690 -18.560  0.00  0.00    -0.016 C 
ATOM     24  C   UNL     1      33.659 -20.774 -19.410  0.00  0.00    -0.003 C 
ATOM     25  C   UNL     1      35.616 -21.537 -18.215  0.00  0.00    -0.003 C 
ATOM     26  C   UNL     1      34.388 -19.699 -19.917  0.00  0.00    +0.011 C 
ATOM     27  C   UNL     1      36.345 -20.463 -18.723  0.00  0.00    +0.011 C 
ATOM     28  C   UNL     1      35.732 -19.543 -19.574  0.00  0.00    +0.058 C 
ENDBRANCH  21  23
ENDBRANCH   6  21
TORSDOF 3
ENDMDL
MODEL 3
REMARK VINA RESULT:     -11.0      1.500      5.556
REMARK  Name = 2267
REMARK  3 active torsions:
REMARK  status: ('A' for Active; 'I' for Inactive)
REMARK    1  A    between atoms: N_2  and  C_13
REMARK    2  A    between atoms: C_6  and  C_21
REMARK    3  A    between atoms: C_21  and  C_23
REMARK                            x       y       z     vdW  Elec       q    Type
REMARK                         _______ _______ _______ _____ _____    ______ ____
ROOT
ATOM      1  O   UNL     1      31.836 -22.128 -17.220  0.00  0.00    -0.266 OA
ATOM      2  N   UNL     1      33.798 -22.205 -15.982  0.00  0.00    -0.219 N 
ATOM      3  N   UNL     1      34.468 -22.606 -14.862  0.00  0.00    -0.171 NA
ATOM      4  C   UNL     1      32.452 -22.482 -16.217  0.00  0.00    +0.276 A 
ATOM      5  C   UNL     1      31.740 -23.250 -15.179  0.00  0.00    +0.059 A 
ATOM      6  C   UNL     1      33.847 -23.281 -13.947  0.00  0.00    +0.083 A 
ATOM      7  C   UNL     1      32.426 -23.654 -14.040  0.00  0.00    +0.020 A 
ATOM      8  C   UNL     1      30.386 -23.570 -15.335  0.00  0.00    +0.005 C 
ATOM      9  C   UNL     1      31.765 -24.382 -13.046  0.00  0.00    +0.001 C 
ATOM     10  C   UNL     1      29.727 -24.296 -14.343  0.00  0.00    +0.000 C 
ATOM     11  C   UNL     1      30.415 -24.700 -13.202  0.00  0.00    +0.000 C 
ENDROOT
BRANCH   2  13
ATOM     12  N   UNL     1      35.713 -20.011 -19.296  0.00  0.00    +0.386 N 
ATOM     13  C   UNL     1      34.596 -21.457 -16.931  0.00  0.00    +0.106 C 
ATOM     14  C   UNL     1      36.079 -21.723 -16.650  0.00  0.00    +0.022 C 
ATOM     15  C   UNL     1      34.210 -21.862 -18.357  0.00  0.00    +0.002 C 
ATOM     16  C   UNL     1      37.060 -20.836 -17.412  0.00  0.00    -0.021 C 
ATOM     17  C   UNL     1      34.480 -20.795 -19.424  0.00  0.00    -0.075 C 
ATOM     18  C   UNL     1      36.891 -20.799 -18.932  0.00  0.00    -0.077 C 
ATOM     19  C   UNL     1      35.942 -19.242 -20.521  0.00  0.00    -0.101 C 
ATOM     20  H   UNL     1      35.571 -19.374 -18.512  0.00  0.00    -0.080 HD
ENDBRANCH   2  13
BRANCH   6  21
ATOM     21  C   UNL     1      34.640 -23.695 -12.730  0.00  0.00    +0.074 C 
BRANCH  21  23
ATOM     22 CL   UNL     1      40.213 -25.290 -14.288  0.00  0.00    -0.082 Cl
ATOM     23  C   UNL     1      36.029 -24.092 -13.119  0.00  0.00    -0.016 C 
ATOM     24  C   UNL     1      36.225 -25.005 -14.152  0.00  0.00    -0.003 C 
ATOM     25  C   UNL     1      37.120 -23.548 -12.445  0.00  0.00    -0.003 C 
ATOM     26  C   UNL     1      37.520 -25.376 -14.515  0.00  0.00    +0.011 C 
ATOM     27  C   UNL     1      38.415 -23.919 -12.807  0.00  0.00    +0.011 C 
ATOM     28  C   UNL     1      38.615 -24.833 -13.842  0.00  0.00    +0.058 C 
ENDBRANCH  21  23
ENDBRANCH   6  21
TORSDOF 3
ENDMDL
MODEL 4
REMARK VINA RESULT:     -10.3      1.760      2.579
REMARK  Name = 2267
REMARK  3 active torsions:
REMARK  status: ('A' for Active; 'I' for Inactive)
REMARK    1  A    between atoms: N_2  and  C_13
REMARK    2  A    between atoms: C_6  and  C_21
REMARK    3  A    between atoms: C_21  and  C_23
REMARK                            x       y       z     vdW  Elec       q    Type
REMARK                         _______ _______ _______ _____ _____    ______ ____
ROOT
ATOM      1  O   UNL     1      33.233 -21.966 -17.675  0.00  0.00    -0.266 OA
ATOM      2  N   UNL     1      33.164 -22.920 -15.561  0.00  0.00    -0.219 N 
ATOM      3  N   UNL     1      33.795 -23.248 -14.395  0.00  0.00    -0.171 NA
ATOM      4  C   UNL     1      33.789 -22.267 -16.621  0.00  0.00    +0.276 A 
ATOM      5  C   UNL     1      35.213 -21.925 -16.445  0.00  0.00    +0.059 A 
ATOM      6  C   UNL     1      35.046 -22.949 -14.235  0.00  0.00    +0.083 A 
ATOM      7  C   UNL     1      35.852 -22.262 -15.258  0.00  0.00    +0.020 A 
ATOM      8  C   UNL     1      35.917 -21.270 -17.461  0.00  0.00    +0.005 C 
ATOM      9  C   UNL     1      37.202 -21.946 -15.075  0.00  0.00    +0.001 C 
ATOM     10  C   UNL     1      37.263 -20.955 -17.279  0.00  0.00    +0.000 C 
ATOM     11  C   UNL     1      37.903 -21.292 -16.089  0.00  0.00    +0.000 C 
ENDROOT
BRANCH   2  13
ATOM     12  N   UNL     1      28.812 -23.485 -16.017  0.00  0.00    +0.386 N 
ATOM     13  C   UNL     1      31.768 -23.305 -15.623  0.00  0.00    +0.106 C 
ATOM     14  C   UNL     1      31.468 -24.268 -14.469  0.00  0.00    +0.022 C 
ATOM     15  C   UNL     1      30.888 -22.054 -15.559  0.00  0.00    +0.002 C 
ATOM     16  C   UNL     1      30.102 -24.947 -14.520  0.00  0.00    -0.021 C 
ATOM     17  C   UNL     1      29.506 -22.207 -16.204  0.00  0.00    -0.075 C 
ATOM     18  C   UNL     1      28.894 -24.018 -14.657  0.00  0.00    -0.077 C 
ATOM     19  C   UNL     1      27.421 -23.365 -16.460  0.00  0.00    -0.101 C 
ATOM     20  H   UNL     1      29.299 -24.167 -16.597  0.00  0.00    -0.080 HD
ENDBRANCH   2  13
BRANCH   6  21
ATOM     21  C   UNL     1      35.691 -23.338 -12.926  0.00  0.00    +0.074 C 
BRANCH  21  23
ATOM     22 CL   UNL     1      40.938 -26.086 -13.894  0.00  0.00    -0.082 Cl
ATOM     23  C   UNL     1      36.999 -24.022 -13.168  0.00  0.00    -0.016 C 
ATOM     24  C   UNL     1      37.072 -25.075 -14.076  0.00  0.00    -0.003 C 
ATOM     25  C   UNL     1      38.137 -23.605 -12.482  0.00  0.00    -0.003 C 
ATOM     26  C   UNL     1      38.291 -25.714 -14.302  0.00  0.00    +0.011 C 
ATOM     27  C   UNL     1      39.356 -24.244 -12.707  0.00  0.00    +0.011 C 
ATOM     28  C   UNL     1      39.434 -25.298 -13.617  0.00  0.00    +0.058 C 
ENDBRANCH  21  23
ENDBRANCH   6  21
TORSDOF 3
ENDMDL
MODEL 5
REMARK VINA RESULT:     -10.2     10.428     14.126
REMARK  Name = 2267
REMARK  3 active torsions:
REMARK  status: ('A' for Active; 'I' for Inactive)
REMARK    1  A    between atoms: N_2  and  C_13
REMARK    2  A    between atoms: C_6  and  C_21
REMARK    3  A    between atoms: C_21  and  C_23
REMARK                            x       y       z     vdW  Elec       q    Type
REMARK                         _______ _______ _______ _____ _____    ______ ____
ROOT
ATOM      1  O   UNL     1      32.393 -13.751 -19.738  0.00  0.00    -0.266 OA
ATOM      2  N   UNL     1      33.132 -12.676 -21.657  0.00  0.00    -0.219 N 
ATOM      3  N   UNL     1      33.325 -11.521 -22.360  0.00  0.00    -0.171 NA
ATOM      4  C   UNL     1      32.573 -12.719 -20.381  0.00  0.00    +0.276 A 
ATOM      5  C   UNL     1      32.176 -11.431 -19.785  0.00  0.00    +0.059 A 
ATOM      6  C   UNL     1      32.979 -10.386 -21.840  0.00  0.00    +0.083 A 
ATOM      7  C   UNL     1      32.374 -10.258 -20.504  0.00  0.00    +0.020 A 
ATOM      8  C   UNL     1      31.606 -11.384 -18.508  0.00  0.00    +0.005 C 
ATOM      9  C   UNL     1      32.002  -9.027 -19.954  0.00  0.00    +0.001 C 
ATOM     10  C   UNL     1      31.236 -10.157 -17.958  0.00  0.00    +0.000 C 
ATOM     11  C   UNL     1      31.433  -8.982 -18.680  0.00  0.00    +0.000 C 
ENDROOT
BRANCH   2  13
ATOM     12  N   UNL     1      34.816 -16.449 -23.205  0.00  0.00    +0.386 N 
ATOM     13  C   UNL     1      33.556 -13.880 -22.342  0.00  0.00    +0.106 C 
ATOM     14  C   UNL     1      33.493 -13.640 -23.853  0.00  0.00    +0.022 C 
ATOM     15  C   UNL     1      34.970 -14.256 -21.889  0.00  0.00    +0.002 C 
ATOM     16  C   UNL     1      33.689 -14.878 -24.724  0.00  0.00    -0.021 C 
ATOM     17  C   UNL     1      35.313 -15.743 -22.019  0.00  0.00    -0.075 C 
ATOM     18  C   UNL     1      34.953 -15.696 -24.452  0.00  0.00    -0.077 C 
ATOM     19  C   UNL     1      35.450 -17.765 -23.303  0.00  0.00    -0.101 C 
ATOM     20  H   UNL     1      33.811 -16.561 -23.075  0.00  0.00    -0.080 HD
ENDBRANCH   2  13
BRANCH   6  21
ATOM     21  C   UNL     1      33.216  -9.143 -22.666  0.00  0.00    +0.074 C 
BRANCH  21  23
ATOM     22 CL   UNL     1      36.289 -10.470 -27.647  0.00  0.00    -0.082 Cl
ATOM     23  C   UNL     1      33.982  -9.475 -23.906  0.00  0.00    -0.016 C 
ATOM     24  C   UNL     1      35.244  -8.922 -24.110  0.00  0.00    -0.003 C 
ATOM     25  C   UNL     1      33.429 -10.333 -24.854  0.00  0.00    -0.003 C 
ATOM     26  C   UNL     1      35.959  -9.231 -25.267  0.00  0.00    +0.011 C 
ATOM     27  C   UNL     1      34.144 -10.641 -26.012  0.00  0.00    +0.011 C 
ATOM     28  C   UNL     1      35.409 -10.090 -26.219  0.00  0.00    +0.058 C 
ENDBRANCH  21  23
ENDBRANCH   6  21
TORSDOF 3
ENDMDL
MODEL 6
REMARK VINA RESULT:     -10.1      2.893      5.558
REMARK  Name = 2267
REMARK  3 active torsions:
REMARK  status: ('A' for Active; 'I' for Inactive)
REMARK    1  A    between atoms: N_2  and  C_13
REMARK    2  A    between atoms: C_6  and  C_21
REMARK    3  A    between atoms: C_21  and  C_23
REMARK                            x       y       z     vdW  Elec       q    Type
REMARK                         _______ _______ _______ _____ _____    ______ ____
ROOT
ATOM      1  O   UNL     1      33.035 -23.905 -12.137  0.00  0.00    -0.266 OA
ATOM      2  N   UNL     1      33.472 -23.286 -14.331  0.00  0.00    -0.219 N 
ATOM      3  N   UNL     1      34.358 -22.867 -15.282  0.00  0.00    -0.171 NA
ATOM      4  C   UNL     1      33.822 -23.528 -13.003  0.00  0.00    +0.276 A 
ATOM      5  C   UNL     1      35.233 -23.311 -12.636  0.00  0.00    +0.059 A 
ATOM      6  C   UNL     1      35.600 -22.676 -14.965  0.00  0.00    +0.083 A 
ATOM      7  C   UNL     1      36.131 -22.884 -13.608  0.00  0.00    +0.020 A 
ATOM      8  C   UNL     1      35.668 -23.530 -11.324  0.00  0.00    +0.005 C 
ATOM      9  C   UNL     1      37.473 -22.673 -13.276  0.00  0.00    +0.001 C 
ATOM     10  C   UNL     1      37.007 -23.319 -10.994  0.00  0.00    +0.000 C 
ATOM     11  C   UNL     1      37.906 -22.891 -11.968  0.00  0.00    +0.000 C 
ENDROOT
BRANCH   2  13
ATOM     12  N   UNL     1      29.368 -23.180 -15.945  0.00  0.00    +0.386 N 
ATOM     13  C   UNL     1      32.115 -23.464 -14.803  0.00  0.00    +0.106 C 
ATOM     14  C   UNL     1      31.426 -24.528 -13.943  0.00  0.00    +0.022 C 
ATOM     15  C   UNL     1      31.373 -22.126 -14.747  0.00  0.00    +0.002 C 
ATOM     16  C   UNL     1      30.065 -25.001 -14.447  0.00  0.00    -0.021 C 
ATOM     17  C   UNL     1      30.206 -21.995 -15.732  0.00  0.00    -0.075 C 
ATOM     18  C   UNL     1      29.032 -23.905 -14.719  0.00  0.00    -0.077 C 
ATOM     19  C   UNL     1      28.164 -22.810 -16.692  0.00  0.00    -0.101 C 
ATOM     20  H   UNL     1      29.925 -23.834 -16.493  0.00  0.00    -0.080 HD
ENDBRANCH   2  13
BRANCH   6  21
ATOM     21  C   UNL     1      36.533 -22.212 -16.059  0.00  0.00    +0.074 C 
BRANCH  21  23
ATOM     22 CL   UNL     1      33.429 -19.765 -20.576  0.00  0.00    -0.082 Cl
ATOM     23  C   UNL     1      35.759 -21.604 -17.185  0.00  0.00    -0.016 C 
ATOM     24  C   UNL     1      36.409 -20.796 -18.116  0.00  0.00    -0.003 C 
ATOM     25  C   UNL     1      34.392 -21.844 -17.298  0.00  0.00    -0.003 C 
ATOM     26  C   UNL     1      35.688 -20.227 -19.165  0.00  0.00    +0.011 C 
ATOM     27  C   UNL     1      33.671 -21.275 -18.347  0.00  0.00    +0.011 C 
ATOM     28  C   UNL     1      34.319 -20.467 -19.281  0.00  0.00    +0.058 C 
ENDBRANCH  21  23
ENDBRANCH   6  21
TORSDOF 3
ENDMDL
MODEL 7
REMARK VINA RESULT:      -9.9      6.454      9.604
REMARK  Name = 2267
REMARK  3 active torsions:
REMARK  status: ('A' for Active; 'I' for Inactive)
REMARK    1  A    between atoms: N_2  and  C_13
REMARK    2  A    between atoms: C_6  and  C_21
REMARK    3  A    between atoms: C_21  and  C_23
REMARK                            x       y       z     vdW  Elec       q    Type
REMARK                         _______ _______ _______ _____ _____    ______ ____
ROOT
ATOM      1  O   UNL     1      34.469 -18.996 -23.505  0.00  0.00    -0.266 OA
ATOM      2  N   UNL     1      34.985 -17.962 -21.492  0.00  0.00    -0.219 N 
ATOM      3  N   UNL     1      35.203 -16.819 -20.777  0.00  0.00    -0.171 NA
ATOM      4  C   UNL     1      34.668 -17.975 -22.849  0.00  0.00    +0.276 A 
ATOM      5  C   UNL     1      34.571 -16.667 -23.523  0.00  0.00    +0.059 A 
ATOM      6  C   UNL     1      35.119 -15.667 -21.364  0.00  0.00    +0.083 A 
ATOM      7  C   UNL     1      34.795 -15.507 -22.792  0.00  0.00    +0.020 A 
ATOM      8  C   UNL     1      34.259 -16.590 -24.885  0.00  0.00    +0.005 C 
ATOM      9  C   UNL     1      34.709 -14.258 -23.415  0.00  0.00    +0.001 C 
ATOM     10  C   UNL     1      34.172 -15.345 -25.507  0.00  0.00    +0.000 C 
ATOM     11  C   UNL     1      34.397 -14.182 -24.773  0.00  0.00    +0.000 C 
ENDROOT
BRANCH   2  13
ATOM     12  N   UNL     1      34.688 -21.674 -19.126  0.00  0.00    +0.386 N 
ATOM     13  C   UNL     1      35.108 -19.187 -20.729  0.00  0.00    +0.106 C 
ATOM     14  C   UNL     1      36.440 -19.168 -19.973  0.00  0.00    +0.022 C 
ATOM     15  C   UNL     1      33.918 -19.317 -19.774  0.00  0.00    +0.002 C 
ATOM     16  C   UNL     1      36.831 -20.481 -19.299  0.00  0.00    -0.021 C 
ATOM     17  C   UNL     1      33.572 -20.754 -19.370  0.00  0.00    -0.075 C 
ATOM     18  C   UNL     1      35.789 -21.090 -18.359  0.00  0.00    -0.077 C 
ATOM     19  C   UNL     1      34.194 -22.901 -18.499  0.00  0.00    -0.101 C 
ATOM     20  H   UNL     1      35.090 -21.890 -20.037  0.00  0.00    -0.080 HD
ENDBRANCH   2  13
BRANCH   6  21
ATOM     21  C   UNL     1      35.372 -14.438 -20.523  0.00  0.00    +0.074 C 
BRANCH  21  23
ATOM     22 CL   UNL     1      30.439 -11.032 -20.226  0.00  0.00    -0.082 Cl
ATOM     23  C   UNL     1      34.142 -13.590 -20.449  0.00  0.00    -0.016 C 
ATOM     24  C   UNL     1      34.060 -12.421 -21.203  0.00  0.00    -0.003 C 
ATOM     25  C   UNL     1      33.084 -13.971 -19.627  0.00  0.00    -0.003 C 
ATOM     26  C   UNL     1      32.914 -11.630 -21.134  0.00  0.00    +0.011 C 
ATOM     27  C   UNL     1      31.938 -13.180 -19.558  0.00  0.00    +0.011 C 
ATOM     28  C   UNL     1      31.853 -12.009 -20.312  0.00  0.00    +0.058 C 
ENDBRANCH  21  23
ENDBRANCH   6  21
TORSDOF 3
ENDMDL
MODEL 8
REMARK VINA RESULT:      -9.7      6.617      9.963
REMARK  Name = 2267
REMARK  3 active torsions:
REMARK  status: ('A' for Active; 'I' for Inactive)
REMARK    1  A    between atoms: N_2  and  C_13
REMARK    2  A    between atoms: C_6  and  C_21
REMARK    3  A    between atoms: C_21  and  C_23
REMARK                            x       y       z     vdW  Elec       q    Type
REMARK                         _______ _______ _______ _____ _____    ______ ____
ROOT
ATOM      1  O   UNL     1      34.496 -18.909 -22.895  0.00  0.00    -0.266 OA
ATOM      2  N   UNL     1      35.038 -17.473 -21.154  0.00  0.00    -0.219 N 
ATOM      3  N   UNL     1      35.241 -16.203 -20.695  0.00  0.00    -0.171 NA
ATOM      4  C   UNL     1      34.682 -17.771 -22.468  0.00  0.00    +0.276 A 
ATOM      5  C   UNL     1      34.524 -16.631 -23.390  0.00  0.00    +0.059 A 
ATOM      6  C   UNL     1      35.104 -15.198 -21.500  0.00  0.00    +0.083 A 
ATOM      7  C   UNL     1      34.733 -15.340 -22.918  0.00  0.00    +0.020 A 
ATOM      8  C   UNL     1      34.170 -16.841 -24.727  0.00  0.00    +0.005 C 
ATOM      9  C   UNL     1      34.589 -14.248 -23.778  0.00  0.00    +0.001 C 
ATOM     10  C   UNL     1      34.026 -15.751 -25.585  0.00  0.00    +0.000 C 
ATOM     11  C   UNL     1      34.236 -14.458 -25.111  0.00  0.00    +0.000 C 
ENDROOT
BRANCH   2  13
ATOM     12  N   UNL     1      36.257 -20.531 -18.216  0.00  0.00    +0.386 N 
ATOM     13  C   UNL     1      35.222 -18.514 -20.163  0.00  0.00    +0.106 C 
ATOM     14  C   UNL     1      34.068 -19.515 -20.275  0.00  0.00    +0.022 C 
ATOM     15  C   UNL     1      36.579 -19.190 -20.376  0.00  0.00    +0.002 C 
ATOM     16  C   UNL     1      33.985 -20.549 -19.155  0.00  0.00    -0.021 C 
ATOM     17  C   UNL     1      37.178 -19.839 -19.124  0.00  0.00    -0.075 C 
ATOM     18  C   UNL     1      35.257 -21.358 -18.893  0.00  0.00    -0.077 C 
ATOM     19  C   UNL     1      37.017 -21.308 -17.235  0.00  0.00    -0.101 C 
ATOM     20  H   UNL     1      35.720 -19.806 -17.741  0.00  0.00    -0.080 HD
ENDBRANCH   2  13
BRANCH   6  21
ATOM     21  C   UNL     1      35.342 -13.817 -20.934  0.00  0.00    +0.074 C 
BRANCH  21  23
ATOM     22 CL   UNL     1      30.137 -10.939 -20.129  0.00  0.00    -0.082 Cl
ATOM     23  C   UNL     1      34.044 -13.101 -20.734  0.00  0.00    -0.016 C 
ATOM     24  C   UNL     1      33.719 -12.017 -21.546  0.00  0.00    -0.003 C 
ATOM     25  C   UNL     1      33.167 -13.520 -19.736  0.00  0.00    -0.003 C 
ATOM     26  C   UNL     1      32.510 -11.348 -21.359  0.00  0.00    +0.011 C 
ATOM     27  C   UNL     1      31.958 -12.851 -19.549  0.00  0.00    +0.011 C 
ATOM     28  C   UNL     1      31.629 -11.765 -20.361  0.00  0.00    +0.058 C 
ENDBRANCH  21  23
ENDBRANCH   6  21
TORSDOF 3
ENDMDL
MODEL 9
REMARK VINA RESULT:      -9.5      1.600      5.599
REMARK  Name = 2267
REMARK  3 active torsions:
REMARK  status: ('A' for Active; 'I' for Inactive)
REMARK    1  A    between atoms: N_2  and  C_13
REMARK    2  A    between atoms: C_6  and  C_21
REMARK    3  A    between atoms: C_21  and  C_23
REMARK                            x       y       z     vdW  Elec       q    Type
REMARK                         _______ _______ _______ _____ _____    ______ ____
ROOT
ATOM      1  O   UNL     1      31.438 -21.212 -17.246  0.00  0.00    -0.266 OA
ATOM      2  N   UNL     1      33.478 -22.140 -16.642  0.00  0.00    -0.219 N 
ATOM      3  N   UNL     1      34.190 -23.032 -15.893  0.00  0.00    -0.171 NA
ATOM      4  C   UNL     1      32.092 -22.010 -16.578  0.00  0.00    +0.276 A 
ATOM      5  C   UNL     1      31.383 -22.899 -15.638  0.00  0.00    +0.059 A 
ATOM      6  C   UNL     1      33.573 -23.815 -15.066  0.00  0.00    +0.083 A 
ATOM      7  C   UNL     1      32.113 -23.804 -14.876  0.00  0.00    +0.020 A 
ATOM      8  C   UNL     1      29.991 -22.833 -15.510  0.00  0.00    +0.005 C 
ATOM      9  C   UNL     1      31.457 -24.653 -13.979  0.00  0.00    +0.001 C 
ATOM     10  C   UNL     1      29.337 -23.680 -14.615  0.00  0.00    +0.000 C 
ATOM     11  C   UNL     1      30.069 -24.587 -13.852  0.00  0.00    +0.000 C 
ENDROOT
BRANCH   2  13
ATOM     12  N   UNL     1      35.370 -19.631 -19.740  0.00  0.00    +0.386 N 
ATOM     13  C   UNL     1      34.277 -21.319 -17.529  0.00  0.00    +0.106 C 
ATOM     14  C   UNL     1      35.750 -21.712 -17.376  0.00  0.00    +0.022 C 
ATOM     15  C   UNL     1      33.791 -21.497 -18.970  0.00  0.00    +0.002 C 
ATOM     16  C   UNL     1      36.751 -20.792 -18.069  0.00  0.00    -0.021 C 
ATOM     17  C   UNL     1      34.080 -20.313 -19.898  0.00  0.00    -0.075 C 
ATOM     18  C   UNL     1      36.506 -20.534 -19.558  0.00  0.00    -0.077 C 
ATOM     19  C   UNL     1      35.589 -18.716 -20.862  0.00  0.00    -0.101 C 
ATOM     20  H   UNL     1      35.313 -19.102 -18.870  0.00  0.00    -0.080 HD
ENDBRANCH   2  13
BRANCH   6  21
ATOM     21  C   UNL     1      34.414 -24.780 -14.263  0.00  0.00    +0.074 C 
BRANCH  21  23
ATOM     22 CL   UNL     1      38.654 -21.839 -11.199  0.00  0.00    -0.082 Cl
ATOM     23  C   UNL     1      35.470 -24.046 -13.500  0.00  0.00    -0.016 C 
ATOM     24  C   UNL     1      36.723 -23.841 -14.073  0.00  0.00    -0.003 C 
ATOM     25  C   UNL     1      35.197 -23.572 -12.218  0.00  0.00    -0.003 C 
ATOM     26  C   UNL     1      37.708 -23.158 -13.361  0.00  0.00    +0.011 C 
ATOM     27  C   UNL     1      36.183 -22.889 -11.506  0.00  0.00    +0.011 C 
ATOM     28  C   UNL     1      37.439 -22.682 -12.078  0.00  0.00    +0.058 C 
ENDBRANCH  21  23
ENDBRANCH   6  21
TORSDOF 3
ENDMDL
