MODEL 1
REMARK VINA RESULT:     -12.5      0.000      0.000
REMARK  Name = 448942
REMARK  8 active torsions:
REMARK  status: ('A' for Active; 'I' for Inactive)
REMARK    1  A    between atoms: C_2  and  C_20
REMARK    2  A    between atoms: C_3  and  C_6
REMARK    3  A    between atoms: C_7  and  C_13
REMARK    4  A    between atoms: N_19  and  C_22
REMARK    5  A    between atoms: C_22  and  C_23
REMARK    6  A    between atoms: C_22  and  C_29
REMARK    7  A    between atoms: C_29  and  C_31
REMARK    8  A    between atoms: C_31  and  O_32
REMARK                            x       y       z     vdW  Elec       q    Type
REMARK                         _______ _______ _______ _____ _____    ______ ____
ROOT
ATOM      1  S   UNL     1      32.918 -23.089 -15.843  0.00  0.00    -0.082 S 
ATOM      2  C   UNL     1      34.609 -23.095 -15.920  0.00  0.00    +0.083 C 
ATOM      3  C   UNL     1      34.100 -21.678 -17.637  0.00  0.00    +0.007 C 
ATOM      4  C   UNL     1      35.133 -22.322 -16.897  0.00  0.00    +0.012 C 
ATOM      5  C   UNL     1      32.847 -22.007 -17.170  0.00  0.00    +0.036 C 
ENDROOT
BRANCH   3   6
ATOM      6  C   UNL     1      34.260 -20.780 -18.749  0.00  0.00    +0.001 C 
ATOM      7  C   UNL     1      34.569 -19.039 -20.904  0.00  0.00    +0.000 C 
ATOM      8  C   UNL     1      35.537 -20.446 -19.195  0.00  0.00    +0.000 C 
ATOM      9  C   UNL     1      33.136 -20.245 -19.377  0.00  0.00    +0.000 C 
ATOM     10  C   UNL     1      35.693 -19.575 -20.273  0.00  0.00    +0.000 C 
ATOM     11  C   UNL     1      33.292 -19.373 -20.455  0.00  0.00    +0.000 C 
BRANCH   7  13
ATOM     12  N   UNL     1      35.039 -16.384 -24.178  0.00  0.00    -0.242 NA
ATOM     13  C   UNL     1      34.730 -18.134 -22.020  0.00  0.00    +0.003 C 
ATOM     14  C   UNL     1      35.356 -16.906 -21.839  0.00  0.00    +0.021 C 
ATOM     15  C   UNL     1      34.259 -18.488 -23.280  0.00  0.00    +0.021 C 
ATOM     16  C   UNL     1      35.485 -16.074 -22.939  0.00  0.00    +0.099 C 
ATOM     17  C   UNL     1      34.436 -17.586 -24.316  0.00  0.00    +0.099 C 
ENDBRANCH   7  13
ENDBRANCH   3   6
BRANCH   2  20
ATOM     18  O   UNL     1      35.283 -25.149 -14.951  0.00  0.00    -0.270 OA
ATOM     19  N   UNL     1      36.069 -23.216 -13.991  0.00  0.00    -0.298 N 
ATOM     20  C   UNL     1      35.337 -23.918 -14.945  0.00  0.00    +0.252 C 
ATOM     21  H   UNL     1      36.080 -22.232 -14.028  0.00  0.00    +0.150 HD
BRANCH  19  22
ATOM     22  C   UNL     1      36.813 -23.886 -12.947  0.00  0.00    +0.105 C 
BRANCH  22  23
ATOM     23  C   UNL     1      38.187 -24.277 -13.454  0.00  0.00    -0.004 C 
ATOM     24  C   UNL     1      38.816 -25.379 -12.906  0.00  0.00    -0.003 C 
ATOM     25  C   UNL     1      38.777 -23.522 -14.449  0.00  0.00    -0.003 C 
ATOM     26  C   UNL     1      40.081 -25.739 -13.372  0.00  0.00    -0.000 C 
ATOM     27  C   UNL     1      40.041 -23.881 -14.915  0.00  0.00    -0.000 C 
ATOM     28  C   UNL     1      40.694 -24.990 -14.375  0.00  0.00    -0.000 C 
ENDBRANCH  22  23
BRANCH  22  29
ATOM     29  C   UNL     1      36.848 -23.016 -11.678  0.00  0.00    +0.133 C 
BRANCH  29  31
ATOM     30  O   UNL     1      36.440 -23.529  -9.329  0.00  0.00    -0.250 OA
ATOM     31  C   UNL     1      36.119 -23.637 -10.504  0.00  0.00    +0.316 C 
BRANCH  31  32
ATOM     32  O   UNL     1      35.051 -24.371 -10.915  0.00  0.00    -0.480 OA
ATOM     33  H   UNL     1      34.219 -23.958 -11.036  0.00  0.00    +0.295 HD
ENDBRANCH  31  32
ENDBRANCH  29  31
ENDBRANCH  22  29
ENDBRANCH  19  22
ENDBRANCH   2  20
TORSDOF 8
ENDMDL
MODEL 2
REMARK VINA RESULT:     -12.0      1.865      3.212
REMARK  Name = 448942
REMARK  8 active torsions:
REMARK  status: ('A' for Active; 'I' for Inactive)
REMARK    1  A    between atoms: C_2  and  C_20
REMARK    2  A    between atoms: C_3  and  C_6
REMARK    3  A    between atoms: C_7  and  C_13
REMARK    4  A    between atoms: N_19  and  C_22
REMARK    5  A    between atoms: C_22  and  C_23
REMARK    6  A    between atoms: C_22  and  C_29
REMARK    7  A    between atoms: C_29  and  C_31
REMARK    8  A    between atoms: C_31  and  O_32
REMARK                            x       y       z     vdW  Elec       q    Type
REMARK                         _______ _______ _______ _____ _____    ______ ____
ROOT
ATOM      1  S   UNL     1      34.655 -22.594 -16.462  0.00  0.00    -0.082 S 
ATOM      2  C   UNL     1      36.216 -21.937 -16.458  0.00  0.00    +0.083 C 
ATOM      3  C   UNL     1      35.317 -20.914 -18.291  0.00  0.00    +0.007 C 
ATOM      4  C   UNL     1      36.465 -21.066 -17.460  0.00  0.00    +0.012 C 
ATOM      5  C   UNL     1      34.262 -21.689 -17.862  0.00  0.00    +0.036 C 
ENDROOT
BRANCH   3   6
ATOM      6  C   UNL     1      35.192 -20.077 -19.454  0.00  0.00    +0.001 C 
ATOM      7  C   UNL     1      34.948 -18.454 -21.707  0.00  0.00    +0.000 C 
ATOM      8  C   UNL     1      36.318 -19.453 -19.985  0.00  0.00    +0.000 C 
ATOM      9  C   UNL     1      33.943 -19.892 -20.046  0.00  0.00    +0.000 C 
ATOM     10  C   UNL     1      36.197 -18.640 -21.113  0.00  0.00    +0.000 C 
ATOM     11  C   UNL     1      33.822 -19.079 -21.173  0.00  0.00    +0.000 C 
BRANCH   7  13
ATOM     12  N   UNL     1      34.581 -15.982 -25.134  0.00  0.00    -0.242 NA
ATOM     13  C   UNL     1      34.823 -17.611 -22.875  0.00  0.00    +0.003 C 
ATOM     14  C   UNL     1      34.181 -18.087 -24.013  0.00  0.00    +0.021 C 
ATOM     15  C   UNL     1      35.344 -16.322 -22.866  0.00  0.00    +0.021 C 
ATOM     16  C   UNL     1      34.087 -17.241 -25.106  0.00  0.00    +0.099 C 
ATOM     17  C   UNL     1      35.198 -15.555 -24.010  0.00  0.00    +0.099 C 
ENDBRANCH   7  13
ENDBRANCH   3   6
BRANCH   2  20
ATOM     18  O   UNL     1      37.971 -21.600 -14.903  0.00  0.00    -0.270 OA
ATOM     19  N   UNL     1      37.027 -23.691 -14.998  0.00  0.00    -0.298 N 
ATOM     20  C   UNL     1      37.136 -22.362 -15.395  0.00  0.00    +0.252 C 
ATOM     21  H   UNL     1      36.344 -24.260 -15.421  0.00  0.00    +0.150 HD
BRANCH  19  22
ATOM     22  C   UNL     1      37.885 -24.264 -13.983  0.00  0.00    +0.105 C 
BRANCH  22  23
ATOM     23  C   UNL     1      37.371 -23.905 -12.602  0.00  0.00    -0.004 C 
ATOM     24  C   UNL     1      38.271 -23.486 -11.639  0.00  0.00    -0.003 C 
ATOM     25  C   UNL     1      36.018 -24.006 -12.340  0.00  0.00    -0.003 C 
ATOM     26  C   UNL     1      37.799 -23.156 -10.368  0.00  0.00    -0.000 C 
ATOM     27  C   UNL     1      35.546 -23.677 -11.070  0.00  0.00    -0.000 C 
ATOM     28  C   UNL     1      36.437 -23.253 -10.083  0.00  0.00    -0.000 C 
ENDBRANCH  22  23
BRANCH  22  29
ATOM     29  C   UNL     1      38.039 -25.778 -14.209  0.00  0.00    +0.133 C 
BRANCH  29  31
ATOM     30  O   UNL     1      37.137 -26.901 -16.177  0.00  0.00    -0.250 OA
ATOM     31  C   UNL     1      36.958 -26.366 -15.092  0.00  0.00    +0.316 C 
BRANCH  31  32
ATOM     32  O   UNL     1      35.725 -26.206 -14.542  0.00  0.00    -0.480 OA
ATOM     33  H   UNL     1      34.963 -26.241 -15.084  0.00  0.00    +0.295 HD
ENDBRANCH  31  32
ENDBRANCH  29  31
ENDBRANCH  22  29
ENDBRANCH  19  22
ENDBRANCH   2  20
TORSDOF 8
ENDMDL
MODEL 3
REMARK VINA RESULT:     -11.6      2.233      3.483
REMARK  Name = 448942
REMARK  8 active torsions:
REMARK  status: ('A' for Active; 'I' for Inactive)
REMARK    1  A    between atoms: C_2  and  C_20
REMARK    2  A    between atoms: C_3  and  C_6
REMARK    3  A    between atoms: C_7  and  C_13
REMARK    4  A    between atoms: N_19  and  C_22
REMARK    5  A    between atoms: C_22  and  C_23
REMARK    6  A    between atoms: C_22  and  C_29
REMARK    7  A    between atoms: C_29  and  C_31
REMARK    8  A    between atoms: C_31  and  O_32
REMARK                            x       y       z     vdW  Elec       q    Type
REMARK                         _______ _______ _______ _____ _____    ______ ____
ROOT
ATOM      1  S   UNL     1      35.021 -22.469 -16.587  0.00  0.00    -0.082 S 
ATOM      2  C   UNL     1      36.524 -21.690 -16.584  0.00  0.00    +0.083 C 
ATOM      3  C   UNL     1      35.550 -20.750 -18.423  0.00  0.00    +0.007 C 
ATOM      4  C   UNL     1      36.705 -20.806 -17.589  0.00  0.00    +0.012 C 
ATOM      5  C   UNL     1      34.560 -21.604 -17.992  0.00  0.00    +0.036 C 
ENDROOT
BRANCH   3   6
ATOM      6  C   UNL     1      35.361 -19.931 -19.590  0.00  0.00    +0.001 C 
ATOM      7  C   UNL     1      34.998 -18.343 -21.852  0.00  0.00    +0.000 C 
ATOM      8  C   UNL     1      34.095 -19.811 -20.158  0.00  0.00    +0.000 C 
ATOM      9  C   UNL     1      36.447 -19.259 -20.150  0.00  0.00    +0.000 C 
ATOM     10  C   UNL     1      33.912 -19.017 -21.291  0.00  0.00    +0.000 C 
ATOM     11  C   UNL     1      36.265 -18.465 -21.282  0.00  0.00    +0.000 C 
BRANCH   7  13
ATOM     12  N   UNL     1      34.442 -15.931 -25.296  0.00  0.00    -0.242 NA
ATOM     13  C   UNL     1      34.809 -17.521 -23.027  0.00  0.00    +0.003 C 
ATOM     14  C   UNL     1      35.324 -16.230 -23.065  0.00  0.00    +0.021 C 
ATOM     15  C   UNL     1      34.111 -18.018 -24.123  0.00  0.00    +0.021 C 
ATOM     16  C   UNL     1      35.115 -15.482 -24.212  0.00  0.00    +0.099 C 
ATOM     17  C   UNL     1      33.956 -17.190 -25.222  0.00  0.00    +0.099 C 
ENDBRANCH   7  13
ENDBRANCH   3   6
BRANCH   2  20
ATOM     18  O   UNL     1      38.441 -21.324 -15.241  0.00  0.00    -0.270 OA
ATOM     19  N   UNL     1      37.227 -23.236 -14.857  0.00  0.00    -0.298 N 
ATOM     20  C   UNL     1      37.473 -22.035 -15.517  0.00  0.00    +0.252 C 
ATOM     21  H   UNL     1      36.441 -23.769 -15.114  0.00  0.00    +0.150 HD
BRANCH  19  22
ATOM     22  C   UNL     1      38.092 -23.725 -13.804  0.00  0.00    +0.105 C 
BRANCH  22  23
ATOM     23  C   UNL     1      37.371 -23.673 -12.471  0.00  0.00    -0.004 C 
ATOM     24  C   UNL     1      36.043 -24.053 -12.410  0.00  0.00    -0.003 C 
ATOM     25  C   UNL     1      38.058 -23.246 -11.350  0.00  0.00    -0.003 C 
ATOM     26  C   UNL     1      35.379 -24.005 -11.184  0.00  0.00    -0.000 C 
ATOM     27  C   UNL     1      37.396 -23.197 -10.125  0.00  0.00    -0.000 C 
ATOM     28  C   UNL     1      36.055 -23.576 -10.041  0.00  0.00    -0.000 C 
ENDBRANCH  22  23
BRANCH  22  29
ATOM     29  C   UNL     1      38.626 -25.123 -14.161  0.00  0.00    +0.133 C 
BRANCH  29  31
ATOM     30  O   UNL     1      40.878 -26.049 -14.281  0.00  0.00    -0.250 OA
ATOM     31  C   UNL     1      40.100 -25.132 -14.504  0.00  0.00    +0.316 C 
BRANCH  31  32
ATOM     32  O   UNL     1      40.483 -23.963 -15.083  0.00  0.00    -0.480 OA
ATOM     33  H   UNL     1      40.577 -23.910 -16.013  0.00  0.00    +0.295 HD
ENDBRANCH  31  32
ENDBRANCH  29  31
ENDBRANCH  22  29
ENDBRANCH  19  22
ENDBRANCH   2  20
TORSDOF 8
ENDMDL
MODEL 4
REMARK VINA RESULT:     -11.4      2.494      4.377
REMARK  Name = 448942
REMARK  8 active torsions:
REMARK  status: ('A' for Active; 'I' for Inactive)
REMARK    1  A    between atoms: C_2  and  C_20
REMARK    2  A    between atoms: C_3  and  C_6
REMARK    3  A    between atoms: C_7  and  C_13
REMARK    4  A    between atoms: N_19  and  C_22
REMARK    5  A    between atoms: C_22  and  C_23
REMARK    6  A    between atoms: C_22  and  C_29
REMARK    7  A    between atoms: C_29  and  C_31
REMARK    8  A    between atoms: C_31  and  O_32
REMARK                            x       y       z     vdW  Elec       q    Type
REMARK                         _______ _______ _______ _____ _____    ______ ____
ROOT
ATOM      1  S   UNL     1      37.216 -21.723 -16.149  0.00  0.00    -0.082 S 
ATOM      2  C   UNL     1      35.557 -22.030 -16.294  0.00  0.00    +0.083 C 
ATOM      3  C   UNL     1      35.915 -20.703 -18.117  0.00  0.00    +0.007 C 
ATOM      4  C   UNL     1      34.966 -21.449 -17.360  0.00  0.00    +0.012 C 
ATOM      5  C   UNL     1      37.177 -20.766 -17.570  0.00  0.00    +0.036 C 
ENDROOT
BRANCH   3   6
ATOM      6  C   UNL     1      35.668 -19.949 -19.316  0.00  0.00    +0.001 C 
ATOM      7  C   UNL     1      35.187 -18.485 -21.640  0.00  0.00    +0.000 C 
ATOM      8  C   UNL     1      36.704 -19.236 -19.916  0.00  0.00    +0.000 C 
ATOM      9  C   UNL     1      34.391 -19.931 -19.875  0.00  0.00    +0.000 C 
ATOM     10  C   UNL     1      36.465 -18.504 -21.079  0.00  0.00    +0.000 C 
ATOM     11  C   UNL     1      34.151 -19.198 -21.038  0.00  0.00    +0.000 C 
BRANCH   7  13
ATOM     12  N   UNL     1      34.454 -16.252 -25.170  0.00  0.00    -0.242 NA
ATOM     13  C   UNL     1      34.938 -17.724 -22.844  0.00  0.00    +0.003 C 
ATOM     14  C   UNL     1      35.372 -16.407 -22.939  0.00  0.00    +0.021 C 
ATOM     15  C   UNL     1      34.261 -18.306 -23.911  0.00  0.00    +0.021 C 
ATOM     16  C   UNL     1      35.108 -15.720 -24.113  0.00  0.00    +0.099 C 
ATOM     17  C   UNL     1      34.047 -17.535 -25.041  0.00  0.00    +0.099 C 
ENDBRANCH   7  13
ENDBRANCH   3   6
BRANCH   2  20
ATOM     18  O   UNL     1      34.967 -24.109 -15.324  0.00  0.00    -0.270 OA
ATOM     19  N   UNL     1      34.250 -22.202 -14.262  0.00  0.00    -0.298 N 
ATOM     20  C   UNL     1      34.926 -22.878 -15.274  0.00  0.00    +0.252 C 
ATOM     21  H   UNL     1      34.245 -21.218 -14.267  0.00  0.00    +0.150 HD
BRANCH  19  22
ATOM     22  C   UNL     1      33.552 -22.901 -13.204  0.00  0.00    +0.105 C 
BRANCH  22  23
ATOM     23  C   UNL     1      32.146 -23.254 -13.651  0.00  0.00    -0.004 C 
ATOM     24  C   UNL     1      31.367 -22.280 -14.248  0.00  0.00    -0.003 C 
ATOM     25  C   UNL     1      31.678 -24.538 -13.449  0.00  0.00    -0.003 C 
ATOM     26  C   UNL     1      30.074 -22.604 -14.659  0.00  0.00    -0.000 C 
ATOM     27  C   UNL     1      30.386 -24.862 -13.859  0.00  0.00    -0.000 C 
ATOM     28  C   UNL     1      29.583 -23.894 -14.463  0.00  0.00    -0.000 C 
ENDBRANCH  22  23
BRANCH  22  29
ATOM     29  C   UNL     1      34.373 -24.116 -12.738  0.00  0.00    +0.133 C 
BRANCH  29  31
ATOM     30  O   UNL     1      35.441 -24.367 -10.560  0.00  0.00    -0.250 OA
ATOM     31  C   UNL     1      35.356 -23.788 -11.634  0.00  0.00    +0.316 C 
BRANCH  31  32
ATOM     32  O   UNL     1      36.141 -22.729 -11.966  0.00  0.00    -0.480 OA
ATOM     33  H   UNL     1      36.340 -22.075 -11.326  0.00  0.00    +0.295 HD
ENDBRANCH  31  32
ENDBRANCH  29  31
ENDBRANCH  22  29
ENDBRANCH  19  22
ENDBRANCH   2  20
TORSDOF 8
ENDMDL
MODEL 5
REMARK VINA RESULT:     -11.0      2.945      4.701
REMARK  Name = 448942
REMARK  8 active torsions:
REMARK  status: ('A' for Active; 'I' for Inactive)
REMARK    1  A    between atoms: C_2  and  C_20
REMARK    2  A    between atoms: C_3  and  C_6
REMARK    3  A    between atoms: C_7  and  C_13
REMARK    4  A    between atoms: N_19  and  C_22
REMARK    5  A    between atoms: C_22  and  C_23
REMARK    6  A    between atoms: C_22  and  C_29
REMARK    7  A    between atoms: C_29  and  C_31
REMARK    8  A    between atoms: C_31  and  O_32
REMARK                            x       y       z     vdW  Elec       q    Type
REMARK                         _______ _______ _______ _____ _____    ______ ____
ROOT
ATOM      1  S   UNL     1      37.065 -20.723 -19.159  0.00  0.00    -0.082 S 
ATOM      2  C   UNL     1      35.380 -20.762 -18.999  0.00  0.00    +0.083 C 
ATOM      3  C   UNL     1      35.655 -18.870 -20.247  0.00  0.00    +0.007 C 
ATOM      4  C   UNL     1      34.731 -19.745 -19.606  0.00  0.00    +0.012 C 
ATOM      5  C   UNL     1      36.958 -19.284 -20.082  0.00  0.00    +0.036 C 
ENDROOT
BRANCH   3   6
ATOM      6  C   UNL     1      35.348 -17.680 -20.994  0.00  0.00    +0.001 C 
ATOM      7  C   UNL     1      34.751 -15.374 -22.442  0.00  0.00    +0.000 C 
ATOM      8  C   UNL     1      35.255 -16.453 -20.340  0.00  0.00    +0.000 C 
ATOM      9  C   UNL     1      35.143 -17.757 -22.371  0.00  0.00    +0.000 C 
ATOM     10  C   UNL     1      34.956 -15.299 -21.064  0.00  0.00    +0.000 C 
ATOM     11  C   UNL     1      34.844 -16.602 -23.095  0.00  0.00    +0.000 C 
BRANCH   7  13
ATOM     12  N   UNL     1      33.840 -11.865 -24.644  0.00  0.00    -0.242 NA
ATOM     13  C   UNL     1      34.440 -14.177 -23.192  0.00  0.00    +0.003 C 
ATOM     14  C   UNL     1      33.970 -14.275 -24.497  0.00  0.00    +0.021 C 
ATOM     15  C   UNL     1      34.610 -12.925 -22.613  0.00  0.00    +0.021 C 
ATOM     16  C   UNL     1      33.687 -13.100 -25.175  0.00  0.00    +0.099 C 
ATOM     17  C   UNL     1      34.299 -11.810 -23.374  0.00  0.00    +0.099 C 
ENDBRANCH   7  13
ENDBRANCH   3   6
BRANCH   2  20
ATOM     18  O   UNL     1      34.130 -22.761 -18.772  0.00  0.00    -0.270 OA
ATOM     19  N   UNL     1      34.997 -21.832 -16.860  0.00  0.00    -0.298 N 
ATOM     20  C   UNL     1      34.789 -21.870 -18.236  0.00  0.00    +0.252 C 
ATOM     21  H   UNL     1      35.532 -21.098 -16.479  0.00  0.00    +0.150 HD
BRANCH  19  22
ATOM     22  C   UNL     1      34.452 -22.835 -15.972  0.00  0.00    +0.105 C 
BRANCH  22  23
ATOM     23  C   UNL     1      35.522 -23.323 -15.015  0.00  0.00    -0.004 C 
ATOM     24  C   UNL     1      35.552 -24.660 -14.665  0.00  0.00    -0.003 C 
ATOM     25  C   UNL     1      36.440 -22.418 -14.515  0.00  0.00    -0.003 C 
ATOM     26  C   UNL     1      36.537 -25.109 -13.784  0.00  0.00    -0.000 C 
ATOM     27  C   UNL     1      37.424 -22.866 -13.634  0.00  0.00    -0.000 C 
ATOM     28  C   UNL     1      37.471 -24.212 -13.268  0.00  0.00    -0.000 C 
ENDBRANCH  22  23
BRANCH  22  29
ATOM     29  C   UNL     1      33.195 -22.296 -15.268  0.00  0.00    +0.133 C 
BRANCH  29  31
ATOM     30  O   UNL     1      31.074 -23.457 -15.590  0.00  0.00    -0.250 OA
ATOM     31  C   UNL     1      31.907 -22.651 -15.981  0.00  0.00    +0.316 C 
BRANCH  31  32
ATOM     32  O   UNL     1      31.787 -21.975 -17.155  0.00  0.00    -0.480 OA
ATOM     33  H   UNL     1      30.995 -21.516 -17.351  0.00  0.00    +0.295 HD
ENDBRANCH  31  32
ENDBRANCH  29  31
ENDBRANCH  22  29
ENDBRANCH  19  22
ENDBRANCH   2  20
TORSDOF 8
ENDMDL
MODEL 6
REMARK VINA RESULT:     -10.5      2.271      3.728
REMARK  Name = 448942
REMARK  8 active torsions:
REMARK  status: ('A' for Active; 'I' for Inactive)
REMARK    1  A    between atoms: C_2  and  C_20
REMARK    2  A    between atoms: C_3  and  C_6
REMARK    3  A    between atoms: C_7  and  C_13
REMARK    4  A    between atoms: N_19  and  C_22
REMARK    5  A    between atoms: C_22  and  C_23
REMARK    6  A    between atoms: C_22  and  C_29
REMARK    7  A    between atoms: C_29  and  C_31
REMARK    8  A    between atoms: C_31  and  O_32
REMARK                            x       y       z     vdW  Elec       q    Type
REMARK                         _______ _______ _______ _____ _____    ______ ____
ROOT
ATOM      1  S   UNL     1      36.906 -21.058 -18.106  0.00  0.00    -0.082 S 
ATOM      2  C   UNL     1      35.234 -21.270 -18.257  0.00  0.00    +0.083 C 
ATOM      3  C   UNL     1      35.582 -19.522 -19.684  0.00  0.00    +0.007 C 
ATOM      4  C   UNL     1      34.630 -20.414 -19.109  0.00  0.00    +0.012 C 
ATOM      5  C   UNL     1      36.857 -19.761 -19.224  0.00  0.00    +0.036 C 
ENDROOT
BRANCH   3   6
ATOM      6  C   UNL     1      35.324 -18.472 -20.633  0.00  0.00    +0.001 C 
ATOM      7  C   UNL     1      34.823 -16.439 -22.473  0.00  0.00    +0.000 C 
ATOM      8  C   UNL     1      35.477 -17.140 -20.255  0.00  0.00    +0.000 C 
ATOM      9  C   UNL     1      34.921 -18.791 -21.929  0.00  0.00    +0.000 C 
ATOM     10  C   UNL     1      35.226 -16.122 -21.175  0.00  0.00    +0.000 C 
ATOM     11  C   UNL     1      34.670 -17.773 -22.849  0.00  0.00    +0.000 C 
BRANCH   7  13
ATOM     12  N   UNL     1      34.054 -13.344 -25.269  0.00  0.00    -0.242 NA
ATOM     13  C   UNL     1      34.562 -15.384 -23.427  0.00  0.00    +0.003 C 
ATOM     14  C   UNL     1      34.382 -14.077 -22.988  0.00  0.00    +0.021 C 
ATOM     15  C   UNL     1      34.488 -15.672 -24.785  0.00  0.00    +0.021 C 
ATOM     16  C   UNL     1      34.133 -13.102 -23.941  0.00  0.00    +0.099 C 
ATOM     17  C   UNL     1      34.234 -14.626 -25.657  0.00  0.00    +0.099 C 
ENDBRANCH   7  13
ENDBRANCH   3   6
BRANCH   2  20
ATOM     18  O   UNL     1      33.761 -23.099 -17.947  0.00  0.00    -0.270 OA
ATOM     19  N   UNL     1      34.999 -22.418 -16.137  0.00  0.00    -0.298 N 
ATOM     20  C   UNL     1      34.604 -22.338 -17.469  0.00  0.00    +0.252 C 
ATOM     21  H   UNL     1      35.677 -21.787 -15.802  0.00  0.00    +0.150 HD
BRANCH  19  22
ATOM     22  C   UNL     1      34.445 -23.398 -15.228  0.00  0.00    +0.105 C 
BRANCH  22  23
ATOM     23  C   UNL     1      35.551 -24.031 -14.405  0.00  0.00    -0.004 C 
ATOM     24  C   UNL     1      35.969 -23.404 -13.246  0.00  0.00    -0.003 C 
ATOM     25  C   UNL     1      36.113 -25.218 -14.835  0.00  0.00    -0.003 C 
ATOM     26  C   UNL     1      36.986 -23.986 -12.490  0.00  0.00    -0.000 C 
ATOM     27  C   UNL     1      37.130 -25.800 -14.079  0.00  0.00    -0.000 C 
ATOM     28  C   UNL     1      37.568 -25.183 -12.907  0.00  0.00    -0.000 C 
ENDBRANCH  22  23
BRANCH  22  29
ATOM     29  C   UNL     1      33.331 -22.764 -14.377  0.00  0.00    +0.133 C 
BRANCH  29  31
ATOM     30  O   UNL     1      31.232 -23.993 -14.552  0.00  0.00    -0.250 OA
ATOM     31  C   UNL     1      32.268 -23.753 -13.947  0.00  0.00    +0.316 C 
BRANCH  31  32
ATOM     32  O   UNL     1      32.588 -24.344 -12.765  0.00  0.00    -0.480 OA
ATOM     33  H   UNL     1      31.973 -24.911 -12.344  0.00  0.00    +0.295 HD
ENDBRANCH  31  32
ENDBRANCH  29  31
ENDBRANCH  22  29
ENDBRANCH  19  22
ENDBRANCH   2  20
TORSDOF 8
ENDMDL
MODEL 7
REMARK VINA RESULT:     -10.5      8.033     12.255
REMARK  Name = 448942
REMARK  8 active torsions:
REMARK  status: ('A' for Active; 'I' for Inactive)
REMARK    1  A    between atoms: C_2  and  C_20
REMARK    2  A    between atoms: C_3  and  C_6
REMARK    3  A    between atoms: C_7  and  C_13
REMARK    4  A    between atoms: N_19  and  C_22
REMARK    5  A    between atoms: C_22  and  C_23
REMARK    6  A    between atoms: C_22  and  C_29
REMARK    7  A    between atoms: C_29  and  C_31
REMARK    8  A    between atoms: C_31  and  O_32
REMARK                            x       y       z     vdW  Elec       q    Type
REMARK                         _______ _______ _______ _____ _____    ______ ____
ROOT
ATOM      1  S   UNL     1      33.382 -13.815 -20.865  0.00  0.00    -0.082 S 
ATOM      2  C   UNL     1      34.290 -13.615 -22.280  0.00  0.00    +0.083 C 
ATOM      3  C   UNL     1      33.396 -11.528 -22.037  0.00  0.00    +0.007 C 
ATOM      4  C   UNL     1      34.231 -12.378 -22.819  0.00  0.00    +0.012 C 
ATOM      5  C   UNL     1      32.869 -12.183 -20.947  0.00  0.00    +0.036 C 
ENDROOT
BRANCH   3   6
ATOM      6  C   UNL     1      33.087 -10.146 -22.289  0.00  0.00    +0.001 C 
ATOM      7  C   UNL     1      32.489  -7.467 -22.773  0.00  0.00    +0.000 C 
ATOM      8  C   UNL     1      33.656  -9.493 -23.380  0.00  0.00    +0.000 C 
ATOM      9  C   UNL     1      32.220  -9.462 -21.438  0.00  0.00    +0.000 C 
ATOM     10  C   UNL     1      33.357  -8.153 -23.624  0.00  0.00    +0.000 C 
ATOM     11  C   UNL     1      31.921  -8.121 -21.681  0.00  0.00    +0.000 C 
BRANCH   7  13
ATOM     12  N   UNL     1      31.587  -3.388 -23.511  0.00  0.00    -0.242 NA
ATOM     13  C   UNL     1      32.181  -6.076 -23.024  0.00  0.00    +0.003 C 
ATOM     14  C   UNL     1      31.930  -5.640 -24.320  0.00  0.00    +0.021 C 
ATOM     15  C   UNL     1      32.134  -5.169 -21.971  0.00  0.00    +0.021 C 
ATOM     16  C   UNL     1      31.641  -4.299 -24.509  0.00  0.00    +0.099 C 
ATOM     17  C   UNL     1      31.836  -3.849 -22.264  0.00  0.00    +0.099 C 
ENDBRANCH   7  13
ENDBRANCH   3   6
BRANCH   2  20
ATOM     18  O   UNL     1      36.075 -14.652 -23.441  0.00  0.00    -0.270 OA
ATOM     19  N   UNL     1      34.494 -16.020 -22.490  0.00  0.00    -0.298 N 
ATOM     20  C   UNL     1      35.041 -14.773 -22.782  0.00  0.00    +0.252 C 
ATOM     21  H   UNL     1      33.666 -16.064 -21.960  0.00  0.00    +0.150 HD
BRANCH  19  22
ATOM     22  C   UNL     1      35.103 -17.252 -22.943  0.00  0.00    +0.105 C 
BRANCH  22  23
ATOM     23  C   UNL     1      35.496 -18.107 -21.754  0.00  0.00    -0.004 C 
ATOM     24  C   UNL     1      36.774 -17.997 -21.241  0.00  0.00    -0.003 C 
ATOM     25  C   UNL     1      34.566 -18.976 -21.215  0.00  0.00    -0.003 C 
ATOM     26  C   UNL     1      37.136 -18.784 -20.147  0.00  0.00    -0.000 C 
ATOM     27  C   UNL     1      34.928 -19.764 -20.122  0.00  0.00    -0.000 C 
ATOM     28  C   UNL     1      36.214 -19.668 -19.589  0.00  0.00    -0.000 C 
ENDBRANCH  22  23
BRANCH  22  29
ATOM     29  C   UNL     1      34.174 -17.969 -23.939  0.00  0.00    +0.133 C 
BRANCH  29  31
ATOM     30  O   UNL     1      32.584 -17.090 -25.565  0.00  0.00    -0.250 OA
ATOM     31  C   UNL     1      33.701 -17.077 -25.067  0.00  0.00    +0.316 C 
BRANCH  31  32
ATOM     32  O   UNL     1      34.693 -16.253 -25.498  0.00  0.00    -0.480 OA
ATOM     33  H   UNL     1      35.409 -16.048 -24.932  0.00  0.00    +0.295 HD
ENDBRANCH  31  32
ENDBRANCH  29  31
ENDBRANCH  22  29
ENDBRANCH  19  22
ENDBRANCH   2  20
TORSDOF 8
ENDMDL
MODEL 8
REMARK VINA RESULT:     -10.3      9.449     14.990
REMARK  Name = 448942
REMARK  8 active torsions:
REMARK  status: ('A' for Active; 'I' for Inactive)
REMARK    1  A    between atoms: C_2  and  C_20
REMARK    2  A    between atoms: C_3  and  C_6
REMARK    3  A    between atoms: C_7  and  C_13
REMARK    4  A    between atoms: N_19  and  C_22
REMARK    5  A    between atoms: C_22  and  C_23
REMARK    6  A    between atoms: C_22  and  C_29
REMARK    7  A    between atoms: C_29  and  C_31
REMARK    8  A    between atoms: C_31  and  O_32
REMARK                            x       y       z     vdW  Elec       q    Type
REMARK                         _______ _______ _______ _____ _____    ______ ____
ROOT
ATOM      1  S   UNL     1      34.024 -10.717 -23.642  0.00  0.00    -0.082 S 
ATOM      2  C   UNL     1      32.964 -10.876 -22.331  0.00  0.00    +0.083 C 
ATOM      3  C   UNL     1      34.091 -12.859 -22.223  0.00  0.00    +0.007 C 
ATOM      4  C   UNL     1      33.078 -12.037 -21.650  0.00  0.00    +0.012 C 
ATOM      5  C   UNL     1      34.685 -12.263 -23.313  0.00  0.00    +0.036 C 
ENDROOT
BRANCH   3   6
ATOM      6  C   UNL     1      34.503 -14.164 -21.780  0.00  0.00    +0.001 C 
ATOM      7  C   UNL     1      35.300 -16.693 -20.919  0.00  0.00    +0.000 C 
ATOM      8  C   UNL     1      34.839 -15.142 -22.713  0.00  0.00    +0.000 C 
ATOM      9  C   UNL     1      34.564 -14.447 -20.416  0.00  0.00    +0.000 C 
ATOM     10  C   UNL     1      35.237 -16.408 -22.283  0.00  0.00    +0.000 C 
ATOM     11  C   UNL     1      34.963 -15.713 -19.986  0.00  0.00    +0.000 C 
BRANCH   7  13
ATOM     12  N   UNL     1      36.509 -20.543 -19.614  0.00  0.00    -0.242 NA
ATOM     13  C   UNL     1      35.712 -18.005 -20.473  0.00  0.00    +0.003 C 
ATOM     14  C   UNL     1      37.063 -18.304 -20.339  0.00  0.00    +0.021 C 
ATOM     15  C   UNL     1      34.759 -18.974 -20.178  0.00  0.00    +0.021 C 
ATOM     16  C   UNL     1      37.407 -19.576 -19.909  0.00  0.00    +0.099 C 
ATOM     17  C   UNL     1      35.205 -20.216 -19.756  0.00  0.00    +0.099 C 
ENDBRANCH   7  13
ENDBRANCH   3   6
BRANCH   2  20
ATOM     18  O   UNL     1      30.994  -9.922 -21.426  0.00  0.00    -0.270 OA
ATOM     19  N   UNL     1      32.409  -8.532 -22.585  0.00  0.00    -0.298 N 
ATOM     20  C   UNL     1      32.041  -9.767 -22.058  0.00  0.00    +0.252 C 
ATOM     21  H   UNL     1      33.255  -8.459 -23.082  0.00  0.00    +0.150 HD
BRANCH  19  22
ATOM     22  C   UNL     1      31.586  -7.352 -22.425  0.00  0.00    +0.105 C 
BRANCH  22  23
ATOM     23  C   UNL     1      31.974  -6.613 -21.159  0.00  0.00    -0.004 C 
ATOM     24  C   UNL     1      32.905  -7.180 -20.309  0.00  0.00    -0.003 C 
ATOM     25  C   UNL     1      31.386  -5.392 -20.886  0.00  0.00    -0.003 C 
ATOM     26  C   UNL     1      33.261  -6.501 -19.144  0.00  0.00    -0.000 C 
ATOM     27  C   UNL     1      31.742  -4.713 -19.722  0.00  0.00    -0.000 C 
ATOM     28  C   UNL     1      32.679  -5.268 -18.850  0.00  0.00    -0.000 C 
ENDBRANCH  22  23
BRANCH  22  29
ATOM     29  C   UNL     1      31.654  -6.482 -23.692  0.00  0.00    +0.133 C 
BRANCH  29  31
ATOM     30  O   UNL     1      34.067  -6.708 -23.971  0.00  0.00    -0.250 OA
ATOM     31  C   UNL     1      33.057  -6.020 -24.028  0.00  0.00    +0.316 C 
BRANCH  31  32
ATOM     32  O   UNL     1      33.076  -4.709 -24.387  0.00  0.00    -0.480 OA
ATOM     33  H   UNL     1      32.561  -4.086 -23.913  0.00  0.00    +0.295 HD
ENDBRANCH  31  32
ENDBRANCH  29  31
ENDBRANCH  22  29
ENDBRANCH  19  22
ENDBRANCH   2  20
TORSDOF 8
ENDMDL
MODEL 9
REMARK VINA RESULT:     -10.3      8.356     14.164
REMARK  Name = 448942
REMARK  8 active torsions:
REMARK  status: ('A' for Active; 'I' for Inactive)
REMARK    1  A    between atoms: C_2  and  C_20
REMARK    2  A    between atoms: C_3  and  C_6
REMARK    3  A    between atoms: C_7  and  C_13
REMARK    4  A    between atoms: N_19  and  C_22
REMARK    5  A    between atoms: C_22  and  C_23
REMARK    6  A    between atoms: C_22  and  C_29
REMARK    7  A    between atoms: C_29  and  C_31
REMARK    8  A    between atoms: C_31  and  O_32
REMARK                            x       y       z     vdW  Elec       q    Type
REMARK                         _______ _______ _______ _____ _____    ______ ____
ROOT
ATOM      1  S   UNL     1      33.823 -13.390 -25.886  0.00  0.00    -0.082 S 
ATOM      2  C   UNL     1      34.102 -12.507 -24.469  0.00  0.00    +0.083 C 
ATOM      3  C   UNL     1      34.435 -14.641 -23.727  0.00  0.00    +0.007 C 
ATOM      4  C   UNL     1      34.417 -13.256 -23.390  0.00  0.00    +0.012 C 
ATOM      5  C   UNL     1      34.129 -14.854 -25.052  0.00  0.00    +0.036 C 
ENDROOT
BRANCH   3   6
ATOM      6  C   UNL     1      34.726 -15.743 -22.850  0.00  0.00    +0.001 C 
ATOM      7  C   UNL     1      35.289 -17.879 -21.148  0.00  0.00    +0.000 C 
ATOM      8  C   UNL     1      34.680 -17.049 -23.334  0.00  0.00    +0.000 C 
ATOM      9  C   UNL     1      35.052 -15.502 -21.515  0.00  0.00    +0.000 C 
ATOM     10  C   UNL     1      34.962 -18.118 -22.484  0.00  0.00    +0.000 C 
ATOM     11  C   UNL     1      35.334 -16.571 -20.665  0.00  0.00    +0.000 C 
BRANCH   7  13
ATOM     12  N   UNL     1      36.142 -21.130 -18.562  0.00  0.00    -0.242 NA
ATOM     13  C   UNL     1      35.579 -18.987 -20.266  0.00  0.00    +0.003 C 
ATOM     14  C   UNL     1      36.885 -19.224 -19.850  0.00  0.00    +0.021 C 
ATOM     15  C   UNL     1      34.555 -19.821 -19.831  0.00  0.00    +0.021 C 
ATOM     16  C   UNL     1      37.112 -20.298 -19.005  0.00  0.00    +0.099 C 
ATOM     17  C   UNL     1      34.886 -20.869 -18.988  0.00  0.00    +0.099 C 
ENDBRANCH   7  13
ENDBRANCH   3   6
BRANCH   2  20
ATOM     18  O   UNL     1      33.804 -10.447 -25.600  0.00  0.00    -0.270 OA
ATOM     19  N   UNL     1      34.111 -10.372 -23.325  0.00  0.00    -0.298 N 
ATOM     20  C   UNL     1      33.981 -11.045 -24.537  0.00  0.00    +0.252 C 
ATOM     21  H   UNL     1      34.252 -10.895 -22.503  0.00  0.00    +0.150 HD
BRANCH  19  22
ATOM     22  C   UNL     1      34.047  -8.930 -23.236  0.00  0.00    +0.105 C 
BRANCH  22  23
ATOM     23  C   UNL     1      33.393  -8.516 -21.932  0.00  0.00    -0.004 C 
ATOM     24  C   UNL     1      33.705  -7.285 -21.384  0.00  0.00    -0.003 C 
ATOM     25  C   UNL     1      32.502  -9.379 -21.322  0.00  0.00    -0.003 C 
ATOM     26  C   UNL     1      33.104  -6.905 -20.184  0.00  0.00    -0.000 C 
ATOM     27  C   UNL     1      31.901  -9.000 -20.123  0.00  0.00    -0.000 C 
ATOM     28  C   UNL     1      32.203  -7.762 -19.553  0.00  0.00    -0.000 C 
ENDBRANCH  22  23
BRANCH  22  29
ATOM     29  C   UNL     1      35.445  -8.321 -23.444  0.00  0.00    +0.133 C 
BRANCH  29  31
ATOM     30  O   UNL     1      35.345  -6.488 -25.050  0.00  0.00    -0.250 OA
ATOM     31  C   UNL     1      35.614  -7.654 -24.793  0.00  0.00    +0.316 C 
BRANCH  31  32
ATOM     32  O   UNL     1      36.087  -8.525 -25.723  0.00  0.00    -0.480 OA
ATOM     33  H   UNL     1      36.640  -9.233 -25.461  0.00  0.00    +0.295 HD
ENDBRANCH  31  32
ENDBRANCH  29  31
ENDBRANCH  22  29
ENDBRANCH  19  22
ENDBRANCH   2  20
TORSDOF 8
ENDMDL
