MODEL 1
REMARK VINA RESULT:     -11.6      0.000      0.000
REMARK  Name = 44177328
REMARK  2 active torsions:
REMARK  status: ('A' for Active; 'I' for Inactive)
REMARK    1  A    between atoms: N_1  and  C_15
REMARK    2  A    between atoms: C_6  and  C_23
REMARK                            x       y       z     vdW  Elec       q    Type
REMARK                         _______ _______ _______ _____ _____    ______ ____
ROOT
ATOM      1  N   UNL     1      33.158 -21.848 -17.926  0.00  0.00    -0.286 N 
ATOM      2  N   UNL     1      34.354 -22.837 -16.139  0.00  0.00    -0.386 NA
ATOM      3  N   UNL     1      31.949 -23.151 -14.731  0.00  0.00    -0.246 NA
ATOM      4  N   UNL     1      30.778 -22.157 -16.539  0.00  0.00    -0.340 N 
ATOM      5  C   UNL     1      33.172 -22.438 -16.649  0.00  0.00    +0.214 C 
ATOM      6  C   UNL     1      34.313 -23.396 -14.913  0.00  0.00    +0.135 C 
ATOM      7  C   UNL     1      31.990 -22.593 -15.958  0.00  0.00    +0.166 C 
ATOM      8  C   UNL     1      33.131 -23.550 -14.222  0.00  0.00    +0.185 C 
ATOM      9  H   UNL     1      32.324 -22.003 -18.425  0.00  0.00    +0.155 HD
ATOM     10  H   UNL     1      29.930 -22.265 -16.050  0.00  0.00    +0.144 HD
ATOM     11  H   UNL     1      30.781 -21.746 -17.434  0.00  0.00    +0.144 HD
ENDROOT
BRANCH   1  15
ATOM     12  N   UNL     1      36.687 -18.724 -20.823  0.00  0.00    -0.312 N 
ATOM     13  C   UNL     1      34.628 -19.421 -20.323  0.00  0.00    +0.016 C 
ATOM     14  C   UNL     1      35.979 -19.576 -20.005  0.00  0.00    +0.048 C 
ATOM     15  C   UNL     1      34.108 -21.077 -18.633  0.00  0.00    +0.050 C 
ATOM     16  C   UNL     1      33.675 -20.187 -19.622  0.00  0.00    +0.016 C 
ATOM     17  C   UNL     1      36.426 -20.461 -19.018  0.00  0.00    +0.016 C 
ATOM     18  C   UNL     1      35.463 -21.211 -18.337  0.00  0.00    +0.016 C 
ATOM     19  C   UNL     1      34.550 -18.448 -21.359  0.00  0.00    +0.017 C 
ATOM     20  C   UNL     1      35.833 -18.039 -21.645  0.00  0.00    +0.062 C 
ATOM     21  H   UNL     1      37.666 -18.624 -20.819  0.00  0.00    +0.152 HD
ENDBRANCH   1  15
BRANCH   6  23
ATOM     22  N   UNL     1      38.034 -24.638 -13.316  0.00  0.00    -0.242 NA
ATOM     23  C   UNL     1      35.578 -23.818 -14.370  0.00  0.00    +0.031 C 
ATOM     24  C   UNL     1      36.317 -22.955 -13.568  0.00  0.00    +0.023 C 
ATOM     25  C   UNL     1      36.065 -25.092 -14.644  0.00  0.00    +0.023 C 
ATOM     26  C   UNL     1      37.527 -23.409 -13.070  0.00  0.00    +0.099 C 
ATOM     27  C   UNL     1      37.288 -25.450 -14.098  0.00  0.00    +0.099 C 
ENDBRANCH   6  23
TORSDOF 2
ENDMDL
MODEL 2
REMARK VINA RESULT:     -11.1      1.747      6.665
REMARK  Name = 44177328
REMARK  2 active torsions:
REMARK  status: ('A' for Active; 'I' for Inactive)
REMARK    1  A    between atoms: N_1  and  C_15
REMARK    2  A    between atoms: C_6  and  C_23
REMARK                            x       y       z     vdW  Elec       q    Type
REMARK                         _______ _______ _______ _____ _____    ______ ____
ROOT
ATOM      1  N   UNL     1      34.802 -23.830 -13.143  0.00  0.00    -0.286 N 
ATOM      2  N   UNL     1      34.503 -22.802 -15.255  0.00  0.00    -0.386 NA
ATOM      3  N   UNL     1      31.774 -23.442 -15.157  0.00  0.00    -0.246 NA
ATOM      4  N   UNL     1      32.105 -24.463 -13.041  0.00  0.00    -0.340 N 
ATOM      5  C   UNL     1      33.962 -23.460 -14.210  0.00  0.00    +0.214 C 
ATOM      6  C   UNL     1      33.657 -22.471 -16.250  0.00  0.00    +0.135 C 
ATOM      7  C   UNL     1      32.622 -23.774 -14.161  0.00  0.00    +0.166 C 
ATOM      8  C   UNL     1      32.317 -22.786 -16.201  0.00  0.00    +0.185 C 
ATOM      9  H   UNL     1      34.344 -23.862 -12.272  0.00  0.00    +0.155 HD
ATOM     10  H   UNL     1      31.148 -24.691 -13.001  0.00  0.00    +0.144 HD
ATOM     11  H   UNL     1      32.702 -24.717 -12.301  0.00  0.00    +0.144 HD
ENDROOT
BRANCH   1  15
ATOM     12  N   UNL     1      40.198 -25.050 -13.126  0.00  0.00    -0.312 N 
ATOM     13  C   UNL     1      38.360 -24.264 -14.116  0.00  0.00    +0.016 C 
ATOM     14  C   UNL     1      38.854 -24.821 -12.934  0.00  0.00    +0.048 C 
ATOM     15  C   UNL     1      36.173 -24.163 -13.078  0.00  0.00    +0.050 C 
ATOM     16  C   UNL     1      36.992 -23.930 -14.188  0.00  0.00    +0.016 C 
ATOM     17  C   UNL     1      38.046 -25.058 -11.817  0.00  0.00    +0.016 C 
ATOM     18  C   UNL     1      36.693 -24.719 -11.912  0.00  0.00    +0.016 C 
ATOM     19  C   UNL     1      39.453 -24.169 -15.022  0.00  0.00    +0.017 C 
ATOM     20  C   UNL     1      40.569 -24.661 -14.384  0.00  0.00    +0.062 C 
ATOM     21  H   UNL     1      40.803 -25.440 -12.455  0.00  0.00    +0.152 HD
ENDBRANCH   1  15
BRANCH   6  23
ATOM     22  N   UNL     1      35.368 -20.414 -19.534  0.00  0.00    -0.242 NA
ATOM     23  C   UNL     1      34.239 -21.772 -17.367  0.00  0.00    +0.031 C 
ATOM     24  C   UNL     1      35.616 -21.589 -17.436  0.00  0.00    +0.023 C 
ATOM     25  C   UNL     1      33.426 -21.277 -18.381  0.00  0.00    +0.023 C 
ATOM     26  C   UNL     1      36.126 -20.910 -18.530  0.00  0.00    +0.099 C 
ATOM     27  C   UNL     1      34.034 -20.611 -19.433  0.00  0.00    +0.099 C 
ENDBRANCH   6  23
TORSDOF 2
ENDMDL
MODEL 3
REMARK VINA RESULT:     -10.8      1.871      3.173
REMARK  Name = 44177328
REMARK  2 active torsions:
REMARK  status: ('A' for Active; 'I' for Inactive)
REMARK    1  A    between atoms: N_1  and  C_15
REMARK    2  A    between atoms: C_6  and  C_23
REMARK                            x       y       z     vdW  Elec       q    Type
REMARK                         _______ _______ _______ _____ _____    ______ ____
ROOT
ATOM      1  N   UNL     1      33.906 -22.928 -15.339  0.00  0.00    -0.286 N 
ATOM      2  N   UNL     1      36.024 -23.633 -14.551  0.00  0.00    -0.386 NA
ATOM      3  N   UNL     1      34.978 -23.804 -11.955  0.00  0.00    -0.246 NA
ATOM      4  N   UNL     1      32.867 -23.097 -12.774  0.00  0.00    -0.340 N 
ATOM      5  C   UNL     1      34.738 -23.336 -14.279  0.00  0.00    +0.214 C 
ATOM      6  C   UNL     1      36.778 -24.018 -13.503  0.00  0.00    +0.135 C 
ATOM      7  C   UNL     1      34.223 -23.420 -13.004  0.00  0.00    +0.166 C 
ATOM      8  C   UNL     1      36.264 -24.102 -12.227  0.00  0.00    +0.185 C 
ATOM      9  H   UNL     1      32.960 -23.169 -15.214  0.00  0.00    +0.155 HD
ATOM     10  H   UNL     1      32.494 -23.155 -11.865  0.00  0.00    +0.144 HD
ATOM     11  H   UNL     1      32.295 -22.813 -13.524  0.00  0.00    +0.144 HD
ENDROOT
BRANCH   1  15
ATOM     12  N   UNL     1      35.159 -20.222 -19.999  0.00  0.00    -0.312 N 
ATOM     13  C   UNL     1      35.714 -21.123 -18.034  0.00  0.00    +0.016 C 
ATOM     14  C   UNL     1      34.651 -20.900 -18.913  0.00  0.00    +0.048 C 
ATOM     15  C   UNL     1      34.164 -22.241 -16.546  0.00  0.00    +0.050 C 
ATOM     16  C   UNL     1      35.464 -21.807 -16.828  0.00  0.00    +0.016 C 
ATOM     17  C   UNL     1      33.347 -21.330 -18.645  0.00  0.00    +0.016 C 
ATOM     18  C   UNL     1      33.123 -22.005 -17.441  0.00  0.00    +0.016 C 
ATOM     19  C   UNL     1      36.875 -20.556 -18.630  0.00  0.00    +0.017 C 
ATOM     20  C   UNL     1      36.502 -20.009 -19.837  0.00  0.00    +0.062 C 
ATOM     21  H   UNL     1      34.632 -19.932 -20.778  0.00  0.00    +0.152 HD
ENDBRANCH   1  15
BRANCH   6  23
ATOM     22  N   UNL     1      40.821 -24.943 -14.364  0.00  0.00    -0.242 NA
ATOM     23  C   UNL     1      38.153 -24.332 -13.796  0.00  0.00    +0.031 C 
ATOM     24  C   UNL     1      38.842 -23.614 -14.767  0.00  0.00    +0.023 C 
ATOM     25  C   UNL     1      38.797 -25.355 -13.107  0.00  0.00    +0.023 C 
ATOM     26  C   UNL     1      40.162 -23.956 -15.011  0.00  0.00    +0.099 C 
ATOM     27  C   UNL     1      40.120 -25.619 -13.426  0.00  0.00    +0.099 C 
ENDBRANCH   6  23
TORSDOF 2
ENDMDL
MODEL 4
REMARK VINA RESULT:     -10.8      1.861      6.770
REMARK  Name = 44177328
REMARK  2 active torsions:
REMARK  status: ('A' for Active; 'I' for Inactive)
REMARK    1  A    between atoms: N_1  and  C_15
REMARK    2  A    between atoms: C_6  and  C_23
REMARK                            x       y       z     vdW  Elec       q    Type
REMARK                         _______ _______ _______ _____ _____    ______ ____
ROOT
ATOM      1  N   UNL     1      34.416 -23.774 -14.095  0.00  0.00    -0.286 N 
ATOM      2  N   UNL     1      35.184 -22.458 -15.907  0.00  0.00    -0.386 NA
ATOM      3  N   UNL     1      37.639 -22.118 -14.593  0.00  0.00    -0.246 NA
ATOM      4  N   UNL     1      36.842 -23.442 -12.793  0.00  0.00    -0.340 N 
ATOM      5  C   UNL     1      35.430 -23.008 -14.702  0.00  0.00    +0.214 C 
ATOM      6  C   UNL     1      36.186 -21.735 -16.445  0.00  0.00    +0.135 C 
ATOM      7  C   UNL     1      36.635 -22.843 -14.056  0.00  0.00    +0.166 C 
ATOM      8  C   UNL     1      37.392 -21.569 -15.799  0.00  0.00    +0.185 C 
ATOM      9  H   UNL     1      34.757 -24.492 -13.515  0.00  0.00    +0.155 HD
ATOM     10  H   UNL     1      37.701 -23.326 -12.327  0.00  0.00    +0.144 HD
ATOM     11  H   UNL     1      36.125 -23.975 -12.379  0.00  0.00    +0.144 HD
ENDROOT
BRANCH   1  15
ATOM     12  N   UNL     1      28.916 -23.382 -14.539  0.00  0.00    -0.312 N 
ATOM     13  C   UNL     1      30.986 -22.882 -15.204  0.00  0.00    +0.016 C 
ATOM     14  C   UNL     1      30.247 -23.606 -14.265  0.00  0.00    +0.048 C 
ATOM     15  C   UNL     1      33.006 -23.713 -14.157  0.00  0.00    +0.050 C 
ATOM     16  C   UNL     1      32.393 -22.937 -15.147  0.00  0.00    +0.016 C 
ATOM     17  C   UNL     1      30.847 -24.386 -13.272  0.00  0.00    +0.016 C 
ATOM     18  C   UNL     1      32.244 -24.426 -13.234  0.00  0.00    +0.016 C 
ATOM     19  C   UNL     1      30.053 -22.216 -16.048  0.00  0.00    +0.017 C 
ATOM     20  C   UNL     1      28.789 -22.544 -15.614  0.00  0.00    +0.062 C 
ATOM     21  H   UNL     1      28.165 -23.769 -14.033  0.00  0.00    +0.152 HD
ENDBRANCH   1  15
BRANCH   6  23
ATOM     22  N   UNL     1      35.399 -20.001 -20.228  0.00  0.00    -0.242 NA
ATOM     23  C   UNL     1      35.919 -21.145 -17.731  0.00  0.00    +0.031 C 
ATOM     24  C   UNL     1      36.936 -20.504 -18.430  0.00  0.00    +0.023 C 
ATOM     25  C   UNL     1      34.643 -21.216 -18.279  0.00  0.00    +0.023 C 
ATOM     26  C   UNL     1      36.627 -19.953 -19.663  0.00  0.00    +0.099 C 
ATOM     27  C   UNL     1      34.436 -20.632 -19.519  0.00  0.00    +0.099 C 
ENDBRANCH   6  23
TORSDOF 2
ENDMDL
MODEL 5
REMARK VINA RESULT:     -10.6      6.663     10.690
REMARK  Name = 44177328
REMARK  2 active torsions:
REMARK  status: ('A' for Active; 'I' for Inactive)
REMARK    1  A    between atoms: N_1  and  C_15
REMARK    2  A    between atoms: C_6  and  C_23
REMARK                            x       y       z     vdW  Elec       q    Type
REMARK                         _______ _______ _______ _____ _____    ______ ____
ROOT
ATOM      1  N   UNL     1      33.608 -12.508 -23.167  0.00  0.00    -0.286 N 
ATOM      2  N   UNL     1      34.355 -14.734 -22.863  0.00  0.00    -0.386 NA
ATOM      3  N   UNL     1      34.267 -15.120 -25.639  0.00  0.00    -0.246 NA
ATOM      4  N   UNL     1      33.521 -12.884 -25.912  0.00  0.00    -0.340 N 
ATOM      5  C   UNL     1      33.972 -13.755 -23.707  0.00  0.00    +0.214 C 
ATOM      6  C   UNL     1      34.693 -15.908 -23.430  0.00  0.00    +0.135 C 
ATOM      7  C   UNL     1      33.929 -13.944 -25.071  0.00  0.00    +0.166 C 
ATOM      8  C   UNL     1      34.649 -16.097 -24.794  0.00  0.00    +0.185 C 
ATOM      9  H   UNL     1      33.791 -11.749 -23.766  0.00  0.00    +0.155 HD
ATOM     10  H   UNL     1      33.488 -13.014 -26.888  0.00  0.00    +0.144 HD
ATOM     11  H   UNL     1      33.269 -12.016 -25.522  0.00  0.00    +0.144 HD
ENDROOT
BRANCH   1  15
ATOM     12  N   UNL     1      31.351 -10.797 -18.414  0.00  0.00    -0.312 N 
ATOM     13  C   UNL     1      32.162 -10.418 -20.458  0.00  0.00    +0.016 C 
ATOM     14  C   UNL     1      31.906 -11.415 -19.513  0.00  0.00    +0.048 C 
ATOM     15  C   UNL     1      33.033 -12.132 -21.932  0.00  0.00    +0.050 C 
ATOM     16  C   UNL     1      32.737 -10.786 -21.691  0.00  0.00    +0.016 C 
ATOM     17  C   UNL     1      32.195 -12.764 -19.741  0.00  0.00    +0.016 C 
ATOM     18  C   UNL     1      32.766 -13.105 -20.971  0.00  0.00    +0.016 C 
ATOM     19  C   UNL     1      31.743  -9.184 -19.888  0.00  0.00    +0.017 C 
ATOM     20  C   UNL     1      31.250  -9.449 -18.631  0.00  0.00    +0.062 C 
ATOM     21  H   UNL     1      31.070 -11.258 -17.591  0.00  0.00    +0.152 HD
ENDBRANCH   1  15
BRANCH   6  23
ATOM     22  N   UNL     1      35.883 -18.979 -20.766  0.00  0.00    -0.242 NA
ATOM     23  C   UNL     1      35.097 -16.953 -22.525  0.00  0.00    +0.031 C 
ATOM     24  C   UNL     1      34.836 -18.284 -22.832  0.00  0.00    +0.023 C 
ATOM     25  C   UNL     1      35.752 -16.634 -21.340  0.00  0.00    +0.023 C 
ATOM     26  C   UNL     1      35.246 -19.250 -21.928  0.00  0.00    +0.099 C 
ATOM     27  C   UNL     1      36.121 -17.675 -20.502  0.00  0.00    +0.099 C 
ENDBRANCH   6  23
TORSDOF 2
ENDMDL
MODEL 6
REMARK VINA RESULT:     -10.6      1.603      4.067
REMARK  Name = 44177328
REMARK  2 active torsions:
REMARK  status: ('A' for Active; 'I' for Inactive)
REMARK    1  A    between atoms: N_1  and  C_15
REMARK    2  A    between atoms: C_6  and  C_23
REMARK                            x       y       z     vdW  Elec       q    Type
REMARK                         _______ _______ _______ _____ _____    ______ ____
ROOT
ATOM      1  N   UNL     1      36.769 -21.554 -16.497  0.00  0.00    -0.286 N 
ATOM      2  N   UNL     1      34.958 -22.447 -15.263  0.00  0.00    -0.386 NA
ATOM      3  N   UNL     1      36.739 -24.148 -13.921  0.00  0.00    -0.246 NA
ATOM      4  N   UNL     1      38.534 -23.233 -15.172  0.00  0.00    -0.340 N 
ATOM      5  C   UNL     1      36.280 -22.443 -15.522  0.00  0.00    +0.214 C 
ATOM      6  C   UNL     1      34.541 -23.316 -14.321  0.00  0.00    +0.135 C 
ATOM      7  C   UNL     1      37.156 -23.278 -14.863  0.00  0.00    +0.166 C 
ATOM      8  C   UNL     1      35.416 -24.151 -13.662  0.00  0.00    +0.185 C 
ATOM      9  H   UNL     1      37.692 -21.254 -16.332  0.00  0.00    +0.155 HD
ATOM     10  H   UNL     1      39.164 -23.827 -14.705  0.00  0.00    +0.144 HD
ATOM     11  H   UNL     1      38.864 -22.606 -15.857  0.00  0.00    +0.144 HD
ENDROOT
BRANCH   1  15
ATOM     12  N   UNL     1      34.732 -19.284 -21.113  0.00  0.00    -0.312 N 
ATOM     13  C   UNL     1      36.344 -19.546 -19.593  0.00  0.00    +0.016 C 
ATOM     14  C   UNL     1      35.056 -19.951 -19.952  0.00  0.00    +0.048 C 
ATOM     15  C   UNL     1      36.194 -21.008 -17.667  0.00  0.00    +0.050 C 
ATOM     16  C   UNL     1      36.923 -20.087 -18.427  0.00  0.00    +0.016 C 
ATOM     17  C   UNL     1      34.317 -20.872 -19.203  0.00  0.00    +0.016 C 
ATOM     18  C   UNL     1      34.912 -21.393 -18.049  0.00  0.00    +0.016 C 
ATOM     19  C   UNL     1      36.779 -18.615 -20.576  0.00  0.00    +0.017 C 
ATOM     20  C   UNL     1      35.766 -18.474 -21.497  0.00  0.00    +0.062 C 
ATOM     21  H   UNL     1      33.878 -19.375 -21.594  0.00  0.00    +0.152 HD
ENDBRANCH   1  15
BRANCH   6  23
ATOM     22  N   UNL     1      30.381 -23.329 -13.521  0.00  0.00    -0.242 NA
ATOM     23  C   UNL     1      33.127 -23.320 -14.048  0.00  0.00    +0.031 C 
ATOM     24  C   UNL     1      32.590 -24.241 -13.155  0.00  0.00    +0.023 C 
ATOM     25  C   UNL     1      32.292 -22.403 -14.678  0.00  0.00    +0.023 C 
ATOM     26  C   UNL     1      31.224 -24.204 -12.928  0.00  0.00    +0.099 C 
ATOM     27  C   UNL     1      30.938 -22.449 -14.383  0.00  0.00    +0.099 C 
ENDBRANCH   6  23
TORSDOF 2
ENDMDL
MODEL 7
REMARK VINA RESULT:     -10.1      1.552      6.831
REMARK  Name = 44177328
REMARK  2 active torsions:
REMARK  status: ('A' for Active; 'I' for Inactive)
REMARK    1  A    between atoms: N_1  and  C_15
REMARK    2  A    between atoms: C_6  and  C_23
REMARK                            x       y       z     vdW  Elec       q    Type
REMARK                         _______ _______ _______ _____ _____    ______ ____
ROOT
ATOM      1  N   UNL     1      35.155 -22.891 -14.987  0.00  0.00    -0.286 N 
ATOM      2  N   UNL     1      34.988 -21.680 -17.014  0.00  0.00    -0.386 NA
ATOM      3  N   UNL     1      32.258 -22.310 -17.141  0.00  0.00    -0.246 NA
ATOM      4  N   UNL     1      32.457 -23.517 -15.108  0.00  0.00    -0.340 N 
ATOM      5  C   UNL     1      34.383 -22.424 -16.067  0.00  0.00    +0.214 C 
ATOM      6  C   UNL     1      34.205 -21.257 -18.026  0.00  0.00    +0.135 C 
ATOM      7  C   UNL     1      33.042 -22.733 -16.128  0.00  0.00    +0.166 C 
ATOM      8  C   UNL     1      32.864 -21.567 -18.088  0.00  0.00    +0.185 C 
ATOM      9  H   UNL     1      34.645 -22.998 -14.152  0.00  0.00    +0.155 HD
ATOM     10  H   UNL     1      31.499 -23.741 -15.147  0.00  0.00    +0.144 HD
ATOM     11  H   UNL     1      33.008 -23.838 -14.358  0.00  0.00    +0.144 HD
ENDROOT
BRANCH   1  15
ATOM     12  N   UNL     1      40.428 -24.463 -14.407  0.00  0.00    -0.312 N 
ATOM     13  C   UNL     1      38.236 -24.784 -14.139  0.00  0.00    +0.016 C 
ATOM     14  C   UNL     1      39.193 -23.900 -14.644  0.00  0.00    +0.048 C 
ATOM     15  C   UNL     1      36.520 -23.238 -14.868  0.00  0.00    +0.050 C 
ATOM     16  C   UNL     1      36.873 -24.444 -14.254  0.00  0.00    +0.016 C 
ATOM     17  C   UNL     1      38.854 -22.692 -15.261  0.00  0.00    +0.016 C 
ATOM     18  C   UNL     1      37.496 -22.376 -15.363  0.00  0.00    +0.016 C 
ATOM     19  C   UNL     1      38.939 -25.894 -13.592  0.00  0.00    +0.017 C 
ATOM     20  C   UNL     1      40.284 -25.667 -13.771  0.00  0.00    +0.062 C 
ATOM     21  H   UNL     1      41.289 -24.057 -14.657  0.00  0.00    +0.152 HD
ENDBRANCH   1  15
BRANCH   6  23
ATOM     22  N   UNL     1      36.118 -18.929 -21.003  0.00  0.00    -0.242 NA
ATOM     23  C   UNL     1      34.855 -20.465 -19.038  0.00  0.00    +0.031 C 
ATOM     24  C   UNL     1      34.098 -19.785 -19.987  0.00  0.00    +0.023 C 
ATOM     25  C   UNL     1      36.243 -20.377 -19.070  0.00  0.00    +0.023 C 
ATOM     26  C   UNL     1      34.772 -19.038 -20.939  0.00  0.00    +0.099 C 
ATOM     27  C   UNL     1      36.820 -19.603 -20.065  0.00  0.00    +0.099 C 
ENDBRANCH   6  23
TORSDOF 2
ENDMDL
MODEL 8
REMARK VINA RESULT:     -10.0      8.052     12.559
REMARK  Name = 44177328
REMARK  2 active torsions:
REMARK  status: ('A' for Active; 'I' for Inactive)
REMARK    1  A    between atoms: N_1  and  C_15
REMARK    2  A    between atoms: C_6  and  C_23
REMARK                            x       y       z     vdW  Elec       q    Type
REMARK                         _______ _______ _______ _____ _____    ______ ____
ROOT
ATOM      1  N   UNL     1      34.221 -10.500 -24.573  0.00  0.00    -0.286 N 
ATOM      2  N   UNL     1      34.437 -12.515 -23.348  0.00  0.00    -0.386 NA
ATOM      3  N   UNL     1      33.567 -13.949 -25.596  0.00  0.00    -0.246 NA
ATOM      4  N   UNL     1      33.361 -11.914 -26.798  0.00  0.00    -0.340 N 
ATOM      5  C   UNL     1      34.114 -11.902 -24.504  0.00  0.00    +0.214 C 
ATOM      6  C   UNL     1      34.318 -13.857 -23.335  0.00  0.00    +0.135 C 
ATOM      7  C   UNL     1      33.687 -12.606 -25.609  0.00  0.00    +0.166 C 
ATOM      8  C   UNL     1      33.890 -14.561 -24.440  0.00  0.00    +0.185 C 
ATOM      9  H   UNL     1      34.433 -10.163 -25.473  0.00  0.00    +0.155 HD
ATOM     10  H   UNL     1      33.055 -12.412 -27.590  0.00  0.00    +0.144 HD
ATOM     11  H   UNL     1      33.440 -10.933 -26.833  0.00  0.00    +0.144 HD
ENDROOT
BRANCH   1  15
ATOM     12  N   UNL     1      33.480  -6.640 -20.680  0.00  0.00    -0.312 N 
ATOM     13  C   UNL     1      32.900  -8.529 -21.715  0.00  0.00    +0.016 C 
ATOM     14  C   UNL     1      33.830  -7.486 -21.708  0.00  0.00    +0.048 C 
ATOM     15  C   UNL     1      34.083  -9.483 -23.602  0.00  0.00    +0.050 C 
ATOM     16  C   UNL     1      33.031  -9.546 -22.682  0.00  0.00    +0.016 C 
ATOM     17  C   UNL     1      34.887  -7.411 -22.620  0.00  0.00    +0.016 C 
ATOM     18  C   UNL     1      34.996  -8.431 -23.570  0.00  0.00    +0.016 C 
ATOM     19  C   UNL     1      31.981  -8.278 -20.658  0.00  0.00    +0.017 C 
ATOM     20  C   UNL     1      32.364  -7.109 -20.040  0.00  0.00    +0.062 C 
ATOM     21  H   UNL     1      33.961  -5.815 -20.441  0.00  0.00    +0.152 HD
ENDBRANCH   1  15
BRANCH   6  23
ATOM     22  N   UNL     1      35.326 -15.774 -19.695  0.00  0.00    -0.242 NA
ATOM     23  C   UNL     1      34.661 -14.508 -22.097  0.00  0.00    +0.031 C 
ATOM     24  C   UNL     1      34.428 -13.870 -20.884  0.00  0.00    +0.023 C 
ATOM     25  C   UNL     1      35.224 -15.780 -22.111  0.00  0.00    +0.023 C 
ATOM     26  C   UNL     1      34.776 -14.539 -19.722  0.00  0.00    +0.099 C 
ATOM     27  C   UNL     1      35.537 -16.364 -20.893  0.00  0.00    +0.099 C 
ENDBRANCH   6  23
TORSDOF 2
ENDMDL
MODEL 9
REMARK VINA RESULT:     -10.0      7.130     12.019
REMARK  Name = 44177328
REMARK  2 active torsions:
REMARK  status: ('A' for Active; 'I' for Inactive)
REMARK    1  A    between atoms: N_1  and  C_15
REMARK    2  A    between atoms: C_6  and  C_23
REMARK                            x       y       z     vdW  Elec       q    Type
REMARK                         _______ _______ _______ _____ _____    ______ ____
ROOT
ATOM      1  N   UNL     1      33.812 -14.365 -25.313  0.00  0.00    -0.286 N 
ATOM      2  N   UNL     1      33.273 -12.819 -23.602  0.00  0.00    -0.386 NA
ATOM      3  N   UNL     1      33.908 -10.710 -25.338  0.00  0.00    -0.246 NA
ATOM      4  N   UNL     1      34.439 -12.283 -27.033  0.00  0.00    -0.340 N 
ATOM      5  C   UNL     1      33.693 -13.036 -24.865  0.00  0.00    +0.214 C 
ATOM      6  C   UNL     1      33.176 -11.530 -23.223  0.00  0.00    +0.135 C 
ATOM      7  C   UNL     1      34.004 -12.000 -25.718  0.00  0.00    +0.166 C 
ATOM      8  C   UNL     1      33.488 -10.494 -24.076  0.00  0.00    +0.185 C 
ATOM      9  H   UNL     1      33.659 -14.472 -26.279  0.00  0.00    +0.155 HD
ATOM     10  H   UNL     1      34.663 -11.546 -27.647  0.00  0.00    +0.144 HD
ATOM     11  H   UNL     1      34.518 -13.217 -27.334  0.00  0.00    +0.144 HD
ENDROOT
BRANCH   1  15
ATOM     12  N   UNL     1      35.107 -18.970 -22.534  0.00  0.00    -0.312 N 
ATOM     13  C   UNL     1      35.211 -16.764 -22.846  0.00  0.00    +0.016 C 
ATOM     14  C   UNL     1      34.676 -17.951 -23.353  0.00  0.00    +0.048 C 
ATOM     15  C   UNL     1      34.108 -15.575 -24.646  0.00  0.00    +0.050 C 
ATOM     16  C   UNL     1      34.920 -15.553 -23.507  0.00  0.00    +0.016 C 
ATOM     17  C   UNL     1      33.863 -17.987 -24.490  0.00  0.00    +0.016 C 
ATOM     18  C   UNL     1      33.589 -16.774 -25.129  0.00  0.00    +0.016 C 
ATOM     19  C   UNL     1      35.976 -17.107 -21.697  0.00  0.00    +0.017 C 
ATOM     20  C   UNL     1      35.893 -18.471 -21.531  0.00  0.00    +0.062 C 
ATOM     21  H   UNL     1      34.883 -19.921 -22.655  0.00  0.00    +0.152 HD
ENDBRANCH   1  15
BRANCH   6  23
ATOM     22  N   UNL     1      31.866 -10.858 -19.251  0.00  0.00    -0.242 NA
ATOM     23  C   UNL     1      32.731 -11.302 -21.872  0.00  0.00    +0.031 C 
ATOM     24  C   UNL     1      32.700 -12.351 -20.960  0.00  0.00    +0.023 C 
ATOM     25  C   UNL     1      32.331 -10.031 -21.475  0.00  0.00    +0.023 C 
ATOM     26  C   UNL     1      32.264 -12.080 -19.674  0.00  0.00    +0.099 C 
ATOM     27  C   UNL     1      31.910  -9.863 -20.165  0.00  0.00    +0.099 C 
ENDBRANCH   6  23
TORSDOF 2
ENDMDL
