MODEL 1
REMARK VINA RESULT:     -12.2      0.000      0.000
REMARK  Name = 15985904
REMARK  7 active torsions:
REMARK  status: ('A' for Active; 'I' for Inactive)
REMARK    1  A    between atoms: N_1  and  S_6
REMARK    2  A    between atoms: C_4  and  C_21
REMARK    3  A    between atoms: S_6  and  C_9
REMARK    4  A    between atoms: C_10  and  C_17
REMARK    5  A    between atoms: C_22  and  C_25
REMARK    6  A    between atoms: N_24  and  C_27
REMARK    7  A    between atoms: C_28  and  N_33
REMARK                            x       y       z     vdW  Elec       q    Type
REMARK                         _______ _______ _______ _____ _____    ______ ____
ROOT
ATOM      1  N   UNL     1      35.407 -19.147 -20.587  0.00  0.00    -0.167 N 
ATOM      2  C   UNL     1      35.999 -19.863 -19.630  0.00  0.00    +0.089 C 
ATOM      3  C   UNL     1      34.083 -19.292 -20.640  0.00  0.00    +0.089 C 
ATOM      4  C   UNL     1      34.981 -20.539 -18.994  0.00  0.00    +0.018 C 
ATOM      5  C   UNL     1      33.769 -20.178 -19.633  0.00  0.00    +0.019 C 
ENDROOT
BRANCH   1   6
ATOM      6  S   UNL     1      36.282 -18.119 -21.667  0.00  0.00    +0.080 S 
ATOM      7  O   UNL     1      36.057 -18.742 -22.959  0.00  0.00    -0.149 OA
ATOM      8  O   UNL     1      37.606 -17.976 -21.092  0.00  0.00    -0.149 OA
BRANCH   6   9
ATOM      9  C   UNL     1      35.482 -16.569 -21.591  0.00  0.00    +0.126 C 
ATOM     10  C   UNL     1      34.207 -14.091 -21.469  0.00  0.00    +0.003 C 
ATOM     11  C   UNL     1      35.123 -15.911 -22.767  0.00  0.00    +0.020 C 
ATOM     12  C   UNL     1      35.203 -15.988 -20.354  0.00  0.00    +0.020 C 
ATOM     13  C   UNL     1      34.486 -14.672 -22.706  0.00  0.00    +0.001 C 
ATOM     14  C   UNL     1      34.566 -14.749 -20.293  0.00  0.00    +0.001 C 
BRANCH  10  17
ATOM     15  N   UNL     1      32.338 -11.155 -20.687  0.00  0.00    -0.208 N 
ATOM     16  N   UNL     1      32.791 -10.719 -21.875  0.00  0.00    -0.176 NA
ATOM     17  C   UNL     1      33.550 -12.815 -21.407  0.00  0.00    +0.037 C 
ATOM     18  C   UNL     1      32.766 -12.408 -20.359  0.00  0.00    +0.086 C 
ATOM     19  C   UNL     1      33.532 -11.741 -22.309  0.00  0.00    +0.119 C 
ATOM     20  C   UNL     1      31.482 -10.307 -19.892  0.00  0.00    +0.140 C 
ENDBRANCH  10  17
ENDBRANCH   6   9
ENDBRANCH   1   6
BRANCH   4  21
ATOM     21  C   UNL     1      35.151 -21.422 -17.907  0.00  0.00    +0.006 C 
ATOM     22  C   UNL     1      36.072 -21.362 -16.904  0.00  0.00    +0.058 C 
BRANCH  22  25
ATOM     23  O   UNL     1      35.287 -23.296 -15.764  0.00  0.00    -0.270 OA
ATOM     24  N   UNL     1      37.169 -22.154 -14.947  0.00  0.00    -0.279 N 
ATOM     25  C   UNL     1      36.113 -22.391 -15.817  0.00  0.00    +0.250 C 
ATOM     26  H   UNL     1      37.733 -21.372 -15.149  0.00  0.00    +0.155 HD
BRANCH  24  27
ATOM     27  C   UNL     1      37.527 -22.910 -13.804  0.00  0.00    +0.064 C 
ATOM     28  C   UNL     1      38.588 -23.799 -13.856  0.00  0.00    +0.055 C 
ATOM     29  C   UNL     1      36.790 -22.735 -12.644  0.00  0.00    +0.016 C 
ATOM     30  C   UNL     1      38.921 -24.533 -12.718  0.00  0.00    +0.015 C 
ATOM     31  C   UNL     1      37.123 -23.468 -11.505  0.00  0.00    +0.001 C 
ATOM     32  C   UNL     1      38.189 -24.367 -11.542  0.00  0.00    +0.001 C 
BRANCH  28  33
ATOM     33  N   UNL     1      39.345 -23.982 -15.035  0.00  0.00    -0.356 N 
ATOM     34  H   UNL     1      39.752 -23.205 -15.483  0.00  0.00    +0.142 HD
ATOM     35  H   UNL     1      39.466 -24.884 -15.408  0.00  0.00    +0.142 HD
ENDBRANCH  28  33
ENDBRANCH  24  27
ENDBRANCH  22  25
ENDBRANCH   4  21
TORSDOF 7
ENDMDL
MODEL 2
REMARK VINA RESULT:     -12.2      2.795     12.023
REMARK  Name = 15985904
REMARK  7 active torsions:
REMARK  status: ('A' for Active; 'I' for Inactive)
REMARK    1  A    between atoms: N_1  and  S_6
REMARK    2  A    between atoms: C_4  and  C_21
REMARK    3  A    between atoms: S_6  and  C_9
REMARK    4  A    between atoms: C_10  and  C_17
REMARK    5  A    between atoms: C_22  and  C_25
REMARK    6  A    between atoms: N_24  and  C_27
REMARK    7  A    between atoms: C_28  and  N_33
REMARK                            x       y       z     vdW  Elec       q    Type
REMARK                         _______ _______ _______ _____ _____    ______ ____
ROOT
ATOM      1  N   UNL     1      35.464 -16.522 -21.507  0.00  0.00    -0.167 N 
ATOM      2  C   UNL     1      35.285 -15.536 -22.387  0.00  0.00    +0.089 C 
ATOM      3  C   UNL     1      35.225 -16.178 -20.242  0.00  0.00    +0.089 C 
ATOM      4  C   UNL     1      34.892 -14.446 -21.642  0.00  0.00    +0.018 C 
ATOM      5  C   UNL     1      34.855 -14.852 -20.285  0.00  0.00    +0.019 C 
ENDROOT
BRANCH   1   6
ATOM      6  S   UNL     1      35.965 -18.111 -21.969  0.00  0.00    +0.080 S 
ATOM      7  O   UNL     1      37.413 -18.002 -21.982  0.00  0.00    -0.149 OA
ATOM      8  O   UNL     1      35.199 -18.440 -23.156  0.00  0.00    -0.149 OA
BRANCH   6   9
ATOM      9  C   UNL     1      35.446 -19.161 -20.674  0.00  0.00    +0.126 C 
ATOM     10  C   UNL     1      34.617 -20.841 -18.607  0.00  0.00    +0.003 C 
ATOM     11  C   UNL     1      36.391 -19.767 -19.847  0.00  0.00    +0.020 C 
ATOM     12  C   UNL     1      34.087 -19.395 -20.468  0.00  0.00    +0.020 C 
ATOM     13  C   UNL     1      35.977 -20.607 -18.814  0.00  0.00    +0.001 C 
ATOM     14  C   UNL     1      33.672 -20.235 -19.435  0.00  0.00    +0.001 C 
BRANCH  10  17
ATOM     15  N   UNL     1      34.240 -22.966 -15.767  0.00  0.00    -0.208 N 
ATOM     16  N   UNL     1      32.950 -23.006 -16.142  0.00  0.00    -0.176 NA
ATOM     17  C   UNL     1      34.190 -21.706 -17.543  0.00  0.00    +0.037 C 
ATOM     18  C   UNL     1      35.026 -22.198 -16.574  0.00  0.00    +0.086 C 
ATOM     19  C   UNL     1      32.928 -22.232 -17.230  0.00  0.00    +0.119 C 
ATOM     20  C   UNL     1      34.669 -23.698 -14.599  0.00  0.00    +0.140 C 
ENDBRANCH  10  17
ENDBRANCH   6   9
ENDBRANCH   1   6
BRANCH   4  21
ATOM     21  C   UNL     1      34.590 -13.172 -22.167  0.00  0.00    +0.006 C 
ATOM     22  C   UNL     1      34.229 -12.846 -23.441  0.00  0.00    +0.058 C 
BRANCH  22  25
ATOM     23  O   UNL     1      33.981 -11.073 -25.006  0.00  0.00    -0.270 OA
ATOM     24  N   UNL     1      33.641 -10.656 -22.721  0.00  0.00    -0.279 N 
ATOM     25  C   UNL     1      33.940 -11.430 -23.834  0.00  0.00    +0.250 C 
ATOM     26  H   UNL     1      33.657 -11.119 -21.850  0.00  0.00    +0.155 HD
BRANCH  24  27
ATOM     27  C   UNL     1      33.317  -9.278 -22.694  0.00  0.00    +0.064 C 
ATOM     28  C   UNL     1      34.268  -8.328 -23.031  0.00  0.00    +0.055 C 
ATOM     29  C   UNL     1      32.032  -8.912 -22.326  0.00  0.00    +0.016 C 
ATOM     30  C   UNL     1      33.925  -6.977 -22.998  0.00  0.00    +0.015 C 
ATOM     31  C   UNL     1      31.689  -7.561 -22.293  0.00  0.00    +0.001 C 
ATOM     32  C   UNL     1      32.636  -6.593 -22.628  0.00  0.00    +0.001 C 
BRANCH  28  33
ATOM     33  N   UNL     1      35.579  -8.693 -23.409  0.00  0.00    -0.356 N 
ATOM     34  H   UNL     1      35.798  -9.640 -23.572  0.00  0.00    +0.142 HD
ATOM     35  H   UNL     1      36.273  -8.003 -23.510  0.00  0.00    +0.142 HD
ENDBRANCH  28  33
ENDBRANCH  24  27
ENDBRANCH  22  25
ENDBRANCH   4  21
TORSDOF 7
ENDMDL
MODEL 3
REMARK VINA RESULT:     -11.2      4.566     10.162
REMARK  Name = 15985904
REMARK  7 active torsions:
REMARK  status: ('A' for Active; 'I' for Inactive)
REMARK    1  A    between atoms: N_1  and  S_6
REMARK    2  A    between atoms: C_4  and  C_21
REMARK    3  A    between atoms: S_6  and  C_9
REMARK    4  A    between atoms: C_10  and  C_17
REMARK    5  A    between atoms: C_22  and  C_25
REMARK    6  A    between atoms: N_24  and  C_27
REMARK    7  A    between atoms: C_28  and  N_33
REMARK                            x       y       z     vdW  Elec       q    Type
REMARK                         _______ _______ _______ _____ _____    ______ ____
ROOT
ATOM      1  N   UNL     1      36.027 -22.835 -14.641  0.00  0.00    -0.167 N 
ATOM      2  C   UNL     1      35.764 -22.426 -15.882  0.00  0.00    +0.089 C 
ATOM      3  C   UNL     1      37.134 -22.311 -14.114  0.00  0.00    +0.089 C 
ATOM      4  C   UNL     1      36.782 -21.556 -16.206  0.00  0.00    +0.018 C 
ATOM      5  C   UNL     1      37.649 -21.483 -15.088  0.00  0.00    +0.019 C 
ENDROOT
BRANCH   1   6
ATOM      6  S   UNL     1      35.020 -23.951 -13.787  0.00  0.00    +0.080 S 
ATOM      7  O   UNL     1      35.185 -23.543 -12.404  0.00  0.00    -0.149 OA
ATOM      8  O   UNL     1      35.398 -25.269 -14.260  0.00  0.00    -0.149 OA
BRANCH   6   9
ATOM      9  C   UNL     1      33.392 -23.622 -14.328  0.00  0.00    +0.126 C 
ATOM     10  C   UNL     1      30.792 -23.097 -15.191  0.00  0.00    +0.003 C 
ATOM     11  C   UNL     1      33.179 -22.860 -15.476  0.00  0.00    +0.020 C 
ATOM     12  C   UNL     1      32.305 -24.123 -13.611  0.00  0.00    +0.020 C 
ATOM     13  C   UNL     1      31.879 -22.597 -15.907  0.00  0.00    +0.001 C 
ATOM     14  C   UNL     1      31.005 -23.860 -14.043  0.00  0.00    +0.001 C 
BRANCH  10  17
ATOM     15  N   UNL     1      27.442 -21.996 -15.728  0.00  0.00    -0.208 N 
ATOM     16  N   UNL     1      27.495 -22.806 -16.799  0.00  0.00    -0.176 NA
ATOM     17  C   UNL     1      29.453 -22.826 -15.635  0.00  0.00    +0.037 C 
ATOM     18  C   UNL     1      28.592 -21.972 -14.996  0.00  0.00    +0.086 C 
ATOM     19  C   UNL     1      28.730 -23.310 -16.735  0.00  0.00    +0.119 C 
ATOM     20  C   UNL     1      26.235 -21.252 -15.452  0.00  0.00    +0.140 C 
ENDBRANCH  10  17
ENDBRANCH   6   9
ENDBRANCH   1   6
BRANCH   4  21
ATOM     21  C   UNL     1      36.907 -20.878 -17.437  0.00  0.00    +0.006 C 
ATOM     22  C   UNL     1      35.968 -20.715 -18.412  0.00  0.00    +0.058 C 
BRANCH  22  25
ATOM     23  O   UNL     1      37.342 -20.089 -20.250  0.00  0.00    -0.270 OA
ATOM     24  N   UNL     1      35.202 -19.148 -20.030  0.00  0.00    -0.279 N 
ATOM     25  C   UNL     1      36.270 -19.959 -19.669  0.00  0.00    +0.250 C 
ATOM     26  H   UNL     1      34.415 -19.173 -19.438  0.00  0.00    +0.155 HD
BRANCH  24  27
ATOM     27  C   UNL     1      35.117 -18.289 -21.153  0.00  0.00    +0.064 C 
ATOM     28  C   UNL     1      35.311 -16.925 -21.008  0.00  0.00    +0.055 C 
ATOM     29  C   UNL     1      34.837 -18.850 -22.389  0.00  0.00    +0.016 C 
ATOM     30  C   UNL     1      35.222 -16.100 -22.129  0.00  0.00    +0.015 C 
ATOM     31  C   UNL     1      34.748 -18.024 -23.510  0.00  0.00    +0.001 C 
ATOM     32  C   UNL     1      34.940 -16.649 -23.380  0.00  0.00    +0.001 C 
BRANCH  28  33
ATOM     33  N   UNL     1      35.600 -16.347 -19.752  0.00  0.00    -0.356 N 
ATOM     34  H   UNL     1      36.329 -15.690 -19.669  0.00  0.00    +0.142 HD
ATOM     35  H   UNL     1      35.072 -16.599 -18.961  0.00  0.00    +0.142 HD
ENDBRANCH  28  33
ENDBRANCH  24  27
ENDBRANCH  22  25
ENDBRANCH   4  21
TORSDOF 7
ENDMDL
MODEL 4
REMARK VINA RESULT:     -11.2      2.242     11.471
REMARK  Name = 15985904
REMARK  7 active torsions:
REMARK  status: ('A' for Active; 'I' for Inactive)
REMARK    1  A    between atoms: N_1  and  S_6
REMARK    2  A    between atoms: C_4  and  C_21
REMARK    3  A    between atoms: S_6  and  C_9
REMARK    4  A    between atoms: C_10  and  C_17
REMARK    5  A    between atoms: C_22  and  C_25
REMARK    6  A    between atoms: N_24  and  C_27
REMARK    7  A    between atoms: C_28  and  N_33
REMARK                            x       y       z     vdW  Elec       q    Type
REMARK                         _______ _______ _______ _____ _____    ______ ____
ROOT
ATOM      1  N   UNL     1      34.958 -20.578 -19.327  0.00  0.00    -0.167 N 
ATOM      2  C   UNL     1      34.401 -19.552 -19.971  0.00  0.00    +0.089 C 
ATOM      3  C   UNL     1      36.287 -20.519 -19.248  0.00  0.00    +0.089 C 
ATOM      4  C   UNL     1      35.450 -18.744 -20.351  0.00  0.00    +0.018 C 
ATOM      5  C   UNL     1      36.644 -19.356 -19.894  0.00  0.00    +0.019 C 
ENDROOT
BRANCH   1   6
ATOM      6  S   UNL     1      34.034 -21.874 -18.652  0.00  0.00    +0.080 S 
ATOM      7  O   UNL     1      34.365 -22.992 -19.517  0.00  0.00    -0.149 OA
ATOM      8  O   UNL     1      32.681 -21.368 -18.517  0.00  0.00    -0.149 OA
BRANCH   6   9
ATOM      9  C   UNL     1      34.684 -22.130 -17.052  0.00  0.00    +0.126 C 
ATOM     10  C   UNL     1      35.722 -22.541 -14.495  0.00  0.00    +0.003 C 
ATOM     11  C   UNL     1      35.952 -21.649 -16.729  0.00  0.00    +0.020 C 
ATOM     12  C   UNL     1      33.934 -22.816 -16.096  0.00  0.00    +0.020 C 
ATOM     13  C   UNL     1      36.472 -21.855 -15.451  0.00  0.00    +0.001 C 
ATOM     14  C   UNL     1      34.453 -23.022 -14.818  0.00  0.00    +0.001 C 
BRANCH  10  17
ATOM     15  N   UNL     1      36.380 -23.228 -11.057  0.00  0.00    -0.208 N 
ATOM     16  N   UNL     1      37.648 -22.924 -11.383  0.00  0.00    -0.176 NA
ATOM     17  C   UNL     1      36.257 -22.753 -13.180  0.00  0.00    +0.037 C 
ATOM     18  C   UNL     1      35.506 -23.141 -12.100  0.00  0.00    +0.086 C 
ATOM     19  C   UNL     1      37.565 -22.635 -12.684  0.00  0.00    +0.119 C 
ATOM     20  C   UNL     1      36.060 -23.604  -9.701  0.00  0.00    +0.140 C 
ENDBRANCH  10  17
ENDBRANCH   6   9
ENDBRANCH   1   6
BRANCH   4  21
ATOM     21  C   UNL     1      35.324 -17.534 -21.065  0.00  0.00    +0.006 C 
ATOM     22  C   UNL     1      35.148 -16.275 -20.571  0.00  0.00    +0.058 C 
BRANCH  22  25
ATOM     23  O   UNL     1      35.656 -15.028 -22.531  0.00  0.00    -0.270 OA
ATOM     24  N   UNL     1      34.160 -14.144 -20.952  0.00  0.00    -0.279 N 
ATOM     25  C   UNL     1      35.032 -15.089 -21.477  0.00  0.00    +0.250 C 
ATOM     26  H   UNL     1      33.747 -14.366 -20.085  0.00  0.00    +0.155 HD
BRANCH  24  27
ATOM     27  C   UNL     1      33.799 -12.898 -21.520  0.00  0.00    +0.064 C 
ATOM     28  C   UNL     1      32.765 -12.154 -20.975  0.00  0.00    +0.055 C 
ATOM     29  C   UNL     1      34.505 -12.451 -22.625  0.00  0.00    +0.016 C 
ATOM     30  C   UNL     1      32.427 -10.930 -21.552  0.00  0.00    +0.015 C 
ATOM     31  C   UNL     1      34.167 -11.227 -23.202  0.00  0.00    +0.001 C 
ATOM     32  C   UNL     1      33.128 -10.466 -22.666  0.00  0.00    +0.001 C 
BRANCH  28  33
ATOM     33  N   UNL     1      32.043 -12.602 -19.847  0.00  0.00    -0.356 N 
ATOM     34  H   UNL     1      31.307 -12.056 -19.486  0.00  0.00    +0.142 HD
ATOM     35  H   UNL     1      32.274 -13.459 -19.423  0.00  0.00    +0.142 HD
ENDBRANCH  28  33
ENDBRANCH  24  27
ENDBRANCH  22  25
ENDBRANCH   4  21
TORSDOF 7
ENDMDL
MODEL 5
REMARK VINA RESULT:     -10.9      2.857      3.574
REMARK  Name = 15985904
REMARK  7 active torsions:
REMARK  status: ('A' for Active; 'I' for Inactive)
REMARK    1  A    between atoms: N_1  and  S_6
REMARK    2  A    between atoms: C_4  and  C_21
REMARK    3  A    between atoms: S_6  and  C_9
REMARK    4  A    between atoms: C_10  and  C_17
REMARK    5  A    between atoms: C_22  and  C_25
REMARK    6  A    between atoms: N_24  and  C_27
REMARK    7  A    between atoms: C_28  and  N_33
REMARK                            x       y       z     vdW  Elec       q    Type
REMARK                         _______ _______ _______ _____ _____    ______ ____
ROOT
ATOM      1  N   UNL     1      35.056 -18.697 -21.227  0.00  0.00    -0.167 N 
ATOM      2  C   UNL     1      35.438 -19.456 -20.200  0.00  0.00    +0.089 C 
ATOM      3  C   UNL     1      33.757 -18.779 -21.516  0.00  0.00    +0.089 C 
ATOM      4  C   UNL     1      34.296 -20.095 -19.770  0.00  0.00    +0.018 C 
ATOM      5  C   UNL     1      33.232 -19.667 -20.604  0.00  0.00    +0.019 C 
ENDROOT
BRANCH   1   6
ATOM      6  S   UNL     1      36.152 -17.692 -22.110  0.00  0.00    +0.080 S 
ATOM      7  O   UNL     1      36.123 -18.272 -23.440  0.00  0.00    -0.149 OA
ATOM      8  O   UNL     1      37.363 -17.631 -21.313  0.00  0.00    -0.149 OA
BRANCH   6   9
ATOM      9  C   UNL     1      35.426 -16.104 -22.123  0.00  0.00    +0.126 C 
ATOM     10  C   UNL     1      34.265 -13.568 -22.143  0.00  0.00    +0.003 C 
ATOM     11  C   UNL     1      35.201 -15.430 -20.922  0.00  0.00    +0.020 C 
ATOM     12  C   UNL     1      35.071 -15.509 -23.333  0.00  0.00    +0.020 C 
ATOM     13  C   UNL     1      34.621 -14.163 -20.933  0.00  0.00    +0.001 C 
ATOM     14  C   UNL     1      34.490 -14.241 -23.344  0.00  0.00    +0.001 C 
BRANCH  10  17
ATOM     15  N   UNL     1      33.233 -10.199 -22.702  0.00  0.00    -0.208 N 
ATOM     16  N   UNL     1      32.377 -10.441 -21.695  0.00  0.00    -0.176 NA
ATOM     17  C   UNL     1      33.667 -12.262 -22.154  0.00  0.00    +0.037 C 
ATOM     18  C   UNL     1      34.030 -11.260 -23.017  0.00  0.00    +0.086 C 
ATOM     19  C   UNL     1      32.649 -11.706 -21.365  0.00  0.00    +0.119 C 
ATOM     20  C   UNL     1      33.241  -8.904 -23.340  0.00  0.00    +0.140 C 
ENDBRANCH  10  17
ENDBRANCH   6   9
ENDBRANCH   1   6
BRANCH   4  21
ATOM     21  C   UNL     1      34.232 -21.004 -18.694  0.00  0.00    +0.006 C 
ATOM     22  C   UNL     1      33.128 -21.471 -18.044  0.00  0.00    +0.058 C 
BRANCH  22  25
ATOM     23  O   UNL     1      34.233 -23.148 -16.771  0.00  0.00    -0.270 OA
ATOM     24  N   UNL     1      32.107 -22.405 -16.109  0.00  0.00    -0.279 N 
ATOM     25  C   UNL     1      33.240 -22.442 -16.910  0.00  0.00    +0.250 C 
ATOM     26  H   UNL     1      31.403 -21.770 -16.378  0.00  0.00    +0.155 HD
BRANCH  24  27
ATOM     27  C   UNL     1      31.848 -23.176 -14.950  0.00  0.00    +0.064 C 
ATOM     28  C   UNL     1      32.711 -23.124 -13.867  0.00  0.00    +0.055 C 
ATOM     29  C   UNL     1      30.717 -23.976 -14.932  0.00  0.00    +0.016 C 
ATOM     30  C   UNL     1      32.435 -23.893 -12.737  0.00  0.00    +0.015 C 
ATOM     31  C   UNL     1      30.441 -24.745 -13.802  0.00  0.00    +0.001 C 
ATOM     32  C   UNL     1      31.301 -24.704 -12.704  0.00  0.00    +0.001 C 
BRANCH  28  33
ATOM     33  N   UNL     1      33.865 -22.309 -13.877  0.00  0.00    -0.356 N 
ATOM     34  H   UNL     1      34.722 -22.675 -14.196  0.00  0.00    +0.142 HD
ATOM     35  H   UNL     1      33.812 -21.377 -13.566  0.00  0.00    +0.142 HD
ENDBRANCH  28  33
ENDBRANCH  24  27
ENDBRANCH  22  25
ENDBRANCH   4  21
TORSDOF 7
ENDMDL
MODEL 6
REMARK VINA RESULT:     -10.5      4.432     13.534
REMARK  Name = 15985904
REMARK  7 active torsions:
REMARK  status: ('A' for Active; 'I' for Inactive)
REMARK    1  A    between atoms: N_1  and  S_6
REMARK    2  A    between atoms: C_4  and  C_21
REMARK    3  A    between atoms: S_6  and  C_9
REMARK    4  A    between atoms: C_10  and  C_17
REMARK    5  A    between atoms: C_22  and  C_25
REMARK    6  A    between atoms: N_24  and  C_27
REMARK    7  A    between atoms: C_28  and  N_33
REMARK                            x       y       z     vdW  Elec       q    Type
REMARK                         _______ _______ _______ _____ _____    ______ ____
ROOT
ATOM      1  N   UNL     1      34.023 -13.803 -23.984  0.00  0.00    -0.167 N 
ATOM      2  C   UNL     1      34.287 -12.618 -24.534  0.00  0.00    +0.089 C 
ATOM      3  C   UNL     1      33.451 -13.735 -22.782  0.00  0.00    +0.089 C 
ATOM      4  C   UNL     1      33.853 -11.683 -23.619  0.00  0.00    +0.018 C 
ATOM      5  C   UNL     1      33.324 -12.390 -22.511  0.00  0.00    +0.019 C 
ENDROOT
BRANCH   1   6
ATOM      6  S   UNL     1      34.391 -15.302 -24.763  0.00  0.00    +0.080 S 
ATOM      7  O   UNL     1      35.597 -14.990 -25.510  0.00  0.00    -0.149 OA
ATOM      8  O   UNL     1      33.164 -15.725 -25.411  0.00  0.00    -0.149 OA
BRANCH   6   9
ATOM      9  C   UNL     1      34.746 -16.426 -23.476  0.00  0.00    +0.126 C 
ATOM     10  C   UNL     1      35.311 -18.222 -21.417  0.00  0.00    +0.003 C 
ATOM     11  C   UNL     1      34.431 -17.777 -23.623  0.00  0.00    +0.020 C 
ATOM     12  C   UNL     1      35.344 -15.974 -22.299  0.00  0.00    +0.020 C 
ATOM     13  C   UNL     1      34.713 -18.674 -22.594  0.00  0.00    +0.001 C 
ATOM     14  C   UNL     1      35.626 -16.872 -21.270  0.00  0.00    +0.001 C 
BRANCH  10  17
ATOM     15  N   UNL     1      35.341 -20.677 -18.830  0.00  0.00    -0.208 N 
ATOM     16  N   UNL     1      36.649 -20.377 -18.751  0.00  0.00    -0.176 NA
ATOM     17  C   UNL     1      35.602 -19.147 -20.358  0.00  0.00    +0.037 C 
ATOM     18  C   UNL     1      34.668 -19.967 -19.779  0.00  0.00    +0.086 C 
ATOM     19  C   UNL     1      36.800 -19.440 -19.690  0.00  0.00    +0.119 C 
ATOM     20  C   UNL     1      34.782 -21.676 -17.950  0.00  0.00    +0.140 C 
ENDBRANCH  10  17
ENDBRANCH   6   9
ENDBRANCH   1   6
BRANCH   4  21
ATOM     21  C   UNL     1      33.935 -10.285 -23.788  0.00  0.00    +0.006 C 
ATOM     22  C   UNL     1      33.217  -9.313 -23.157  0.00  0.00    +0.058 C 
BRANCH  22  25
ATOM     23  O   UNL     1      34.471  -7.465 -23.974  0.00  0.00    -0.270 OA
ATOM     24  N   UNL     1      32.332  -7.106 -23.075  0.00  0.00    -0.279 N 
ATOM     25  C   UNL     1      33.432  -7.862 -23.458  0.00  0.00    +0.250 C 
ATOM     26  H   UNL     1      31.581  -7.601 -22.672  0.00  0.00    +0.155 HD
BRANCH  24  27
ATOM     27  C   UNL     1      32.167  -5.705 -23.199  0.00  0.00    +0.064 C 
ATOM     28  C   UNL     1      32.207  -4.893 -22.077  0.00  0.00    +0.055 C 
ATOM     29  C   UNL     1      31.968  -5.177 -24.465  0.00  0.00    +0.016 C 
ATOM     30  C   UNL     1      32.042  -3.516 -22.224  0.00  0.00    +0.015 C 
ATOM     31  C   UNL     1      31.803  -3.799 -24.612  0.00  0.00    +0.001 C 
ATOM     32  C   UNL     1      31.840  -2.969 -23.492  0.00  0.00    +0.001 C 
BRANCH  28  33
ATOM     33  N   UNL     1      32.412  -5.425 -20.785  0.00  0.00    -0.356 N 
ATOM     34  H   UNL     1      32.128  -4.914 -19.992  0.00  0.00    +0.142 HD
ATOM     35  H   UNL     1      32.838  -6.305 -20.676  0.00  0.00    +0.142 HD
ENDBRANCH  28  33
ENDBRANCH  24  27
ENDBRANCH  22  25
ENDBRANCH   4  21
TORSDOF 7
ENDMDL
MODEL 7
REMARK VINA RESULT:     -10.4      4.464      7.481
REMARK  Name = 15985904
REMARK  7 active torsions:
REMARK  status: ('A' for Active; 'I' for Inactive)
REMARK    1  A    between atoms: N_1  and  S_6
REMARK    2  A    between atoms: C_4  and  C_21
REMARK    3  A    between atoms: S_6  and  C_9
REMARK    4  A    between atoms: C_10  and  C_17
REMARK    5  A    between atoms: C_22  and  C_25
REMARK    6  A    between atoms: N_24  and  C_27
REMARK    7  A    between atoms: C_28  and  N_33
REMARK                            x       y       z     vdW  Elec       q    Type
REMARK                         _______ _______ _______ _____ _____    ______ ____
ROOT
ATOM      1  N   UNL     1      34.085 -12.338 -24.628  0.00  0.00    -0.167 N 
ATOM      2  C   UNL     1      34.484 -12.716 -23.413  0.00  0.00    +0.089 C 
ATOM      3  C   UNL     1      33.662 -13.339 -25.401  0.00  0.00    +0.089 C 
ATOM      4  C   UNL     1      34.311 -14.082 -23.377  0.00  0.00    +0.018 C 
ATOM      5  C   UNL     1      33.790 -14.476 -24.635  0.00  0.00    +0.019 C 
ENDROOT
BRANCH   1   6
ATOM      6  S   UNL     1      34.114 -10.693 -25.156  0.00  0.00    +0.080 S 
ATOM      7  O   UNL     1      33.018 -10.638 -26.106  0.00  0.00    -0.149 OA
ATOM      8  O   UNL     1      35.488 -10.422 -25.535  0.00  0.00    -0.149 OA
BRANCH   6   9
ATOM      9  C   UNL     1      33.740  -9.739 -23.741  0.00  0.00    +0.126 C 
ATOM     10  C   UNL     1      33.141  -8.215 -21.483  0.00  0.00    +0.003 C 
ATOM     11  C   UNL     1      32.816 -10.209 -22.808  0.00  0.00    +0.020 C 
ATOM     12  C   UNL     1      34.365  -8.508 -23.545  0.00  0.00    +0.020 C 
ATOM     13  C   UNL     1      32.516  -9.447 -21.679  0.00  0.00    +0.001 C 
ATOM     14  C   UNL     1      34.065  -7.746 -22.416  0.00  0.00    +0.001 C 
BRANCH  10  17
ATOM     15  N   UNL     1      32.592  -5.720 -18.994  0.00  0.00    -0.208 N 
ATOM     16  N   UNL     1      32.181  -6.757 -18.244  0.00  0.00    -0.176 NA
ATOM     17  C   UNL     1      32.833  -7.431 -20.320  0.00  0.00    +0.037 C 
ATOM     18  C   UNL     1      32.993  -6.071 -20.249  0.00  0.00    +0.086 C 
ATOM     19  C   UNL     1      32.331  -7.800 -19.063  0.00  0.00    +0.119 C 
ATOM     20  C   UNL     1      32.576  -4.386 -18.441  0.00  0.00    +0.140 C 
ENDBRANCH  10  17
ENDBRANCH   6   9
ENDBRANCH   1   6
BRANCH   4  21
ATOM     21  C   UNL     1      34.607 -14.907 -22.272  0.00  0.00    +0.006 C 
ATOM     22  C   UNL     1      34.981 -16.218 -22.272  0.00  0.00    +0.058 C 
BRANCH  22  25
ATOM     23  O   UNL     1      35.611 -16.357 -19.983  0.00  0.00    -0.270 OA
ATOM     24  N   UNL     1      35.069 -18.317 -21.155  0.00  0.00    -0.279 N 
ATOM     25  C   UNL     1      35.261 -16.951 -20.996  0.00  0.00    +0.250 C 
ATOM     26  H   UNL     1      34.785 -18.617 -22.049  0.00  0.00    +0.155 HD
BRANCH  24  27
ATOM     27  C   UNL     1      35.236 -19.328 -20.176  0.00  0.00    +0.064 C 
ATOM     28  C   UNL     1      34.140 -20.029 -19.700  0.00  0.00    +0.055 C 
ATOM     29  C   UNL     1      36.516 -19.591 -19.715  0.00  0.00    +0.016 C 
ATOM     30  C   UNL     1      34.329 -21.019 -18.737  0.00  0.00    +0.015 C 
ATOM     31  C   UNL     1      36.705 -20.581 -18.752  0.00  0.00    +0.001 C 
ATOM     32  C   UNL     1      35.612 -21.295 -18.262  0.00  0.00    +0.001 C 
BRANCH  28  33
ATOM     33  N   UNL     1      32.833 -19.768 -20.167  0.00  0.00    -0.356 N 
ATOM     34  H   UNL     1      32.144 -20.470 -20.118  0.00  0.00    +0.142 HD
ATOM     35  H   UNL     1      32.610 -18.885 -20.540  0.00  0.00    +0.142 HD
ENDBRANCH  28  33
ENDBRANCH  24  27
ENDBRANCH  22  25
ENDBRANCH   4  21
TORSDOF 7
ENDMDL
MODEL 8
REMARK VINA RESULT:     -10.3      5.184     10.068
REMARK  Name = 15985904
REMARK  7 active torsions:
REMARK  status: ('A' for Active; 'I' for Inactive)
REMARK    1  A    between atoms: N_1  and  S_6
REMARK    2  A    between atoms: C_4  and  C_21
REMARK    3  A    between atoms: S_6  and  C_9
REMARK    4  A    between atoms: C_10  and  C_17
REMARK    5  A    between atoms: C_22  and  C_25
REMARK    6  A    between atoms: N_24  and  C_27
REMARK    7  A    between atoms: C_28  and  N_33
REMARK                            x       y       z     vdW  Elec       q    Type
REMARK                         _______ _______ _______ _____ _____    ______ ____
ROOT
ATOM      1  N   UNL     1      34.270 -23.171 -14.669  0.00  0.00    -0.167 N 
ATOM      2  C   UNL     1      34.036 -22.752 -15.913  0.00  0.00    +0.089 C 
ATOM      3  C   UNL     1      35.519 -22.971 -14.249  0.00  0.00    +0.089 C 
ATOM      4  C   UNL     1      35.232 -22.230 -16.356  0.00  0.00    +0.018 C 
ATOM      5  C   UNL     1      36.170 -22.369 -15.303  0.00  0.00    +0.019 C 
ENDROOT
BRANCH   1   6
ATOM      6  S   UNL     1      33.056 -23.909 -13.684  0.00  0.00    +0.080 S 
ATOM      7  O   UNL     1      33.320 -23.350 -12.370  0.00  0.00    -0.149 OA
ATOM      8  O   UNL     1      33.138 -25.332 -13.954  0.00  0.00    -0.149 OA
BRANCH   6   9
ATOM      9  C   UNL     1      31.531 -23.323 -14.299  0.00  0.00    +0.126 C 
ATOM     10  C   UNL     1      29.095 -22.385 -15.283  0.00  0.00    +0.003 C 
ATOM     11  C   UNL     1      30.723 -24.158 -15.071  0.00  0.00    +0.020 C 
ATOM     12  C   UNL     1      31.121 -22.019 -14.020  0.00  0.00    +0.020 C 
ATOM     13  C   UNL     1      29.505 -23.689 -15.563  0.00  0.00    +0.001 C 
ATOM     14  C   UNL     1      29.903 -21.550 -14.512  0.00  0.00    +0.001 C 
BRANCH  10  17
ATOM     15  N   UNL     1      26.306 -21.214 -17.174  0.00  0.00    -0.208 N 
ATOM     16  N   UNL     1      25.693 -21.165 -15.978  0.00  0.00    -0.176 NA
ATOM     17  C   UNL     1      27.841 -21.903 -15.790  0.00  0.00    +0.037 C 
ATOM     18  C   UNL     1      27.596 -21.651 -17.116  0.00  0.00    +0.086 C 
ATOM     19  C   UNL     1      26.640 -21.588 -15.137  0.00  0.00    +0.119 C 
ATOM     20  C   UNL     1      25.587 -20.823 -18.363  0.00  0.00    +0.140 C 
ENDBRANCH  10  17
ENDBRANCH   6   9
ENDBRANCH   1   6
BRANCH   4  21
ATOM     21  C   UNL     1      35.447 -21.667 -17.631  0.00  0.00    +0.006 C 
ATOM     22  C   UNL     1      36.332 -20.693 -17.988  0.00  0.00    +0.058 C 
BRANCH  22  25
ATOM     23  O   UNL     1      37.227 -20.705 -20.191  0.00  0.00    -0.270 OA
ATOM     24  N   UNL     1      35.536 -19.174 -19.636  0.00  0.00    -0.279 N 
ATOM     25  C   UNL     1      36.433 -20.208 -19.400  0.00  0.00    +0.250 C 
ATOM     26  H   UNL     1      34.971 -18.904 -18.875  0.00  0.00    +0.155 HD
BRANCH  24  27
ATOM     27  C   UNL     1      35.341 -18.464 -20.846  0.00  0.00    +0.064 C 
ATOM     28  C   UNL     1      35.372 -17.079 -20.858  0.00  0.00    +0.055 C 
ATOM     29  C   UNL     1      35.123 -19.191 -22.006  0.00  0.00    +0.016 C 
ATOM     30  C   UNL     1      35.177 -16.402 -22.062  0.00  0.00    +0.015 C 
ATOM     31  C   UNL     1      34.928 -18.514 -23.210  0.00  0.00    +0.001 C 
ATOM     32  C   UNL     1      34.955 -17.120 -23.238  0.00  0.00    +0.001 C 
BRANCH  28  33
ATOM     33  N   UNL     1      35.596 -16.332 -19.681  0.00  0.00    -0.356 N 
ATOM     34  H   UNL     1      36.516 -16.109 -19.408  0.00  0.00    +0.142 HD
ATOM     35  H   UNL     1      34.835 -16.034 -19.134  0.00  0.00    +0.142 HD
ENDBRANCH  28  33
ENDBRANCH  24  27
ENDBRANCH  22  25
ENDBRANCH   4  21
TORSDOF 7
ENDMDL
MODEL 9
REMARK VINA RESULT:     -10.3      2.628     11.659
REMARK  Name = 15985904
REMARK  7 active torsions:
REMARK  status: ('A' for Active; 'I' for Inactive)
REMARK    1  A    between atoms: N_1  and  S_6
REMARK    2  A    between atoms: C_4  and  C_21
REMARK    3  A    between atoms: S_6  and  C_9
REMARK    4  A    between atoms: C_10  and  C_17
REMARK    5  A    between atoms: C_22  and  C_25
REMARK    6  A    between atoms: N_24  and  C_27
REMARK    7  A    between atoms: C_28  and  N_33
REMARK                            x       y       z     vdW  Elec       q    Type
REMARK                         _______ _______ _______ _____ _____    ______ ____
ROOT
ATOM      1  N   UNL     1      35.010 -20.587 -19.357  0.00  0.00    -0.167 N 
ATOM      2  C   UNL     1      34.673 -19.513 -20.072  0.00  0.00    +0.089 C 
ATOM      3  C   UNL     1      36.318 -20.707 -19.132  0.00  0.00    +0.089 C 
ATOM      4  C   UNL     1      35.858 -18.865 -20.343  0.00  0.00    +0.018 C 
ATOM      5  C   UNL     1      36.899 -19.621 -19.749  0.00  0.00    +0.019 C 
ENDROOT
BRANCH   1   6
ATOM      6  S   UNL     1      33.849 -21.727 -18.773  0.00  0.00    +0.080 S 
ATOM      7  O   UNL     1      34.052 -22.870 -19.645  0.00  0.00    -0.149 OA
ATOM      8  O   UNL     1      32.589 -21.012 -18.708  0.00  0.00    -0.149 OA
BRANCH   6   9
ATOM      9  C   UNL     1      34.345 -22.109 -17.144  0.00  0.00    +0.126 C 
ATOM     10  C   UNL     1      35.138 -22.719 -14.539  0.00  0.00    +0.003 C 
ATOM     11  C   UNL     1      33.448 -22.716 -16.266  0.00  0.00    +0.020 C 
ATOM     12  C   UNL     1      35.640 -21.807 -16.719  0.00  0.00    +0.020 C 
ATOM     13  C   UNL     1      33.844 -23.021 -14.964  0.00  0.00    +0.001 C 
ATOM     14  C   UNL     1      36.035 -22.112 -15.417  0.00  0.00    +0.001 C 
BRANCH  10  17
ATOM     15  N   UNL     1      36.793 -23.296 -11.433  0.00  0.00    -0.208 N 
ATOM     16  N   UNL     1      35.574 -23.676 -11.013  0.00  0.00    -0.176 NA
ATOM     17  C   UNL     1      35.545 -23.033 -13.198  0.00  0.00    +0.037 C 
ATOM     18  C   UNL     1      36.830 -22.900 -12.737  0.00  0.00    +0.086 C 
ATOM     19  C   UNL     1      34.816 -23.511 -12.099  0.00  0.00    +0.119 C 
ATOM     20  C   UNL     1      37.910 -23.333 -10.518  0.00  0.00    +0.140 C 
ENDBRANCH  10  17
ENDBRANCH   6   9
ENDBRANCH   1   6
BRANCH   4  21
ATOM     21  C   UNL     1      35.977 -17.669 -21.081  0.00  0.00    +0.006 C 
ATOM     22  C   UNL     1      35.002 -16.982 -21.741  0.00  0.00    +0.058 C 
BRANCH  22  25
ATOM     23  O   UNL     1      36.439 -15.450 -22.857  0.00  0.00    -0.270 OA
ATOM     24  N   UNL     1      34.154 -14.955 -22.653  0.00  0.00    -0.279 N 
ATOM     25  C   UNL     1      35.303 -15.715 -22.482  0.00  0.00    +0.250 C 
ATOM     26  H   UNL     1      33.322 -15.330 -22.281  0.00  0.00    +0.155 HD
BRANCH  24  27
ATOM     27  C   UNL     1      34.043 -13.701 -23.302  0.00  0.00    +0.064 C 
ATOM     28  C   UNL     1      33.614 -13.628 -24.618  0.00  0.00    +0.055 C 
ATOM     29  C   UNL     1      34.371 -12.560 -22.587  0.00  0.00    +0.016 C 
ATOM     30  C   UNL     1      33.513 -12.382 -25.235  0.00  0.00    +0.015 C 
ATOM     31  C   UNL     1      34.270 -11.313 -23.205  0.00  0.00    +0.001 C 
ATOM     32  C   UNL     1      33.841 -11.224 -24.529  0.00  0.00    +0.001 C 
BRANCH  28  33
ATOM     33  N   UNL     1      33.275 -14.786 -25.352  0.00  0.00    -0.356 N 
ATOM     34  H   UNL     1      33.814 -15.605 -25.255  0.00  0.00    +0.142 HD
ATOM     35  H   UNL     1      32.501 -14.776 -25.960  0.00  0.00    +0.142 HD
ENDBRANCH  28  33
ENDBRANCH  24  27
ENDBRANCH  22  25
ENDBRANCH   4  21
TORSDOF 7
ENDMDL
