MODEL 1
REMARK VINA RESULT:     -11.4      0.000      0.000
REMARK  Name = 3055168
REMARK  6 active torsions:
REMARK  status: ('A' for Active; 'I' for Inactive)
REMARK    1  A    between atoms: C_1  and  C_21
REMARK    2  A    between atoms: C_4  and  O_7
REMARK    3  A    between atoms: O_7  and  C_8
REMARK    4  A    between atoms: C_8  and  C_12
REMARK    5  A    between atoms: C_17  and  O_19
REMARK    6  A    between atoms: C_21  and  C_26
REMARK                            x       y       z     vdW  Elec       q    Type
REMARK                         _______ _______ _______ _____ _____    ______ ____
ROOT
ATOM      1  C   UNL     1      35.019 -22.286 -16.285  0.00  0.00    -0.021 C 
ATOM      2  C   UNL     1      33.862 -22.215 -17.062  0.00  0.00    -0.001 C 
ATOM      3  C   UNL     1      36.184 -21.649 -16.711  0.00  0.00    -0.001 C 
ATOM      4  C   UNL     1      35.037 -20.874 -18.683  0.00  0.00    +0.139 C 
ATOM      5  C   UNL     1      33.872 -21.508 -18.264  0.00  0.00    +0.037 C 
ATOM      6  C   UNL     1      36.193 -20.940 -17.912  0.00  0.00    +0.037 C 
ENDROOT
BRANCH   4   7
ATOM      7  O   UNL     1      35.045 -20.179 -19.862  0.00  0.00    -0.466 OA
BRANCH   7   8
ATOM      8  C   UNL     1      36.226 -19.437 -20.158  0.00  0.00    +0.279 C 
BRANCH   8  12
ATOM      9  N   UNL     1      35.548 -17.783 -21.892  0.00  0.00    -0.274 N 
ATOM     10  N   UNL     1      35.659 -17.043 -19.800  0.00  0.00    -0.390 NA
ATOM     11  C   UNL     1      35.197 -16.459 -21.953  0.00  0.00    +0.153 C 
ATOM     12  C   UNL     1      35.815 -18.084 -20.586  0.00  0.00    +0.205 C 
ATOM     13  C   UNL     1      35.274 -16.019 -20.634  0.00  0.00    +0.133 C 
ATOM     14  C   UNL     1      34.831 -15.633 -23.016  0.00  0.00    +0.037 C 
ATOM     15  C   UNL     1      35.620 -18.694 -23.011  0.00  0.00    +0.115 C 
ATOM     16  C   UNL     1      34.971 -14.679 -20.340  0.00  0.00    +0.033 C 
ATOM     17  C   UNL     1      34.532 -14.302 -22.705  0.00  0.00    +0.137 C 
ATOM     18  C   UNL     1      34.600 -13.832 -21.392  0.00  0.00    +0.039 C 
BRANCH  17  19
ATOM     19  O   UNL     1      34.169 -13.449 -23.704  0.00  0.00    -0.472 OA
ATOM     20  C   UNL     1      33.448 -14.006 -24.802  0.00  0.00    +0.252 C 
ENDBRANCH  17  19
ENDBRANCH   8  12
ENDBRANCH   7   8
ENDBRANCH   4   7
BRANCH   1  21
ATOM     21  C   UNL     1      35.009 -23.042 -15.000  0.00  0.00    +0.047 C 
BRANCH  21  26
ATOM     22  S   UNL     1      36.886 -22.876 -12.985  0.00  0.00    -0.048 S 
ATOM     23  O   UNL     1      36.109 -25.817 -15.360  0.00  0.00    -0.274 OA
ATOM     24  O   UNL     1      37.529 -24.625 -11.130  0.00  0.00    -0.263 OA
ATOM     25  N   UNL     1      36.850 -25.420 -13.205  0.00  0.00    -0.246 N 
ATOM     26  C   UNL     1      36.398 -23.539 -14.607  0.00  0.00    +0.137 C 
ATOM     27  C   UNL     1      36.425 -25.043 -14.463  0.00  0.00    +0.239 C 
ATOM     28  C   UNL     1      37.146 -24.457 -12.278  0.00  0.00    +0.279 C 
ATOM     29  H   UNL     1      36.940 -26.374 -12.976  0.00  0.00    +0.158 HD
ENDBRANCH  21  26
ENDBRANCH   1  21
TORSDOF 6
ENDMDL
MODEL 2
REMARK VINA RESULT:     -11.3      2.862     10.621
REMARK  Name = 3055168
REMARK  6 active torsions:
REMARK  status: ('A' for Active; 'I' for Inactive)
REMARK    1  A    between atoms: C_1  and  C_21
REMARK    2  A    between atoms: C_4  and  O_7
REMARK    3  A    between atoms: O_7  and  C_8
REMARK    4  A    between atoms: C_8  and  C_12
REMARK    5  A    between atoms: C_17  and  O_19
REMARK    6  A    between atoms: C_21  and  C_26
REMARK                            x       y       z     vdW  Elec       q    Type
REMARK                         _______ _______ _______ _____ _____    ______ ____
ROOT
ATOM      1  C   UNL     1      35.479 -19.391 -19.966  0.00  0.00    -0.021 C 
ATOM      2  C   UNL     1      36.320 -20.240 -19.248  0.00  0.00    -0.001 C 
ATOM      3  C   UNL     1      34.109 -19.647 -20.017  0.00  0.00    -0.001 C 
ATOM      4  C   UNL     1      34.424 -21.596 -18.636  0.00  0.00    +0.139 C 
ATOM      5  C   UNL     1      35.791 -21.346 -18.581  0.00  0.00    +0.037 C 
ATOM      6  C   UNL     1      33.579 -20.751 -19.350  0.00  0.00    +0.037 C 
ENDROOT
BRANCH   4   7
ATOM      7  O   UNL     1      33.906 -22.679 -17.980  0.00  0.00    -0.466 OA
BRANCH   7   8
ATOM      8  C   UNL     1      33.247 -22.422 -16.742  0.00  0.00    +0.279 C 
BRANCH   8  12
ATOM      9  N   UNL     1      33.705 -22.942 -14.350  0.00  0.00    -0.274 N 
ATOM     10  N   UNL     1      35.308 -23.449 -15.803  0.00  0.00    -0.390 NA
ATOM     11  C   UNL     1      34.719 -23.485 -13.603  0.00  0.00    +0.153 C 
ATOM     12  C   UNL     1      34.104 -22.942 -15.657  0.00  0.00    +0.205 C 
ATOM     13  C   UNL     1      35.708 -23.793 -14.533  0.00  0.00    +0.133 C 
ATOM     14  C   UNL     1      34.852 -23.724 -12.235  0.00  0.00    +0.037 C 
ATOM     15  C   UNL     1      32.442 -22.458 -13.842  0.00  0.00    +0.115 C 
ATOM     16  C   UNL     1      36.908 -24.376 -14.090  0.00  0.00    +0.033 C 
ATOM     17  C   UNL     1      36.052 -24.305 -11.811  0.00  0.00    +0.137 C 
ATOM     18  C   UNL     1      37.063 -24.626 -12.721  0.00  0.00    +0.039 C 
BRANCH  17  19
ATOM     19  O   UNL     1      36.238 -24.561 -10.485  0.00  0.00    -0.472 OA
ATOM     20  C   UNL     1      36.045 -23.474  -9.583  0.00  0.00    +0.252 C 
ENDBRANCH  17  19
ENDBRANCH   8  12
ENDBRANCH   7   8
ENDBRANCH   4   7
BRANCH   1  21
ATOM     21  C   UNL     1      36.044 -18.209 -20.679  0.00  0.00    +0.047 C 
BRANCH  21  26
ATOM     22  S   UNL     1      35.101 -15.624 -20.886  0.00  0.00    -0.048 S 
ATOM     23  O   UNL     1      35.121 -18.434 -23.532  0.00  0.00    -0.274 OA
ATOM     24  O   UNL     1      35.384 -13.877 -22.831  0.00  0.00    -0.263 OA
ATOM     25  N   UNL     1      35.256 -16.130 -23.386  0.00  0.00    -0.246 N 
ATOM     26  C   UNL     1      34.966 -17.374 -21.366  0.00  0.00    +0.137 C 
ATOM     27  C   UNL     1      35.120 -17.403 -22.870  0.00  0.00    +0.239 C 
ATOM     28  C   UNL     1      35.270 -15.057 -22.534  0.00  0.00    +0.279 C 
ATOM     29  H   UNL     1      35.341 -15.994 -24.357  0.00  0.00    +0.158 HD
ENDBRANCH  21  26
ENDBRANCH   1  21
TORSDOF 6
ENDMDL
MODEL 3
REMARK VINA RESULT:     -11.2      3.101     10.536
REMARK  Name = 3055168
REMARK  6 active torsions:
REMARK  status: ('A' for Active; 'I' for Inactive)
REMARK    1  A    between atoms: C_1  and  C_21
REMARK    2  A    between atoms: C_4  and  O_7
REMARK    3  A    between atoms: O_7  and  C_8
REMARK    4  A    between atoms: C_8  and  C_12
REMARK    5  A    between atoms: C_17  and  O_19
REMARK    6  A    between atoms: C_21  and  C_26
REMARK                            x       y       z     vdW  Elec       q    Type
REMARK                         _______ _______ _______ _____ _____    ______ ____
ROOT
ATOM      1  C   UNL     1      35.285 -18.496 -20.352  0.00  0.00    -0.021 C 
ATOM      2  C   UNL     1      33.988 -18.983 -20.197  0.00  0.00    -0.001 C 
ATOM      3  C   UNL     1      36.372 -19.260 -19.929  0.00  0.00    -0.001 C 
ATOM      4  C   UNL     1      34.865 -20.992 -19.196  0.00  0.00    +0.139 C 
ATOM      5  C   UNL     1      33.777 -20.234 -19.616  0.00  0.00    +0.037 C 
ATOM      6  C   UNL     1      36.162 -20.512 -19.350  0.00  0.00    +0.037 C 
ENDROOT
BRANCH   4   7
ATOM      7  O   UNL     1      34.658 -22.220 -18.629  0.00  0.00    -0.466 OA
BRANCH   7   8
ATOM      8  C   UNL     1      33.619 -22.309 -17.657  0.00  0.00    +0.279 C 
BRANCH   8  12
ATOM      9  N   UNL     1      33.513 -23.010 -15.270  0.00  0.00    -0.274 N 
ATOM     10  N   UNL     1      35.527 -22.535 -16.079  0.00  0.00    -0.390 NA
ATOM     11  C   UNL     1      34.382 -23.207 -14.227  0.00  0.00    +0.153 C 
ATOM     12  C   UNL     1      34.244 -22.610 -16.353  0.00  0.00    +0.205 C 
ATOM     13  C   UNL     1      35.633 -22.904 -14.758  0.00  0.00    +0.133 C 
ATOM     14  C   UNL     1      34.187 -23.610 -12.906  0.00  0.00    +0.037 C 
ATOM     15  C   UNL     1      32.080 -23.196 -15.227  0.00  0.00    +0.115 C 
ATOM     16  C   UNL     1      36.768 -23.004 -13.935  0.00  0.00    +0.033 C 
ATOM     17  C   UNL     1      35.327 -23.705 -12.102  0.00  0.00    +0.137 C 
ATOM     18  C   UNL     1      36.596 -23.408 -12.606  0.00  0.00    +0.039 C 
BRANCH  17  19
ATOM     19  O   UNL     1      35.197 -24.094 -10.802  0.00  0.00    -0.472 OA
ATOM     20  C   UNL     1      36.140 -23.566  -9.871  0.00  0.00    +0.252 C 
ENDBRANCH  17  19
ENDBRANCH   8  12
ENDBRANCH   7   8
ENDBRANCH   4   7
BRANCH   1  21
ATOM     21  C   UNL     1      35.511 -17.158 -20.972  0.00  0.00    +0.047 C 
BRANCH  21  26
ATOM     22  S   UNL     1      34.848 -18.614 -23.220  0.00  0.00    -0.048 S 
ATOM     23  O   UNL     1      35.754 -14.875 -22.913  0.00  0.00    -0.274 OA
ATOM     24  O   UNL     1      33.253 -17.999 -25.218  0.00  0.00    -0.263 OA
ATOM     25  N   UNL     1      34.442 -16.287 -24.191  0.00  0.00    -0.246 N 
ATOM     26  C   UNL     1      35.790 -17.250 -22.470  0.00  0.00    +0.137 C 
ATOM     27  C   UNL     1      35.348 -15.998 -23.191  0.00  0.00    +0.239 C 
ATOM     28  C   UNL     1      34.043 -17.583 -24.384  0.00  0.00    +0.279 C 
ATOM     29  H   UNL     1      34.086 -15.567 -24.762  0.00  0.00    +0.158 HD
ENDBRANCH  21  26
ENDBRANCH   1  21
TORSDOF 6
ENDMDL
MODEL 4
REMARK VINA RESULT:     -11.1      2.003      2.873
REMARK  Name = 3055168
REMARK  6 active torsions:
REMARK  status: ('A' for Active; 'I' for Inactive)
REMARK    1  A    between atoms: C_1  and  C_21
REMARK    2  A    between atoms: C_4  and  O_7
REMARK    3  A    between atoms: O_7  and  C_8
REMARK    4  A    between atoms: C_8  and  C_12
REMARK    5  A    between atoms: C_17  and  O_19
REMARK    6  A    between atoms: C_21  and  C_26
REMARK                            x       y       z     vdW  Elec       q    Type
REMARK                         _______ _______ _______ _____ _____    ______ ____
ROOT
ATOM      1  C   UNL     1      34.051 -21.822 -17.990  0.00  0.00    -0.021 C 
ATOM      2  C   UNL     1      33.222 -21.060 -18.814  0.00  0.00    -0.001 C 
ATOM      3  C   UNL     1      35.436 -21.680 -18.070  0.00  0.00    -0.001 C 
ATOM      4  C   UNL     1      35.162 -20.017 -19.794  0.00  0.00    +0.139 C 
ATOM      5  C   UNL     1      33.780 -20.155 -19.718  0.00  0.00    +0.037 C 
ATOM      6  C   UNL     1      35.993 -20.775 -18.973  0.00  0.00    +0.037 C 
ENDROOT
BRANCH   4   7
ATOM      7  O   UNL     1      35.708 -19.129 -20.680  0.00  0.00    -0.466 OA
BRANCH   7   8
ATOM      8  C   UNL     1      35.830 -17.779 -20.238  0.00  0.00    +0.279 C 
BRANCH   8  12
ATOM      9  N   UNL     1      35.028 -15.610 -21.161  0.00  0.00    -0.274 N 
ATOM     10  N   UNL     1      35.427 -17.230 -22.629  0.00  0.00    -0.390 NA
ATOM     11  C   UNL     1      34.736 -15.072 -22.389  0.00  0.00    +0.153 C 
ATOM     12  C   UNL     1      35.436 -16.899 -21.357  0.00  0.00    +0.205 C 
ATOM     13  C   UNL     1      34.994 -16.103 -23.288  0.00  0.00    +0.133 C 
ATOM     14  C   UNL     1      34.282 -13.811 -22.777  0.00  0.00    +0.037 C 
ATOM     15  C   UNL     1      34.922 -14.930 -19.890  0.00  0.00    +0.115 C 
ATOM     16  C   UNL     1      34.792 -15.880 -24.662  0.00  0.00    +0.033 C 
ATOM     17  C   UNL     1      34.087 -13.607 -24.147  0.00  0.00    +0.137 C 
ATOM     18  C   UNL     1      34.337 -14.622 -25.074  0.00  0.00    +0.039 C 
BRANCH  17  19
ATOM     19  O   UNL     1      33.644 -12.394 -24.585  0.00  0.00    -0.472 OA
ATOM     20  C   UNL     1      34.156 -11.240 -23.922  0.00  0.00    +0.252 C 
ENDBRANCH  17  19
ENDBRANCH   8  12
ENDBRANCH   7   8
ENDBRANCH   4   7
BRANCH   1  21
ATOM     21  C   UNL     1      33.455 -22.789 -17.024  0.00  0.00    +0.047 C 
BRANCH  21  26
ATOM     22  S   UNL     1      32.335 -22.446 -14.526  0.00  0.00    -0.048 S 
ATOM     23  O   UNL     1      35.811 -23.831 -15.473  0.00  0.00    -0.274 OA
ATOM     24  O   UNL     1      32.332 -24.052 -12.443  0.00  0.00    -0.263 OA
ATOM     25  N   UNL     1      34.184 -24.074 -13.848  0.00  0.00    -0.246 N 
ATOM     26  C   UNL     1      33.820 -22.465 -15.577  0.00  0.00    +0.137 C 
ATOM     27  C   UNL     1      34.729 -23.520 -14.988  0.00  0.00    +0.239 C 
ATOM     28  C   UNL     1      32.948 -23.661 -13.424  0.00  0.00    +0.279 C 
ATOM     29  H   UNL     1      34.678 -24.759 -13.343  0.00  0.00    +0.158 HD
ENDBRANCH  21  26
ENDBRANCH   1  21
TORSDOF 6
ENDMDL
MODEL 5
REMARK VINA RESULT:     -11.0      3.191     10.810
REMARK  Name = 3055168
REMARK  6 active torsions:
REMARK  status: ('A' for Active; 'I' for Inactive)
REMARK    1  A    between atoms: C_1  and  C_21
REMARK    2  A    between atoms: C_4  and  O_7
REMARK    3  A    between atoms: O_7  and  C_8
REMARK    4  A    between atoms: C_8  and  C_12
REMARK    5  A    between atoms: C_17  and  O_19
REMARK    6  A    between atoms: C_21  and  C_26
REMARK                            x       y       z     vdW  Elec       q    Type
REMARK                         _______ _______ _______ _____ _____    ______ ____
ROOT
ATOM      1  C   UNL     1      34.594 -19.439 -20.485  0.00  0.00    -0.021 C 
ATOM      2  C   UNL     1      33.756 -20.195 -19.665  0.00  0.00    -0.001 C 
ATOM      3  C   UNL     1      35.977 -19.496 -20.311  0.00  0.00    -0.001 C 
ATOM      4  C   UNL     1      35.682 -21.061 -18.503  0.00  0.00    +0.139 C 
ATOM      5  C   UNL     1      34.302 -21.008 -18.671  0.00  0.00    +0.037 C 
ATOM      6  C   UNL     1      36.522 -20.309 -19.318  0.00  0.00    +0.037 C 
ENDROOT
BRANCH   4   7
ATOM      7  O   UNL     1      36.217 -21.860 -17.529  0.00  0.00    -0.466 OA
BRANCH   7   8
ATOM      8  C   UNL     1      37.276 -21.302 -16.755  0.00  0.00    +0.279 C 
BRANCH   8  12
ATOM      9  N   UNL     1      36.372 -22.309 -14.665  0.00  0.00    -0.274 N 
ATOM     10  N   UNL     1      38.507 -22.721 -15.124  0.00  0.00    -0.390 NA
ATOM     11  C   UNL     1      36.823 -23.097 -13.636  0.00  0.00    +0.153 C 
ATOM     12  C   UNL     1      37.414 -22.112 -15.527  0.00  0.00    +0.205 C 
ATOM     13  C   UNL     1      38.158 -23.341 -13.947  0.00  0.00    +0.133 C 
ATOM     14  C   UNL     1      36.196 -23.601 -12.496  0.00  0.00    +0.037 C 
ATOM     15  C   UNL     1      35.033 -21.784 -14.807  0.00  0.00    +0.115 C 
ATOM     16  C   UNL     1      38.930 -24.132 -13.079  0.00  0.00    +0.033 C 
ATOM     17  C   UNL     1      36.979 -24.388 -11.644  0.00  0.00    +0.137 C 
ATOM     18  C   UNL     1      38.321 -24.650 -11.929  0.00  0.00    +0.039 C 
BRANCH  17  19
ATOM     19  O   UNL     1      36.420 -24.907 -10.514  0.00  0.00    -0.472 OA
ATOM     20  C   UNL     1      35.468 -24.094  -9.831  0.00  0.00    +0.252 C 
ENDBRANCH  17  19
ENDBRANCH   8  12
ENDBRANCH   7   8
ENDBRANCH   4   7
BRANCH   1  21
ATOM     21  C   UNL     1      34.011 -18.569 -21.547  0.00  0.00    +0.047 C 
BRANCH  21  26
ATOM     22  S   UNL     1      34.416 -18.068 -24.230  0.00  0.00    -0.048 S 
ATOM     23  O   UNL     1      35.895 -16.259 -21.159  0.00  0.00    -0.274 OA
ATOM     24  O   UNL     1      34.477 -15.782 -25.528  0.00  0.00    -0.263 OA
ATOM     25  N   UNL     1      35.249 -15.825 -23.336  0.00  0.00    -0.246 N 
ATOM     26  C   UNL     1      35.065 -18.067 -22.530  0.00  0.00    +0.137 C 
ATOM     27  C   UNL     1      35.454 -16.635 -22.238  0.00  0.00    +0.239 C 
ATOM     28  C   UNL     1      34.719 -16.362 -24.480  0.00  0.00    +0.279 C 
ATOM     29  H   UNL     1      35.482 -14.868 -23.298  0.00  0.00    +0.158 HD
ENDBRANCH  21  26
ENDBRANCH   1  21
TORSDOF 6
ENDMDL
MODEL 6
REMARK VINA RESULT:     -11.0      0.928      2.101
REMARK  Name = 3055168
REMARK  6 active torsions:
REMARK  status: ('A' for Active; 'I' for Inactive)
REMARK    1  A    between atoms: C_1  and  C_21
REMARK    2  A    between atoms: C_4  and  O_7
REMARK    3  A    between atoms: O_7  and  C_8
REMARK    4  A    between atoms: C_8  and  C_12
REMARK    5  A    between atoms: C_17  and  O_19
REMARK    6  A    between atoms: C_21  and  C_26
REMARK                            x       y       z     vdW  Elec       q    Type
REMARK                         _______ _______ _______ _____ _____    ______ ____
ROOT
ATOM      1  C   UNL     1      34.955 -22.349 -16.262  0.00  0.00    -0.021 C 
ATOM      2  C   UNL     1      36.078 -21.647 -16.699  0.00  0.00    -0.001 C 
ATOM      3  C   UNL     1      33.810 -22.398 -17.057  0.00  0.00    -0.001 C 
ATOM      4  C   UNL     1      34.910 -21.046 -18.721  0.00  0.00    +0.139 C 
ATOM      5  C   UNL     1      36.055 -20.993 -17.932  0.00  0.00    +0.037 C 
ATOM      6  C   UNL     1      33.787 -21.746 -18.290  0.00  0.00    +0.037 C 
ENDROOT
BRANCH   4   7
ATOM      7  O   UNL     1      34.889 -20.406 -19.930  0.00  0.00    -0.466 OA
BRANCH   7   8
ATOM      8  C   UNL     1      35.789 -19.311 -20.090  0.00  0.00    +0.279 C 
BRANCH   8  12
ATOM      9  N   UNL     1      35.321 -17.199 -21.323  0.00  0.00    -0.274 N 
ATOM     10  N   UNL     1      35.038 -19.092 -22.451  0.00  0.00    -0.390 NA
ATOM     11  C   UNL     1      34.912 -16.821 -22.576  0.00  0.00    +0.153 C 
ATOM     12  C   UNL     1      35.381 -18.564 -21.297  0.00  0.00    +0.205 C 
ATOM     13  C   UNL     1      34.742 -18.022 -23.261  0.00  0.00    +0.133 C 
ATOM     14  C   UNL     1      34.683 -15.571 -23.152  0.00  0.00    +0.037 C 
ATOM     15  C   UNL     1      35.633 -16.309 -20.228  0.00  0.00    +0.115 C 
ATOM     16  C   UNL     1      34.318 -17.992 -24.601  0.00  0.00    +0.033 C 
ATOM     17  C   UNL     1      34.262 -15.560 -24.486  0.00  0.00    +0.137 C 
ATOM     18  C   UNL     1      34.083 -16.747 -25.199  0.00  0.00    +0.039 C 
BRANCH  17  19
ATOM     19  O   UNL     1      34.022 -14.367 -25.100  0.00  0.00    -0.472 OA
ATOM     20  C   UNL     1      33.577 -13.292 -24.275  0.00  0.00    +0.252 C 
ENDBRANCH  17  19
ENDBRANCH   8  12
ENDBRANCH   7   8
ENDBRANCH   4   7
BRANCH   1  21
ATOM     21  C   UNL     1      34.978 -23.047 -14.945  0.00  0.00    +0.047 C 
BRANCH  21  26
ATOM     22  S   UNL     1      36.871 -22.917 -12.941  0.00  0.00    -0.048 S 
ATOM     23  O   UNL     1      36.093 -25.805 -15.379  0.00  0.00    -0.274 OA
ATOM     24  O   UNL     1      37.539 -24.705 -11.133  0.00  0.00    -0.263 OA
ATOM     25  N   UNL     1      36.849 -25.455 -13.222  0.00  0.00    -0.246 N 
ATOM     26  C   UNL     1      36.373 -23.544 -14.575  0.00  0.00    +0.137 C 
ATOM     27  C   UNL     1      36.411 -25.051 -14.467  0.00  0.00    +0.239 C 
ATOM     28  C   UNL     1      37.146 -24.512 -12.274  0.00  0.00    +0.279 C 
ATOM     29  H   UNL     1      36.947 -26.414 -13.016  0.00  0.00    +0.158 HD
ENDBRANCH  21  26
ENDBRANCH   1  21
TORSDOF 6
ENDMDL
MODEL 7
REMARK VINA RESULT:     -10.9      1.988      2.401
REMARK  Name = 3055168
REMARK  6 active torsions:
REMARK  status: ('A' for Active; 'I' for Inactive)
REMARK    1  A    between atoms: C_1  and  C_21
REMARK    2  A    between atoms: C_4  and  O_7
REMARK    3  A    between atoms: O_7  and  C_8
REMARK    4  A    between atoms: C_8  and  C_12
REMARK    5  A    between atoms: C_17  and  O_19
REMARK    6  A    between atoms: C_21  and  C_26
REMARK                            x       y       z     vdW  Elec       q    Type
REMARK                         _______ _______ _______ _____ _____    ______ ____
ROOT
ATOM      1  C   UNL     1      33.902 -21.886 -17.945  0.00  0.00    -0.021 C 
ATOM      2  C   UNL     1      32.969 -21.120 -18.643  0.00  0.00    -0.001 C 
ATOM      3  C   UNL     1      35.266 -21.685 -18.154  0.00  0.00    -0.001 C 
ATOM      4  C   UNL     1      34.763 -19.955 -19.755  0.00  0.00    +0.139 C 
ATOM      5  C   UNL     1      33.401 -20.152 -19.551  0.00  0.00    +0.037 C 
ATOM      6  C   UNL     1      35.698 -20.717 -19.060  0.00  0.00    +0.037 C 
ENDROOT
BRANCH   4   7
ATOM      7  O   UNL     1      35.185 -19.004 -20.643  0.00  0.00    -0.466 OA
BRANCH   7   8
ATOM      8  C   UNL     1      36.065 -18.003 -20.137  0.00  0.00    +0.279 C 
BRANCH   8  12
ATOM      9  N   UNL     1      35.423 -16.403 -21.934  0.00  0.00    -0.274 N 
ATOM     10  N   UNL     1      35.233 -15.678 -19.842  0.00  0.00    -0.390 NA
ATOM     11  C   UNL     1      34.954 -15.117 -22.032  0.00  0.00    +0.153 C 
ATOM     12  C   UNL     1      35.574 -16.691 -20.607  0.00  0.00    +0.205 C 
ATOM     13  C   UNL     1      34.844 -14.687 -20.713  0.00  0.00    +0.133 C 
ATOM     14  C   UNL     1      34.628 -14.319 -23.129  0.00  0.00    +0.037 C 
ATOM     15  C   UNL     1      35.705 -17.290 -23.039  0.00  0.00    +0.115 C 
ATOM     16  C   UNL     1      34.382 -13.385 -20.453  0.00  0.00    +0.033 C 
ATOM     17  C   UNL     1      34.169 -13.027 -22.852  0.00  0.00    +0.137 C 
ATOM     18  C   UNL     1      34.048 -12.566 -21.539  0.00  0.00    +0.039 C 
BRANCH  17  19
ATOM     19  O   UNL     1      33.836 -12.201 -23.885  0.00  0.00    -0.472 OA
ATOM     20  C   UNL     1      34.330 -10.864 -23.829  0.00  0.00    +0.252 C 
ENDBRANCH  17  19
ENDBRANCH   8  12
ENDBRANCH   7   8
ENDBRANCH   4   7
BRANCH   1  21
ATOM     21  C   UNL     1      33.441 -22.922 -16.976  0.00  0.00    +0.047 C 
BRANCH  21  26
ATOM     22  S   UNL     1      32.264 -22.604 -14.501  0.00  0.00    -0.048 S 
ATOM     23  O   UNL     1      35.833 -23.784 -15.372  0.00  0.00    -0.274 OA
ATOM     24  O   UNL     1      32.329 -24.169 -12.388  0.00  0.00    -0.263 OA
ATOM     25  N   UNL     1      34.200 -24.099 -13.766  0.00  0.00    -0.246 N 
ATOM     26  C   UNL     1      33.763 -22.549 -15.530  0.00  0.00    +0.137 C 
ATOM     27  C   UNL     1      34.727 -23.533 -14.908  0.00  0.00    +0.239 C 
ATOM     28  C   UNL     1      32.934 -23.758 -13.367  0.00  0.00    +0.279 C 
ATOM     29  H   UNL     1      34.729 -24.743 -13.240  0.00  0.00    +0.158 HD
ENDBRANCH  21  26
ENDBRANCH   1  21
TORSDOF 6
ENDMDL
MODEL 8
REMARK VINA RESULT:     -10.8      3.534     10.862
REMARK  Name = 3055168
REMARK  6 active torsions:
REMARK  status: ('A' for Active; 'I' for Inactive)
REMARK    1  A    between atoms: C_1  and  C_21
REMARK    2  A    between atoms: C_4  and  O_7
REMARK    3  A    between atoms: O_7  and  C_8
REMARK    4  A    between atoms: C_8  and  C_12
REMARK    5  A    between atoms: C_17  and  O_19
REMARK    6  A    between atoms: C_21  and  C_26
REMARK                            x       y       z     vdW  Elec       q    Type
REMARK                         _______ _______ _______ _____ _____    ______ ____
ROOT
ATOM      1  C   UNL     1      35.565 -17.655 -22.545  0.00  0.00    -0.021 C 
ATOM      2  C   UNL     1      34.578 -18.512 -22.060  0.00  0.00    -0.001 C 
ATOM      3  C   UNL     1      36.783 -17.543 -21.875  0.00  0.00    -0.001 C 
ATOM      4  C   UNL     1      36.026 -19.143 -20.239  0.00  0.00    +0.139 C 
ATOM      5  C   UNL     1      34.809 -19.258 -20.903  0.00  0.00    +0.037 C 
ATOM      6  C   UNL     1      37.015 -18.289 -20.719  0.00  0.00    +0.037 C 
ENDROOT
BRANCH   4   7
ATOM      7  O   UNL     1      36.252 -19.876 -19.106  0.00  0.00    -0.466 OA
BRANCH   7   8
ATOM      8  C   UNL     1      35.375 -20.975 -18.869  0.00  0.00    +0.279 C 
BRANCH   8  12
ATOM      9  N   UNL     1      34.680 -22.087 -16.752  0.00  0.00    -0.274 N 
ATOM     10  N   UNL     1      36.798 -21.426 -16.880  0.00  0.00    -0.390 NA
ATOM     11  C   UNL     1      35.248 -22.440 -15.554  0.00  0.00    +0.153 C 
ATOM     12  C   UNL     1      35.646 -21.484 -17.509  0.00  0.00    +0.205 C 
ATOM     13  C   UNL     1      36.570 -22.017 -15.660  0.00  0.00    +0.133 C 
ATOM     14  C   UNL     1      34.733 -23.074 -14.423  0.00  0.00    +0.037 C 
ATOM     15  C   UNL     1      33.307 -22.313 -17.140  0.00  0.00    +0.115 C 
ATOM     16  C   UNL     1      37.446 -22.231 -14.581  0.00  0.00    +0.033 C 
ATOM     17  C   UNL     1      35.619 -23.279 -13.360  0.00  0.00    +0.137 C 
ATOM     18  C   UNL     1      36.951 -22.866 -13.435  0.00  0.00    +0.039 C 
BRANCH  17  19
ATOM     19  O   UNL     1      35.171 -23.893 -12.227  0.00  0.00    -0.472 OA
ATOM     20  C   UNL     1      35.853 -23.588 -11.013  0.00  0.00    +0.252 C 
ENDBRANCH  17  19
ENDBRANCH   8  12
ENDBRANCH   7   8
ENDBRANCH   4   7
BRANCH   1  21
ATOM     21  C   UNL     1      35.318 -16.857 -23.781  0.00  0.00    +0.047 C 
BRANCH  21  26
ATOM     22  S   UNL     1      34.513 -14.305 -23.109  0.00  0.00    -0.048 S 
ATOM     23  O   UNL     1      33.006 -16.738 -25.698  0.00  0.00    -0.274 OA
ATOM     24  O   UNL     1      33.781 -12.306 -24.653  0.00  0.00    -0.263 OA
ATOM     25  N   UNL     1      33.288 -14.470 -25.344  0.00  0.00    -0.246 N 
ATOM     26  C   UNL     1      34.074 -15.980 -23.668  0.00  0.00    +0.137 C 
ATOM     27  C   UNL     1      33.400 -15.804 -25.009  0.00  0.00    +0.239 C 
ATOM     28  C   UNL     1      33.797 -13.519 -24.501  0.00  0.00    +0.279 C 
ATOM     29  H   UNL     1      32.846 -14.204 -26.184  0.00  0.00    +0.158 HD
ENDBRANCH  21  26
ENDBRANCH   1  21
TORSDOF 6
ENDMDL
MODEL 9
REMARK VINA RESULT:     -10.8      2.132      3.571
REMARK  Name = 3055168
REMARK  6 active torsions:
REMARK  status: ('A' for Active; 'I' for Inactive)
REMARK    1  A    between atoms: C_1  and  C_21
REMARK    2  A    between atoms: C_4  and  O_7
REMARK    3  A    between atoms: O_7  and  C_8
REMARK    4  A    between atoms: C_8  and  C_12
REMARK    5  A    between atoms: C_17  and  O_19
REMARK    6  A    between atoms: C_21  and  C_26
REMARK                            x       y       z     vdW  Elec       q    Type
REMARK                         _______ _______ _______ _____ _____    ______ ____
ROOT
ATOM      1  C   UNL     1      36.168 -22.764 -13.301  0.00  0.00    -0.021 C 
ATOM      2  C   UNL     1      37.259 -22.153 -13.919  0.00  0.00    -0.001 C 
ATOM      3  C   UNL     1      35.040 -23.100 -14.050  0.00  0.00    -0.001 C 
ATOM      4  C   UNL     1      36.096 -22.218 -16.029  0.00  0.00    +0.139 C 
ATOM      5  C   UNL     1      37.223 -21.879 -15.287  0.00  0.00    +0.037 C 
ATOM      6  C   UNL     1      35.004 -22.828 -15.417  0.00  0.00    +0.037 C 
ENDROOT
BRANCH   4   7
ATOM      7  O   UNL     1      36.062 -21.950 -17.370  0.00  0.00    -0.466 OA
BRANCH   7   8
ATOM      8  C   UNL     1      34.858 -21.378 -17.878  0.00  0.00    +0.279 C 
BRANCH   8  12
ATOM      9  N   UNL     1      34.314 -19.953 -19.846  0.00  0.00    -0.274 N 
ATOM     10  N   UNL     1      36.424 -19.923 -19.148  0.00  0.00    -0.390 NA
ATOM     11  C   UNL     1      34.967 -19.094 -20.692  0.00  0.00    +0.153 C 
ATOM     12  C   UNL     1      35.226 -20.423 -18.942  0.00  0.00    +0.205 C 
ATOM     13  C   UNL     1      36.283 -19.092 -20.235  0.00  0.00    +0.133 C 
ATOM     14  C   UNL     1      34.534 -18.341 -21.784  0.00  0.00    +0.037 C 
ATOM     15  C   UNL     1      32.912 -20.297 -19.903  0.00  0.00    +0.115 C 
ATOM     16  C   UNL     1      37.236 -18.298 -20.896  0.00  0.00    +0.033 C 
ATOM     17  C   UNL     1      35.496 -17.557 -22.429  0.00  0.00    +0.137 C 
ATOM     18  C   UNL     1      36.823 -17.534 -21.995  0.00  0.00    +0.039 C 
BRANCH  17  19
ATOM     19  O   UNL     1      35.130 -16.801 -23.503  0.00  0.00    -0.472 OA
ATOM     20  C   UNL     1      34.965 -15.401 -23.284  0.00  0.00    +0.252 C 
ENDBRANCH  17  19
ENDBRANCH   8  12
ENDBRANCH   7   8
ENDBRANCH   4   7
BRANCH   1  21
ATOM     21  C   UNL     1      36.206 -23.056 -11.839  0.00  0.00    +0.047 C 
BRANCH  21  26
ATOM     22  S   UNL     1      37.121 -25.539 -12.620  0.00  0.00    -0.048 S 
ATOM     23  O   UNL     1      39.069 -22.606 -11.041  0.00  0.00    -0.274 OA
ATOM     24  O   UNL     1      39.300 -26.196 -13.936  0.00  0.00    -0.263 OA
ATOM     25  N   UNL     1      39.385 -24.362 -12.512  0.00  0.00    -0.246 N 
ATOM     26  C   UNL     1      37.241 -24.121 -11.486  0.00  0.00    +0.137 C 
ATOM     27  C   UNL     1      38.649 -23.593 -11.634  0.00  0.00    +0.239 C 
ATOM     28  C   UNL     1      38.790 -25.426 -13.137  0.00  0.00    +0.279 C 
ATOM     29  H   UNL     1      40.331 -24.148 -12.687  0.00  0.00    +0.158 HD
ENDBRANCH  21  26
ENDBRANCH   1  21
TORSDOF 6
ENDMDL
