MODEL 1
REMARK VINA RESULT:     -11.7      0.000      0.000
REMARK  Name = 11507920
REMARK  4 active torsions:
REMARK  status: ('A' for Active; 'I' for Inactive)
REMARK    1  A    between atoms: C_1  and  C_8
REMARK    2  A    between atoms: C_2  and  C_17
REMARK    3  A    between atoms: C_17  and  N_18
REMARK    4  A    between atoms: N_18  and  C_21
REMARK                            x       y       z     vdW  Elec       q    Type
REMARK                         _______ _______ _______ _____ _____    ______ ____
ROOT
ATOM      1  C   UNL     1      34.719 -23.464 -14.006  0.00  0.00    -0.000 C 
ATOM      2  C   UNL     1      33.089 -22.605 -15.568  0.00  0.00    -0.003 C 
ATOM      3  C   UNL     1      34.394 -23.009 -15.283  0.00  0.00    -0.003 C 
ATOM      4  C   UNL     1      33.742 -23.516 -13.013  0.00  0.00    -0.000 C 
ATOM      5  C   UNL     1      32.111 -22.656 -14.575  0.00  0.00    -0.003 C 
ATOM      6  C   UNL     1      32.437 -23.111 -13.297  0.00  0.00    -0.000 C 
ENDROOT
BRANCH   1   8
ATOM      7  N   UNL     1      39.531 -24.064 -15.077  0.00  0.00    -0.312 N 
ATOM      8  C   UNL     1      36.073 -23.882 -13.709  0.00  0.00    +0.001 C 
ATOM      9  C   UNL     1      38.368 -24.118 -14.343  0.00  0.00    +0.048 C 
ATOM     10  C   UNL     1      38.684 -24.699 -13.113  0.00  0.00    +0.015 C 
ATOM     11  C   UNL     1      37.073 -23.700 -14.669  0.00  0.00    +0.015 C 
ATOM     12  C   UNL     1      36.360 -24.460 -12.474  0.00  0.00    +0.000 C 
ATOM     13  C   UNL     1      37.660 -24.874 -12.161  0.00  0.00    +0.001 C 
ATOM     14  C   UNL     1      40.077 -24.991 -13.136  0.00  0.00    +0.017 C 
ATOM     15  C   UNL     1      40.568 -24.590 -14.356  0.00  0.00    +0.062 C 
ATOM     16  H   UNL     1      39.606 -23.700 -15.989  0.00  0.00    +0.152 HD
ENDBRANCH   1   8
BRANCH   2  17
ATOM     17  C   UNL     1      32.740 -22.118 -16.934  0.00  0.00    +0.114 C 
BRANCH  17  18
ATOM     18  N   UNL     1      33.854 -22.196 -17.843  0.00  0.00    -0.327 N 
ATOM     19  H   UNL     1      34.363 -23.037 -17.883  0.00  0.00    +0.147 HD
BRANCH  18  21
ATOM     20  N   UNL     1      35.982 -19.639 -19.472  0.00  0.00    -0.228 NA
ATOM     21  C   UNL     1      34.252 -21.151 -18.667  0.00  0.00    +0.077 C 
ATOM     22  C   UNL     1      35.556 -20.652 -18.685  0.00  0.00    +0.139 C 
ATOM     23  C   UNL     1      33.338 -20.543 -19.536  0.00  0.00    +0.019 C 
ATOM     24  C   UNL     1      33.738 -19.498 -20.361  0.00  0.00    +0.022 C 
ATOM     25  C   UNL     1      35.060 -19.087 -20.292  0.00  0.00    +0.100 C 
ATOM     26  N   UNL     1      36.500 -21.251 -17.813  0.00  0.00    -0.342 N 
ATOM     27  H   UNL     1      37.429 -20.927 -17.797  0.00  0.00    +0.144 HD
ATOM     28  H   UNL     1      36.227 -21.991 -17.224  0.00  0.00    +0.144 HD
ENDBRANCH  18  21
ENDBRANCH  17  18
ENDBRANCH   2  17
TORSDOF 4
ENDMDL
MODEL 2
REMARK VINA RESULT:     -11.6      1.691      6.649
REMARK  Name = 11507920
REMARK  4 active torsions:
REMARK  status: ('A' for Active; 'I' for Inactive)
REMARK    1  A    between atoms: C_1  and  C_8
REMARK    2  A    between atoms: C_2  and  C_17
REMARK    3  A    between atoms: C_17  and  N_18
REMARK    4  A    between atoms: N_18  and  C_21
REMARK                            x       y       z     vdW  Elec       q    Type
REMARK                         _______ _______ _______ _____ _____    ______ ____
ROOT
ATOM      1  C   UNL     1      33.780 -22.682 -15.454  0.00  0.00    -0.000 C 
ATOM      2  C   UNL     1      34.384 -23.408 -13.231  0.00  0.00    -0.003 C 
ATOM      3  C   UNL     1      34.722 -22.782 -14.431  0.00  0.00    -0.003 C 
ATOM      4  C   UNL     1      32.501 -23.209 -15.280  0.00  0.00    -0.000 C 
ATOM      5  C   UNL     1      33.104 -23.936 -13.056  0.00  0.00    -0.003 C 
ATOM      6  C   UNL     1      32.163 -23.836 -14.081  0.00  0.00    -0.000 C 
ENDROOT
BRANCH   1   8
ATOM      7  N   UNL     1      36.960 -20.606 -18.654  0.00  0.00    -0.312 N 
ATOM      8  C   UNL     1      34.131 -22.033 -16.700  0.00  0.00    +0.001 C 
ATOM      9  C   UNL     1      35.759 -21.056 -18.155  0.00  0.00    +0.048 C 
ATOM     10  C   UNL     1      34.785 -20.779 -19.117  0.00  0.00    +0.015 C 
ATOM     11  C   UNL     1      35.462 -21.681 -16.939  0.00  0.00    +0.015 C 
ATOM     12  C   UNL     1      33.137 -21.769 -17.642  0.00  0.00    +0.000 C 
ATOM     13  C   UNL     1      33.448 -21.142 -18.854  0.00  0.00    +0.001 C 
ATOM     14  C   UNL     1      35.444 -20.148 -20.209  0.00  0.00    +0.017 C 
ATOM     15  C   UNL     1      36.780 -20.055 -19.894  0.00  0.00    +0.062 C 
ATOM     16  H   UNL     1      37.824 -20.670 -18.187  0.00  0.00    +0.152 HD
ENDBRANCH   1   8
BRANCH   2  17
ATOM     17  C   UNL     1      35.390 -23.516 -12.136  0.00  0.00    +0.114 C 
BRANCH  17  18
ATOM     18  N   UNL     1      36.094 -24.773 -12.161  0.00  0.00    -0.327 N 
ATOM     19  H   UNL     1      35.698 -25.536 -11.681  0.00  0.00    +0.147 HD
BRANCH  18  21
ATOM     20  N   UNL     1      38.554 -25.910 -14.686  0.00  0.00    -0.228 NA
ATOM     21  C   UNL     1      37.298 -24.970 -12.823  0.00  0.00    +0.077 C 
ATOM     22  C   UNL     1      37.402 -25.697 -14.011  0.00  0.00    +0.139 C 
ATOM     23  C   UNL     1      38.486 -24.431 -12.314  0.00  0.00    +0.019 C 
ATOM     24  C   UNL     1      39.691 -24.629 -12.979  0.00  0.00    +0.022 C 
ATOM     25  C   UNL     1      39.672 -25.369 -14.151  0.00  0.00    +0.100 C 
ATOM     26  N   UNL     1      36.213 -26.253 -14.546  0.00  0.00    -0.342 N 
ATOM     27  H   UNL     1      36.245 -26.772 -15.382  0.00  0.00    +0.144 HD
ATOM     28  H   UNL     1      35.355 -26.120 -14.083  0.00  0.00    +0.144 HD
ENDBRANCH  18  21
ENDBRANCH  17  18
ENDBRANCH   2  17
TORSDOF 4
ENDMDL
MODEL 3
REMARK VINA RESULT:     -11.5      5.316      9.365
REMARK  Name = 11507920
REMARK  4 active torsions:
REMARK  status: ('A' for Active; 'I' for Inactive)
REMARK    1  A    between atoms: C_1  and  C_8
REMARK    2  A    between atoms: C_2  and  C_17
REMARK    3  A    between atoms: C_17  and  N_18
REMARK    4  A    between atoms: N_18  and  C_21
REMARK                            x       y       z     vdW  Elec       q    Type
REMARK                         _______ _______ _______ _____ _____    ______ ____
ROOT
ATOM      1  C   UNL     1      34.994 -18.292 -21.627  0.00  0.00    -0.000 C 
ATOM      2  C   UNL     1      35.022 -16.000 -22.391  0.00  0.00    -0.003 C 
ATOM      3  C   UNL     1      35.016 -16.926 -21.347  0.00  0.00    -0.003 C 
ATOM      4  C   UNL     1      34.977 -18.734 -22.949  0.00  0.00    -0.000 C 
ATOM      5  C   UNL     1      35.005 -16.442 -23.714  0.00  0.00    -0.003 C 
ATOM      6  C   UNL     1      34.982 -17.809 -23.993  0.00  0.00    -0.000 C 
ENDROOT
BRANCH   1   8
ATOM      7  N   UNL     1      32.782 -21.339 -18.389  0.00  0.00    -0.312 N 
ATOM      8  C   UNL     1      34.987 -19.252 -20.543  0.00  0.00    +0.001 C 
ATOM      9  C   UNL     1      33.806 -20.684 -19.034  0.00  0.00    +0.048 C 
ATOM     10  C   UNL     1      35.000 -21.108 -18.446  0.00  0.00    +0.015 C 
ATOM     11  C   UNL     1      33.769 -19.758 -20.083  0.00  0.00    +0.015 C 
ATOM     12  C   UNL     1      36.194 -19.656 -19.975  0.00  0.00    +0.000 C 
ATOM     13  C   UNL     1      36.217 -20.583 -18.926  0.00  0.00    +0.001 C 
ATOM     14  C   UNL     1      34.655 -22.039 -17.427  0.00  0.00    +0.017 C 
ATOM     15  C   UNL     1      33.285 -22.160 -17.417  0.00  0.00    +0.062 C 
ATOM     16  H   UNL     1      31.825 -21.233 -18.597  0.00  0.00    +0.152 HD
ENDBRANCH   1   8
BRANCH   2  17
ATOM     17  C   UNL     1      35.045 -14.539 -22.093  0.00  0.00    +0.114 C 
BRANCH  17  18
ATOM     18  N   UNL     1      33.884 -13.858 -22.606  0.00  0.00    -0.327 N 
ATOM     19  H   UNL     1      33.000 -14.134 -22.273  0.00  0.00    +0.147 HD
BRANCH  18  21
ATOM     20  N   UNL     1      33.601 -12.036 -25.818  0.00  0.00    -0.228 NA
ATOM     21  C   UNL     1      33.940 -12.836 -23.543  0.00  0.00    +0.077 C 
ATOM     22  C   UNL     1      33.562 -13.006 -24.877  0.00  0.00    +0.139 C 
ATOM     23  C   UNL     1      34.388 -11.560 -23.178  0.00  0.00    +0.019 C 
ATOM     24  C   UNL     1      34.442 -10.537 -24.119  0.00  0.00    +0.022 C 
ATOM     25  C   UNL     1      34.041 -10.823 -25.414  0.00  0.00    +0.100 C 
ATOM     26  N   UNL     1      33.107 -14.289 -25.271  0.00  0.00    -0.342 N 
ATOM     27  H   UNL     1      32.831 -14.448 -26.203  0.00  0.00    +0.144 HD
ATOM     28  H   UNL     1      33.064 -15.021 -24.614  0.00  0.00    +0.144 HD
ENDBRANCH  18  21
ENDBRANCH  17  18
ENDBRANCH   2  17
TORSDOF 4
ENDMDL
MODEL 4
REMARK VINA RESULT:     -11.5      4.964      9.009
REMARK  Name = 11507920
REMARK  4 active torsions:
REMARK  status: ('A' for Active; 'I' for Inactive)
REMARK    1  A    between atoms: C_1  and  C_8
REMARK    2  A    between atoms: C_2  and  C_17
REMARK    3  A    between atoms: C_17  and  N_18
REMARK    4  A    between atoms: N_18  and  C_21
REMARK                            x       y       z     vdW  Elec       q    Type
REMARK                         _______ _______ _______ _____ _____    ______ ____
ROOT
ATOM      1  C   UNL     1      34.970 -18.393 -21.422  0.00  0.00    -0.000 C 
ATOM      2  C   UNL     1      35.146 -16.097 -22.152  0.00  0.00    -0.003 C 
ATOM      3  C   UNL     1      35.134 -17.041 -21.124  0.00  0.00    -0.003 C 
ATOM      4  C   UNL     1      34.817 -18.804 -22.745  0.00  0.00    -0.000 C 
ATOM      5  C   UNL     1      34.993 -16.508 -23.477  0.00  0.00    -0.003 C 
ATOM      6  C   UNL     1      34.827 -17.861 -23.773  0.00  0.00    -0.000 C 
ENDROOT
BRANCH   1   8
ATOM      7  N   UNL     1      32.735 -21.433 -18.192  0.00  0.00    -0.312 N 
ATOM      8  C   UNL     1      34.957 -19.372 -20.354  0.00  0.00    +0.001 C 
ATOM      9  C   UNL     1      33.765 -20.796 -18.847  0.00  0.00    +0.048 C 
ATOM     10  C   UNL     1      34.957 -21.263 -18.290  0.00  0.00    +0.015 C 
ATOM     11  C   UNL     1      33.733 -19.851 -19.879  0.00  0.00    +0.015 C 
ATOM     12  C   UNL     1      36.162 -19.820 -19.817  0.00  0.00    +0.000 C 
ATOM     13  C   UNL     1      36.179 -20.765 -18.785  0.00  0.00    +0.001 C 
ATOM     14  C   UNL     1      34.606 -22.202 -17.280  0.00  0.00    +0.017 C 
ATOM     15  C   UNL     1      33.233 -22.284 -17.244  0.00  0.00    +0.062 C 
ATOM     16  H   UNL     1      31.778 -21.296 -18.380  0.00  0.00    +0.152 HD
ENDBRANCH   1   8
BRANCH   2  17
ATOM     17  C   UNL     1      35.321 -14.650 -21.836  0.00  0.00    +0.114 C 
BRANCH  17  18
ATOM     18  N   UNL     1      34.342 -13.825 -22.494  0.00  0.00    -0.327 N 
ATOM     19  H   UNL     1      34.250 -13.902 -23.471  0.00  0.00    +0.147 HD
BRANCH  18  21
ATOM     20  N   UNL     1      32.483 -10.727 -21.678  0.00  0.00    -0.228 NA
ATOM     21  C   UNL     1      33.519 -12.925 -21.830  0.00  0.00    +0.077 C 
ATOM     22  C   UNL     1      33.277 -11.630 -22.294  0.00  0.00    +0.139 C 
ATOM     23  C   UNL     1      32.881 -13.291 -20.637  0.00  0.00    +0.019 C 
ATOM     24  C   UNL     1      32.058 -12.388 -19.974  0.00  0.00    +0.022 C 
ATOM     25  C   UNL     1      31.892 -11.130 -20.530  0.00  0.00    +0.100 C 
ATOM     26  N   UNL     1      33.912 -11.236 -23.499  0.00  0.00    -0.342 N 
ATOM     27  H   UNL     1      33.766 -10.331 -23.858  0.00  0.00    +0.144 HD
ATOM     28  H   UNL     1      34.498 -11.867 -23.976  0.00  0.00    +0.144 HD
ENDBRANCH  18  21
ENDBRANCH  17  18
ENDBRANCH   2  17
TORSDOF 4
ENDMDL
MODEL 5
REMARK VINA RESULT:     -11.4      3.331      8.952
REMARK  Name = 11507920
REMARK  4 active torsions:
REMARK  status: ('A' for Active; 'I' for Inactive)
REMARK    1  A    between atoms: C_1  and  C_8
REMARK    2  A    between atoms: C_2  and  C_17
REMARK    3  A    between atoms: C_17  and  N_18
REMARK    4  A    between atoms: N_18  and  C_21
REMARK                            x       y       z     vdW  Elec       q    Type
REMARK                         _______ _______ _______ _____ _____    ______ ____
ROOT
ATOM      1  C   UNL     1      35.386 -19.388 -20.167  0.00  0.00    -0.000 C 
ATOM      2  C   UNL     1      34.422 -20.988 -18.636  0.00  0.00    -0.003 C 
ATOM      3  C   UNL     1      34.268 -20.037 -19.645  0.00  0.00    -0.003 C 
ATOM      4  C   UNL     1      36.658 -19.687 -19.682  0.00  0.00    -0.000 C 
ATOM      5  C   UNL     1      35.695 -21.288 -18.149  0.00  0.00    -0.003 C 
ATOM      6  C   UNL     1      36.813 -20.637 -18.672  0.00  0.00    -0.000 C 
ENDROOT
BRANCH   1   8
ATOM      7  N   UNL     1      35.215 -14.745 -21.924  0.00  0.00    -0.312 N 
ATOM      8  C   UNL     1      35.225 -18.399 -21.214  0.00  0.00    +0.001 C 
ATOM      9  C   UNL     1      35.166 -16.121 -21.938  0.00  0.00    +0.048 C 
ATOM     10  C   UNL     1      34.909 -16.509 -23.255  0.00  0.00    +0.015 C 
ATOM     11  C   UNL     1      35.328 -17.042 -20.898  0.00  0.00    +0.015 C 
ATOM     12  C   UNL     1      34.969 -18.816 -22.519  0.00  0.00    +0.000 C 
ATOM     13  C   UNL     1      34.809 -17.883 -23.550  0.00  0.00    +0.001 C 
ATOM     14  C   UNL     1      34.807 -15.318 -24.028  0.00  0.00    +0.017 C 
ATOM     15  C   UNL     1      34.998 -14.252 -23.181  0.00  0.00    +0.062 C 
ATOM     16  H   UNL     1      35.381 -14.195 -21.123  0.00  0.00    +0.152 HD
ENDBRANCH   1   8
BRANCH   2  17
ATOM     17  C   UNL     1      33.228 -21.683 -18.076  0.00  0.00    +0.114 C 
BRANCH  17  18
ATOM     18  N   UNL     1      33.584 -22.683 -17.102  0.00  0.00    -0.327 N 
ATOM     19  H   UNL     1      34.262 -23.352 -17.351  0.00  0.00    +0.147 HD
BRANCH  18  21
ATOM     20  N   UNL     1      33.254 -23.197 -13.449  0.00  0.00    -0.228 NA
ATOM     21  C   UNL     1      33.026 -22.759 -15.833  0.00  0.00    +0.077 C 
ATOM     22  C   UNL     1      33.760 -23.114 -14.700  0.00  0.00    +0.139 C 
ATOM     23  C   UNL     1      31.669 -22.472 -15.635  0.00  0.00    +0.019 C 
ATOM     24  C   UNL     1      31.112 -22.547 -14.363  0.00  0.00    +0.022 C 
ATOM     25  C   UNL     1      31.940 -22.911 -13.312  0.00  0.00    +0.100 C 
ATOM     26  N   UNL     1      35.135 -23.411 -14.876  0.00  0.00    -0.342 N 
ATOM     27  H   UNL     1      35.686 -23.665 -14.100  0.00  0.00    +0.144 HD
ATOM     28  H   UNL     1      35.540 -23.361 -15.771  0.00  0.00    +0.144 HD
ENDBRANCH  18  21
ENDBRANCH  17  18
ENDBRANCH   2  17
TORSDOF 4
ENDMDL
MODEL 6
REMARK VINA RESULT:     -11.3      2.191      7.975
REMARK  Name = 11507920
REMARK  4 active torsions:
REMARK  status: ('A' for Active; 'I' for Inactive)
REMARK    1  A    between atoms: C_1  and  C_8
REMARK    2  A    between atoms: C_2  and  C_17
REMARK    3  A    between atoms: C_17  and  N_18
REMARK    4  A    between atoms: N_18  and  C_21
REMARK                            x       y       z     vdW  Elec       q    Type
REMARK                         _______ _______ _______ _____ _____    ______ ____
ROOT
ATOM      1  C   UNL     1      35.088 -21.219 -17.806  0.00  0.00    -0.000 C 
ATOM      2  C   UNL     1      36.357 -22.036 -15.920  0.00  0.00    -0.003 C 
ATOM      3  C   UNL     1      36.265 -21.236 -17.060  0.00  0.00    -0.003 C 
ATOM      4  C   UNL     1      34.002 -22.002 -17.416  0.00  0.00    -0.000 C 
ATOM      5  C   UNL     1      35.271 -22.819 -15.529  0.00  0.00    -0.003 C 
ATOM      6  C   UNL     1      34.093 -22.803 -16.278  0.00  0.00    -0.000 C 
ENDROOT
BRANCH   1   8
ATOM      7  N   UNL     1      36.928 -18.170 -21.268  0.00  0.00    -0.312 N 
ATOM      8  C   UNL     1      34.994 -20.390 -18.990  0.00  0.00    +0.001 C 
ATOM      9  C   UNL     1      35.996 -18.930 -20.597  0.00  0.00    +0.048 C 
ATOM     10  C   UNL     1      34.785 -18.792 -21.279  0.00  0.00    +0.015 C 
ATOM     11  C   UNL     1      36.130 -19.721 -19.451  0.00  0.00    +0.015 C 
ATOM     12  C   UNL     1      33.772 -20.270 -19.650  0.00  0.00    +0.000 C 
ATOM     13  C   UNL     1      33.652 -19.475 -20.795  0.00  0.00    +0.001 C 
ATOM     14  C   UNL     1      35.025 -17.924 -22.382  0.00  0.00    +0.017 C 
ATOM     15  C   UNL     1      36.350 -17.559 -22.347  0.00  0.00    +0.062 C 
ATOM     16  H   UNL     1      37.874 -18.080 -21.009  0.00  0.00    +0.152 HD
ENDBRANCH   1   8
BRANCH   2  17
ATOM     17  C   UNL     1      37.615 -22.055 -15.120  0.00  0.00    +0.114 C 
BRANCH  17  18
ATOM     18  N   UNL     1      38.148 -23.385 -14.971  0.00  0.00    -0.327 N 
ATOM     19  H   UNL     1      38.660 -23.767 -15.720  0.00  0.00    +0.147 HD
BRANCH  18  21
ATOM     20  N   UNL     1      37.391 -26.280 -12.788  0.00  0.00    -0.228 NA
ATOM     21  C   UNL     1      37.980 -24.161 -13.831  0.00  0.00    +0.077 C 
ATOM     22  C   UNL     1      37.565 -25.493 -13.874  0.00  0.00    +0.139 C 
ATOM     23  C   UNL     1      38.229 -23.623 -12.562  0.00  0.00    +0.019 C 
ATOM     24  C   UNL     1      38.061 -24.401 -11.422  0.00  0.00    +0.022 C 
ATOM     25  C   UNL     1      37.645 -25.713 -11.587  0.00  0.00    +0.100 C 
ATOM     26  N   UNL     1      37.305 -26.059 -15.147  0.00  0.00    -0.342 N 
ATOM     27  H   UNL     1      37.010 -26.996 -15.218  0.00  0.00    +0.144 HD
ATOM     28  H   UNL     1      37.420 -25.517 -15.960  0.00  0.00    +0.144 HD
ENDBRANCH  18  21
ENDBRANCH  17  18
ENDBRANCH   2  17
TORSDOF 4
ENDMDL
MODEL 7
REMARK VINA RESULT:     -11.3      1.802      7.242
REMARK  Name = 11507920
REMARK  4 active torsions:
REMARK  status: ('A' for Active; 'I' for Inactive)
REMARK    1  A    between atoms: C_1  and  C_8
REMARK    2  A    between atoms: C_2  and  C_17
REMARK    3  A    between atoms: C_17  and  N_18
REMARK    4  A    between atoms: N_18  and  C_21
REMARK                            x       y       z     vdW  Elec       q    Type
REMARK                         _______ _______ _______ _____ _____    ______ ____
ROOT
ATOM      1  C   UNL     1      34.137 -21.883 -16.872  0.00  0.00    -0.000 C 
ATOM      2  C   UNL     1      34.367 -22.843 -14.668  0.00  0.00    -0.003 C 
ATOM      3  C   UNL     1      34.916 -22.150 -15.747  0.00  0.00    -0.003 C 
ATOM      4  C   UNL     1      32.810 -22.309 -16.921  0.00  0.00    -0.000 C 
ATOM      5  C   UNL     1      33.040 -23.270 -14.716  0.00  0.00    -0.003 C 
ATOM      6  C   UNL     1      32.261 -23.004 -15.843  0.00  0.00    -0.000 C 
ENDROOT
BRANCH   1   8
ATOM      7  N   UNL     1      33.873 -19.237 -21.067  0.00  0.00    -0.312 N 
ATOM      8  C   UNL     1      34.707 -21.164 -17.993  0.00  0.00    +0.001 C 
ATOM      9  C   UNL     1      34.449 -19.898 -20.006  0.00  0.00    +0.048 C 
ATOM     10  C   UNL     1      35.833 -19.781 -20.151  0.00  0.00    +0.015 C 
ATOM     11  C   UNL     1      33.858 -20.583 -18.939  0.00  0.00    +0.015 C 
ATOM     12  C   UNL     1      36.092 -21.064 -18.113  0.00  0.00    +0.000 C 
ATOM     13  C   UNL     1      36.670 -20.376 -19.186  0.00  0.00    +0.001 C 
ATOM     14  C   UNL     1      36.066 -19.027 -21.335  0.00  0.00    +0.017 C 
ATOM     15  C   UNL     1      34.842 -18.708 -21.876  0.00  0.00    +0.062 C 
ATOM     16  H   UNL     1      32.904 -19.157 -21.222  0.00  0.00    +0.152 HD
ENDBRANCH   1   8
BRANCH   2  17
ATOM     17  C   UNL     1      35.199 -23.129 -13.464  0.00  0.00    +0.114 C 
BRANCH  17  18
ATOM     18  N   UNL     1      35.687 -24.484 -13.446  0.00  0.00    -0.327 N 
ATOM     19  H   UNL     1      35.028 -25.214 -13.393  0.00  0.00    +0.147 HD
BRANCH  18  21
ATOM     20  N   UNL     1      38.837 -26.167 -14.426  0.00  0.00    -0.228 NA
ATOM     21  C   UNL     1      37.033 -24.821 -13.498  0.00  0.00    +0.077 C 
ATOM     22  C   UNL     1      37.536 -25.812 -14.345  0.00  0.00    +0.139 C 
ATOM     23  C   UNL     1      37.963 -24.162 -12.685  0.00  0.00    +0.019 C 
ATOM     24  C   UNL     1      39.311 -24.501 -12.740  0.00  0.00    +0.022 C 
ATOM     25  C   UNL     1      39.694 -25.501 -13.619  0.00  0.00    +0.100 C 
ATOM     26  N   UNL     1      36.613 -26.494 -15.177  0.00  0.00    -0.342 N 
ATOM     27  H   UNL     1      36.929 -27.199 -15.788  0.00  0.00    +0.144 HD
ATOM     28  H   UNL     1      35.657 -26.263 -15.146  0.00  0.00    +0.144 HD
ENDBRANCH  18  21
ENDBRANCH  17  18
ENDBRANCH   2  17
TORSDOF 4
ENDMDL
MODEL 8
REMARK VINA RESULT:     -11.3      5.259      9.281
REMARK  Name = 11507920
REMARK  4 active torsions:
REMARK  status: ('A' for Active; 'I' for Inactive)
REMARK    1  A    between atoms: C_1  and  C_8
REMARK    2  A    between atoms: C_2  and  C_17
REMARK    3  A    between atoms: C_17  and  N_18
REMARK    4  A    between atoms: N_18  and  C_21
REMARK                            x       y       z     vdW  Elec       q    Type
REMARK                         _______ _______ _______ _____ _____    ______ ____
ROOT
ATOM      1  C   UNL     1      34.969 -18.239 -21.597  0.00  0.00    -0.000 C 
ATOM      2  C   UNL     1      35.033 -15.937 -22.327  0.00  0.00    -0.003 C 
ATOM      3  C   UNL     1      35.041 -16.879 -21.297  0.00  0.00    -0.003 C 
ATOM      4  C   UNL     1      34.887 -18.659 -22.923  0.00  0.00    -0.000 C 
ATOM      5  C   UNL     1      34.951 -16.357 -23.655  0.00  0.00    -0.003 C 
ATOM      6  C   UNL     1      34.878 -17.718 -23.953  0.00  0.00    -0.000 C 
ENDROOT
BRANCH   1   8
ATOM      7  N   UNL     1      32.800 -21.326 -18.367  0.00  0.00    -0.312 N 
ATOM      8  C   UNL     1      34.976 -19.216 -20.527  0.00  0.00    +0.001 C 
ATOM      9  C   UNL     1      33.815 -20.665 -19.020  0.00  0.00    +0.048 C 
ATOM     10  C   UNL     1      35.017 -21.103 -18.460  0.00  0.00    +0.015 C 
ATOM     11  C   UNL     1      33.764 -19.724 -20.054  0.00  0.00    +0.015 C 
ATOM     12  C   UNL     1      36.191 -19.634 -19.987  0.00  0.00    +0.000 C 
ATOM     13  C   UNL     1      36.228 -20.577 -18.953  0.00  0.00    +0.001 C 
ATOM     14  C   UNL     1      34.686 -22.049 -17.449  0.00  0.00    +0.017 C 
ATOM     15  C   UNL     1      33.316 -22.163 -17.416  0.00  0.00    +0.062 C 
ATOM     16  H   UNL     1      31.840 -21.212 -18.557  0.00  0.00    +0.152 HD
ENDBRANCH   1   8
BRANCH   2  17
ATOM     17  C   UNL     1      35.110 -14.482 -22.009  0.00  0.00    +0.114 C 
BRANCH  17  18
ATOM     18  N   UNL     1      33.809 -13.866 -21.952  0.00  0.00    -0.327 N 
ATOM     19  H   UNL     1      33.037 -14.431 -21.721  0.00  0.00    +0.147 HD
BRANCH  18  21
ATOM     20  N   UNL     1      32.378 -10.456 -21.731  0.00  0.00    -0.228 NA
ATOM     21  C   UNL     1      33.582 -12.519 -22.205  0.00  0.00    +0.077 C 
ATOM     22  C   UNL     1      32.629 -11.767 -21.515  0.00  0.00    +0.139 C 
ATOM     23  C   UNL     1      34.319 -11.845 -23.186  0.00  0.00    +0.019 C 
ATOM     24  C   UNL     1      34.090 -10.497 -23.438  0.00  0.00    +0.022 C 
ATOM     25  C   UNL     1      33.118  -9.853 -22.689  0.00  0.00    +0.100 C 
ATOM     26  N   UNL     1      31.868 -12.428 -20.518  0.00  0.00    -0.342 N 
ATOM     27  H   UNL     1      31.187 -11.931 -20.009  0.00  0.00    +0.144 HD
ATOM     28  H   UNL     1      32.021 -13.382 -20.332  0.00  0.00    +0.144 HD
ENDBRANCH  18  21
ENDBRANCH  17  18
ENDBRANCH   2  17
TORSDOF 4
ENDMDL
MODEL 9
REMARK VINA RESULT:     -11.2      3.624      9.057
REMARK  Name = 11507920
REMARK  4 active torsions:
REMARK  status: ('A' for Active; 'I' for Inactive)
REMARK    1  A    between atoms: C_1  and  C_8
REMARK    2  A    between atoms: C_2  and  C_17
REMARK    3  A    between atoms: C_17  and  N_18
REMARK    4  A    between atoms: N_18  and  C_21
REMARK                            x       y       z     vdW  Elec       q    Type
REMARK                         _______ _______ _______ _____ _____    ______ ____
ROOT
ATOM      1  C   UNL     1      35.487 -19.340 -20.155  0.00  0.00    -0.000 C 
ATOM      2  C   UNL     1      34.601 -21.222 -18.927  0.00  0.00    -0.003 C 
ATOM      3  C   UNL     1      34.436 -20.213 -19.877  0.00  0.00    -0.003 C 
ATOM      4  C   UNL     1      36.702 -19.473 -19.485  0.00  0.00    -0.000 C 
ATOM      5  C   UNL     1      35.816 -21.355 -18.255  0.00  0.00    -0.003 C 
ATOM      6  C   UNL     1      36.867 -20.480 -18.534  0.00  0.00    -0.000 C 
ENDROOT
BRANCH   1   8
ATOM      7  N   UNL     1      34.193 -17.592 -24.620  0.00  0.00    -0.312 N 
ATOM      8  C   UNL     1      35.316 -18.293 -21.141  0.00  0.00    +0.001 C 
ATOM      9  C   UNL     1      34.659 -17.573 -23.325  0.00  0.00    +0.048 C 
ATOM     10  C   UNL     1      34.994 -16.250 -23.029  0.00  0.00    +0.015 C 
ATOM     11  C   UNL     1      34.810 -18.615 -22.403  0.00  0.00    +0.015 C 
ATOM     12  C   UNL     1      35.658 -16.981 -20.816  0.00  0.00    +0.000 C 
ATOM     13  C   UNL     1      35.503 -15.950 -21.749  0.00  0.00    +0.001 C 
ATOM     14  C   UNL     1      34.711 -15.478 -24.190  0.00  0.00    +0.017 C 
ATOM     15  C   UNL     1      34.221 -16.331 -25.151  0.00  0.00    +0.062 C 
ATOM     16  H   UNL     1      33.884 -18.397 -25.096  0.00  0.00    +0.152 HD
ENDBRANCH   1   8
BRANCH   2  17
ATOM     17  C   UNL     1      33.478 -22.157 -18.628  0.00  0.00    +0.114 C 
BRANCH  17  18
ATOM     18  N   UNL     1      32.635 -21.675 -17.564  0.00  0.00    -0.327 N 
ATOM     19  H   UNL     1      32.127 -20.845 -17.713  0.00  0.00    +0.147 HD
BRANCH  18  21
ATOM     20  N   UNL     1      31.082 -23.186 -14.559  0.00  0.00    -0.228 NA
ATOM     21  C   UNL     1      32.498 -22.314 -16.338  0.00  0.00    +0.077 C 
ATOM     22  C   UNL     1      31.257 -22.567 -15.748  0.00  0.00    +0.139 C 
ATOM     23  C   UNL     1      33.627 -22.743 -15.629  0.00  0.00    +0.019 C 
ATOM     24  C   UNL     1      33.487 -23.383 -14.403  0.00  0.00    +0.022 C 
ATOM     25  C   UNL     1      32.205 -23.580 -13.916  0.00  0.00    +0.100 C 
ATOM     26  N   UNL     1      30.100 -22.140 -16.446  0.00  0.00    -0.342 N 
ATOM     27  H   UNL     1      29.207 -22.301 -16.062  0.00  0.00    +0.144 HD
ATOM     28  H   UNL     1      30.187 -21.686 -17.314  0.00  0.00    +0.144 HD
ENDBRANCH  18  21
ENDBRANCH  17  18
ENDBRANCH   2  17
TORSDOF 4
ENDMDL
