MODEL 1
REMARK VINA RESULT:     -11.9      0.000      0.000
REMARK  Name = 12136798
REMARK  7 active torsions:
REMARK  status: ('A' for Active; 'I' for Inactive)
REMARK    1  A    between atoms: C_1  and  C_21
REMARK    2  A    between atoms: C_2  and  C_9
REMARK    3  A    between atoms: N_8  and  C_12
REMARK    4  A    between atoms: C_13  and  N_18
REMARK    5  A    between atoms: C_21  and  N_23
REMARK    6  A    between atoms: C_24  and  C_26
REMARK    7  A    between atoms: C_27  and  C_29
REMARK                            x       y       z     vdW  Elec       q    Type
REMARK                         _______ _______ _______ _____ _____    ______ ____
ROOT
ATOM      1  C   UNL     1      35.357 -19.052 -20.348  0.00  0.00    -0.003 C 
ATOM      2  C   UNL     1      34.364 -21.103 -18.756  0.00  0.00    +0.054 C 
ATOM      3  C   UNL     1      36.237 -19.853 -19.631  0.00  0.00    -0.002 C 
ATOM      4  C   UNL     1      33.986 -19.264 -20.276  0.00  0.00    -0.002 C 
ATOM      5  C   UNL     1      35.740 -20.883 -18.832  0.00  0.00    +0.004 C 
ATOM      6  C   UNL     1      33.487 -20.293 -19.478  0.00  0.00    +0.004 C 
ENDROOT
BRANCH   2   9
ATOM      7  O   UNL     1      33.903 -23.344 -18.335  0.00  0.00    -0.270 OA
ATOM      8  N   UNL     1      33.331 -21.786 -16.676  0.00  0.00    -0.279 N 
ATOM      9  C   UNL     1      33.844 -22.175 -17.921  0.00  0.00    +0.250 C 
ATOM     10  H   UNL     1      33.352 -20.820 -16.487  0.00  0.00    +0.155 HD
BRANCH   8  12
ATOM     11  F   UNL     1      31.274 -24.978 -12.661  0.00  0.00    -0.204 F 
ATOM     12  C   UNL     1      32.786 -22.601 -15.654  0.00  0.00    +0.064 C 
ATOM     13  C   UNL     1      31.416 -22.787 -15.562  0.00  0.00    +0.057 C 
ATOM     14  C   UNL     1      33.656 -23.199 -14.756  0.00  0.00    +0.018 C 
ATOM     15  C   UNL     1      30.903 -23.594 -14.547  0.00  0.00    +0.045 C 
ATOM     16  C   UNL     1      33.143 -24.006 -13.741  0.00  0.00    +0.031 C 
ATOM     17  C   UNL     1      31.766 -24.203 -13.636  0.00  0.00    +0.141 C 
BRANCH  13  18
ATOM     18  N   UNL     1      30.524 -22.181 -16.473  0.00  0.00    -0.356 N 
ATOM     19  H   UNL     1      29.725 -22.669 -16.778  0.00  0.00    +0.142 HD
ATOM     20  H   UNL     1      30.698 -21.269 -16.802  0.00  0.00    +0.142 HD
ENDBRANCH  13  18
ENDBRANCH   8  12
ENDBRANCH   2   9
BRANCH   1  21
ATOM     21  C   UNL     1      35.893 -17.944 -21.208  0.00  0.00    +0.117 C 
BRANCH  21  23
ATOM     22  O   UNL     1      35.653 -15.589 -22.879  0.00  0.00    -0.270 OA
ATOM     23  N   UNL     1      35.345 -16.658 -20.838  0.00  0.00    -0.297 N 
ATOM     24  C   UNL     1      35.273 -15.587 -21.713  0.00  0.00    +0.246 C 
ATOM     25  H   UNL     1      35.007 -16.538 -19.921  0.00  0.00    +0.150 HD
BRANCH  24  26
ATOM     26  C   UNL     1      34.666 -14.387 -21.071  0.00  0.00    +0.058 C 
ATOM     27  C   UNL     1      33.615 -13.781 -21.643  0.00  0.00    +0.006 C 
BRANCH  27  29
ATOM     28  N   UNL     1      32.251 -10.314 -21.374  0.00  0.00    -0.242 NA
ATOM     29  C   UNL     1      32.930 -12.598 -21.092  0.00  0.00    +0.019 C 
ATOM     30  C   UNL     1      32.351 -12.650 -19.842  0.00  0.00    +0.003 C 
ATOM     31  C   UNL     1      32.864 -11.435 -21.821  0.00  0.00    +0.099 C 
ATOM     32  C   UNL     1      31.712 -11.518 -19.348  0.00  0.00    +0.021 C 
ATOM     33  C   UNL     1      31.690 -10.386 -20.146  0.00  0.00    +0.099 C 
ENDBRANCH  27  29
ENDBRANCH  24  26
ENDBRANCH  21  23
ENDBRANCH   1  21
TORSDOF 7
ENDMDL
MODEL 2
REMARK VINA RESULT:     -11.7      0.753      1.632
REMARK  Name = 12136798
REMARK  7 active torsions:
REMARK  status: ('A' for Active; 'I' for Inactive)
REMARK    1  A    between atoms: C_1  and  C_21
REMARK    2  A    between atoms: C_2  and  C_9
REMARK    3  A    between atoms: N_8  and  C_12
REMARK    4  A    between atoms: C_13  and  N_18
REMARK    5  A    between atoms: C_21  and  N_23
REMARK    6  A    between atoms: C_24  and  C_26
REMARK    7  A    between atoms: C_27  and  C_29
REMARK                            x       y       z     vdW  Elec       q    Type
REMARK                         _______ _______ _______ _____ _____    ______ ____
ROOT
ATOM      1  C   UNL     1      35.317 -19.106 -20.257  0.00  0.00    -0.003 C 
ATOM      2  C   UNL     1      34.120 -21.091 -18.724  0.00  0.00    +0.054 C 
ATOM      3  C   UNL     1      33.935 -19.250 -20.276  0.00  0.00    -0.002 C 
ATOM      4  C   UNL     1      36.107 -19.944 -19.481  0.00  0.00    -0.002 C 
ATOM      5  C   UNL     1      33.334 -20.246 -19.506  0.00  0.00    +0.004 C 
ATOM      6  C   UNL     1      35.507 -20.941 -18.711  0.00  0.00    +0.004 C 
ENDROOT
BRANCH   2   9
ATOM      7  O   UNL     1      33.846 -23.311 -18.084  0.00  0.00    -0.270 OA
ATOM      8  N   UNL     1      32.541 -21.696 -16.992  0.00  0.00    -0.279 N 
ATOM      9  C   UNL     1      33.494 -22.132 -17.922  0.00  0.00    +0.250 C 
ATOM     10  H   UNL     1      32.368 -20.726 -16.979  0.00  0.00    +0.155 HD
BRANCH   8  12
ATOM     11  F   UNL     1      29.558 -24.686 -13.427  0.00  0.00    -0.204 F 
ATOM     12  C   UNL     1      31.793 -22.467 -16.069  0.00  0.00    +0.064 C 
ATOM     13  C   UNL     1      32.430 -23.140 -15.040  0.00  0.00    +0.057 C 
ATOM     14  C   UNL     1      30.417 -22.528 -16.227  0.00  0.00    +0.018 C 
ATOM     15  C   UNL     1      31.672 -23.893 -14.143  0.00  0.00    +0.045 C 
ATOM     16  C   UNL     1      29.659 -23.280 -15.330  0.00  0.00    +0.031 C 
ATOM     17  C   UNL     1      30.286 -23.964 -14.288  0.00  0.00    +0.141 C 
BRANCH  13  18
ATOM     18  N   UNL     1      33.831 -23.083 -14.873  0.00  0.00    -0.356 N 
ATOM     19  H   UNL     1      34.392 -23.840 -15.159  0.00  0.00    +0.142 HD
ATOM     20  H   UNL     1      34.248 -22.286 -14.472  0.00  0.00    +0.142 HD
ENDBRANCH  13  18
ENDBRANCH   8  12
ENDBRANCH   2   9
BRANCH   1  21
ATOM     21  C   UNL     1      35.964 -18.033 -21.085  0.00  0.00    +0.117 C 
BRANCH  21  23
ATOM     22  O   UNL     1      35.653 -15.802 -22.907  0.00  0.00    -0.270 OA
ATOM     23  N   UNL     1      35.434 -16.722 -20.783  0.00  0.00    -0.297 N 
ATOM     24  C   UNL     1      35.324 -15.716 -21.728  0.00  0.00    +0.246 C 
ATOM     25  H   UNL     1      35.137 -16.537 -19.863  0.00  0.00    +0.150 HD
BRANCH  24  26
ATOM     26  C   UNL     1      34.747 -14.471 -21.146  0.00  0.00    +0.058 C 
ATOM     27  C   UNL     1      33.683 -13.893 -21.722  0.00  0.00    +0.006 C 
BRANCH  27  29
ATOM     28  N   UNL     1      32.425 -10.379 -21.604  0.00  0.00    -0.242 NA
ATOM     29  C   UNL     1      33.026 -12.670 -21.228  0.00  0.00    +0.019 C 
ATOM     30  C   UNL     1      32.420 -12.659 -19.989  0.00  0.00    +0.003 C 
ATOM     31  C   UNL     1      33.011 -11.533 -21.998  0.00  0.00    +0.099 C 
ATOM     32  C   UNL     1      31.808 -11.491 -19.549  0.00  0.00    +0.021 C 
ATOM     33  C   UNL     1      31.837 -10.389 -20.387  0.00  0.00    +0.099 C 
ENDBRANCH  27  29
ENDBRANCH  24  26
ENDBRANCH  21  23
ENDBRANCH   1  21
TORSDOF 7
ENDMDL
MODEL 3
REMARK VINA RESULT:     -11.7      1.985      2.828
REMARK  Name = 12136798
REMARK  7 active torsions:
REMARK  status: ('A' for Active; 'I' for Inactive)
REMARK    1  A    between atoms: C_1  and  C_21
REMARK    2  A    between atoms: C_2  and  C_9
REMARK    3  A    between atoms: N_8  and  C_12
REMARK    4  A    between atoms: C_13  and  N_18
REMARK    5  A    between atoms: C_21  and  N_23
REMARK    6  A    between atoms: C_24  and  C_26
REMARK    7  A    between atoms: C_27  and  C_29
REMARK                            x       y       z     vdW  Elec       q    Type
REMARK                         _______ _______ _______ _____ _____    ______ ____
ROOT
ATOM      1  C   UNL     1      35.712 -18.598 -20.777  0.00  0.00    -0.003 C 
ATOM      2  C   UNL     1      35.394 -20.595 -18.869  0.00  0.00    +0.054 C 
ATOM      3  C   UNL     1      34.449 -19.126 -20.538  0.00  0.00    -0.002 C 
ATOM      4  C   UNL     1      36.818 -19.059 -20.073  0.00  0.00    -0.002 C 
ATOM      5  C   UNL     1      34.288 -20.127 -19.580  0.00  0.00    +0.004 C 
ATOM      6  C   UNL     1      36.658 -20.061 -19.115  0.00  0.00    +0.004 C 
ENDROOT
BRANCH   2   9
ATOM      7  O   UNL     1      34.530 -22.630 -18.146  0.00  0.00    -0.270 OA
ATOM      8  N   UNL     1      35.909 -21.446 -16.663  0.00  0.00    -0.279 N 
ATOM      9  C   UNL     1      35.227 -21.641 -17.872  0.00  0.00    +0.250 C 
ATOM     10  H   UNL     1      36.423 -20.609 -16.591  0.00  0.00    +0.155 HD
BRANCH   8  12
ATOM     11  F   UNL     1      36.009 -24.754 -12.236  0.00  0.00    -0.204 F 
ATOM     12  C   UNL     1      35.954 -22.294 -15.529  0.00  0.00    +0.064 C 
ATOM     13  C   UNL     1      37.168 -22.758 -15.050  0.00  0.00    +0.057 C 
ATOM     14  C   UNL     1      34.758 -22.644 -14.922  0.00  0.00    +0.018 C 
ATOM     15  C   UNL     1      37.187 -23.592 -13.932  0.00  0.00    +0.045 C 
ATOM     16  C   UNL     1      34.777 -23.478 -13.805  0.00  0.00    +0.031 C 
ATOM     17  C   UNL     1      35.991 -23.953 -13.310  0.00  0.00    +0.141 C 
BRANCH  13  18
ATOM     18  N   UNL     1      38.390 -22.406 -15.663  0.00  0.00    -0.356 N 
ATOM     19  H   UNL     1      39.034 -21.836 -15.184  0.00  0.00    +0.142 HD
ATOM     20  H   UNL     1      38.599 -22.732 -16.568  0.00  0.00    +0.142 HD
ENDBRANCH  13  18
ENDBRANCH   8  12
ENDBRANCH   2   9
BRANCH   1  21
ATOM     21  C   UNL     1      35.885 -17.520 -21.807  0.00  0.00    +0.117 C 
BRANCH  21  23
ATOM     22  O   UNL     1      35.397 -15.153 -23.405  0.00  0.00    -0.270 OA
ATOM     23  N   UNL     1      35.359 -16.251 -21.356  0.00  0.00    -0.297 N 
ATOM     24  C   UNL     1      35.160 -15.172 -22.202  0.00  0.00    +0.246 C 
ATOM     25  H   UNL     1      35.132 -16.149 -20.403  0.00  0.00    +0.150 HD
BRANCH  24  26
ATOM     26  C   UNL     1      34.610 -13.993 -21.475  0.00  0.00    +0.058 C 
ATOM     27  C   UNL     1      33.425 -13.478 -21.835  0.00  0.00    +0.006 C 
BRANCH  27  29
ATOM     28  N   UNL     1      32.124 -10.020 -21.290  0.00  0.00    -0.242 NA
ATOM     29  C   UNL     1      32.782 -12.324 -21.182  0.00  0.00    +0.019 C 
ATOM     30  C   UNL     1      32.256 -12.448 -19.913  0.00  0.00    +0.003 C 
ATOM     31  C   UNL     1      32.701 -11.117 -21.832  0.00  0.00    +0.099 C 
ATOM     32  C   UNL     1      31.655 -11.342 -19.321  0.00  0.00    +0.021 C 
ATOM     33  C   UNL     1      31.615 -10.162 -20.045  0.00  0.00    +0.099 C 
ENDBRANCH  27  29
ENDBRANCH  24  26
ENDBRANCH  21  23
ENDBRANCH   1  21
TORSDOF 7
ENDMDL
MODEL 4
REMARK VINA RESULT:     -11.5      1.983      2.599
REMARK  Name = 12136798
REMARK  7 active torsions:
REMARK  status: ('A' for Active; 'I' for Inactive)
REMARK    1  A    between atoms: C_1  and  C_21
REMARK    2  A    between atoms: C_2  and  C_9
REMARK    3  A    between atoms: N_8  and  C_12
REMARK    4  A    between atoms: C_13  and  N_18
REMARK    5  A    between atoms: C_21  and  N_23
REMARK    6  A    between atoms: C_24  and  C_26
REMARK    7  A    between atoms: C_27  and  C_29
REMARK                            x       y       z     vdW  Elec       q    Type
REMARK                         _______ _______ _______ _____ _____    ______ ____
ROOT
ATOM      1  C   UNL     1      35.758 -18.136 -21.090  0.00  0.00    -0.003 C 
ATOM      2  C   UNL     1      35.581 -20.257 -19.303  0.00  0.00    +0.054 C 
ATOM      3  C   UNL     1      34.526 -18.730 -20.848  0.00  0.00    -0.002 C 
ATOM      4  C   UNL     1      36.904 -18.591 -20.449  0.00  0.00    -0.002 C 
ATOM      5  C   UNL     1      34.436 -19.794 -19.950  0.00  0.00    +0.004 C 
ATOM      6  C   UNL     1      36.815 -19.656 -19.551  0.00  0.00    +0.004 C 
ENDROOT
BRANCH   2   9
ATOM      7  O   UNL     1      34.943 -22.421 -18.735  0.00  0.00    -0.270 OA
ATOM      8  N   UNL     1      36.063 -21.155 -17.107  0.00  0.00    -0.279 N 
ATOM      9  C   UNL     1      35.489 -21.368 -18.368  0.00  0.00    +0.250 C 
ATOM     10  H   UNL     1      36.460 -20.266 -16.963  0.00  0.00    +0.155 HD
BRANCH   8  12
ATOM     11  F   UNL     1      36.464 -24.641 -12.836  0.00  0.00    -0.204 F 
ATOM     12  C   UNL     1      36.146 -22.052 -16.014  0.00  0.00    +0.064 C 
ATOM     13  C   UNL     1      35.007 -22.668 -15.525  0.00  0.00    +0.057 C 
ATOM     14  C   UNL     1      37.391 -22.289 -15.452  0.00  0.00    +0.018 C 
ATOM     15  C   UNL     1      35.114 -23.548 -14.447  0.00  0.00    +0.045 C 
ATOM     16  C   UNL     1      37.498 -23.168 -14.375  0.00  0.00    +0.031 C 
ATOM     17  C   UNL     1      36.360 -23.797 -13.871  0.00  0.00    +0.141 C 
BRANCH  13  18
ATOM     18  N   UNL     1      33.735 -22.431 -16.091  0.00  0.00    -0.356 N 
ATOM     19  H   UNL     1      33.657 -21.916 -16.927  0.00  0.00    +0.142 HD
ATOM     20  H   UNL     1      32.926 -22.782 -15.652  0.00  0.00    +0.142 HD
ENDBRANCH  13  18
ENDBRANCH   8  12
ENDBRANCH   2   9
BRANCH   1  21
ATOM     21  C   UNL     1      35.855 -16.990 -22.055  0.00  0.00    +0.117 C 
BRANCH  21  23
ATOM     22  O   UNL     1      34.897 -14.675 -23.510  0.00  0.00    -0.270 OA
ATOM     23  N   UNL     1      35.314 -15.768 -21.502  0.00  0.00    -0.297 N 
ATOM     24  C   UNL     1      34.880 -14.712 -22.284  0.00  0.00    +0.246 C 
ATOM     25  H   UNL     1      35.251 -15.684 -20.523  0.00  0.00    +0.150 HD
BRANCH  24  26
ATOM     26  C   UNL     1      34.371 -13.582 -21.456  0.00  0.00    +0.058 C 
ATOM     27  C   UNL     1      33.102 -13.170 -21.593  0.00  0.00    +0.006 C 
BRANCH  27  29
ATOM     28  N   UNL     1      31.743  -9.795 -20.748  0.00  0.00    -0.242 NA
ATOM     29  C   UNL     1      32.492 -12.073 -20.820  0.00  0.00    +0.019 C 
ATOM     30  C   UNL     1      32.111 -12.274 -19.511  0.00  0.00    +0.003 C 
ATOM     31  C   UNL     1      32.298 -10.843 -21.400  0.00  0.00    +0.099 C 
ATOM     32  C   UNL     1      31.538 -11.220 -18.807  0.00  0.00    +0.021 C 
ATOM     33  C   UNL     1      31.377 -10.012 -19.465  0.00  0.00    +0.099 C 
ENDBRANCH  27  29
ENDBRANCH  24  26
ENDBRANCH  21  23
ENDBRANCH   1  21
TORSDOF 7
ENDMDL
MODEL 5
REMARK VINA RESULT:     -11.5      4.950     12.231
REMARK  Name = 12136798
REMARK  7 active torsions:
REMARK  status: ('A' for Active; 'I' for Inactive)
REMARK    1  A    between atoms: C_1  and  C_21
REMARK    2  A    between atoms: C_2  and  C_9
REMARK    3  A    between atoms: N_8  and  C_12
REMARK    4  A    between atoms: C_13  and  N_18
REMARK    5  A    between atoms: C_21  and  N_23
REMARK    6  A    between atoms: C_24  and  C_26
REMARK    7  A    between atoms: C_27  and  C_29
REMARK                            x       y       z     vdW  Elec       q    Type
REMARK                         _______ _______ _______ _____ _____    ______ ____
ROOT
ATOM      1  C   UNL     1      34.461 -13.678 -22.236  0.00  0.00    -0.003 C 
ATOM      2  C   UNL     1      32.938 -11.428 -21.648  0.00  0.00    +0.054 C 
ATOM      3  C   UNL     1      33.749 -13.622 -21.044  0.00  0.00    -0.002 C 
ATOM      4  C   UNL     1      34.422 -12.620 -23.136  0.00  0.00    -0.002 C 
ATOM      5  C   UNL     1      32.983 -12.494 -20.749  0.00  0.00    +0.004 C 
ATOM      6  C   UNL     1      33.657 -11.491 -22.842  0.00  0.00    +0.004 C 
ENDROOT
BRANCH   2   9
ATOM      7  O   UNL     1      30.934 -10.388 -21.088  0.00  0.00    -0.270 OA
ATOM      8  N   UNL     1      32.834  -9.031 -21.330  0.00  0.00    -0.279 N 
ATOM      9  C   UNL     1      32.142 -10.250 -21.340  0.00  0.00    +0.250 C 
ATOM     10  H   UNL     1      33.792  -9.081 -21.550  0.00  0.00    +0.155 HD
BRANCH   8  12
ATOM     11  F   UNL     1      30.860  -3.975 -20.286  0.00  0.00    -0.204 F 
ATOM     12  C   UNL     1      32.334  -7.736 -21.043  0.00  0.00    +0.064 C 
ATOM     13  C   UNL     1      32.491  -7.189 -19.781  0.00  0.00    +0.057 C 
ATOM     14  C   UNL     1      31.689  -7.043 -22.056  0.00  0.00    +0.018 C 
ATOM     15  C   UNL     1      31.991  -5.912 -19.524  0.00  0.00    +0.045 C 
ATOM     16  C   UNL     1      31.190  -5.767 -21.798  0.00  0.00    +0.031 C 
ATOM     17  C   UNL     1      31.339  -5.201 -20.532  0.00  0.00    +0.141 C 
BRANCH  13  18
ATOM     18  N   UNL     1      33.147  -7.889 -18.745  0.00  0.00    -0.356 N 
ATOM     19  H   UNL     1      32.885  -7.739 -17.808  0.00  0.00    +0.142 HD
ATOM     20  H   UNL     1      33.864  -8.529 -18.960  0.00  0.00    +0.142 HD
ENDBRANCH  13  18
ENDBRANCH   8  12
ENDBRANCH   2   9
BRANCH   1  21
ATOM     21  C   UNL     1      35.285 -14.892 -22.554  0.00  0.00    +0.117 C 
BRANCH  21  23
ATOM     22  O   UNL     1      35.855 -17.721 -22.811  0.00  0.00    -0.270 OA
ATOM     23  N   UNL     1      35.174 -15.906 -21.529  0.00  0.00    -0.297 N 
ATOM     24  C   UNL     1      35.472 -17.240 -21.750  0.00  0.00    +0.246 C 
ATOM     25  H   UNL     1      34.874 -15.633 -20.631  0.00  0.00    +0.150 HD
BRANCH  24  26
ATOM     26  C   UNL     1      35.271 -18.062 -20.523  0.00  0.00    +0.058 C 
ATOM     27  C   UNL     1      34.995 -19.370 -20.632  0.00  0.00    +0.006 C 
BRANCH  27  29
ATOM     28  N   UNL     1      35.742 -21.573 -17.710  0.00  0.00    -0.242 NA
ATOM     29  C   UNL     1      34.788 -20.279 -19.490  0.00  0.00    +0.019 C 
ATOM     30  C   UNL     1      33.514 -20.673 -19.138  0.00  0.00    +0.003 C 
ATOM     31  C   UNL     1      35.862 -20.738 -18.768  0.00  0.00    +0.099 C 
ATOM     32  C   UNL     1      33.350 -21.531 -18.056  0.00  0.00    +0.021 C 
ATOM     33  C   UNL     1      34.485 -21.948 -17.381  0.00  0.00    +0.099 C 
ENDBRANCH  27  29
ENDBRANCH  24  26
ENDBRANCH  21  23
ENDBRANCH   1  21
TORSDOF 7
ENDMDL
MODEL 6
REMARK VINA RESULT:     -11.0      5.114     12.325
REMARK  Name = 12136798
REMARK  7 active torsions:
REMARK  status: ('A' for Active; 'I' for Inactive)
REMARK    1  A    between atoms: C_1  and  C_21
REMARK    2  A    between atoms: C_2  and  C_9
REMARK    3  A    between atoms: N_8  and  C_12
REMARK    4  A    between atoms: C_13  and  N_18
REMARK    5  A    between atoms: C_21  and  N_23
REMARK    6  A    between atoms: C_24  and  C_26
REMARK    7  A    between atoms: C_27  and  C_29
REMARK                            x       y       z     vdW  Elec       q    Type
REMARK                         _______ _______ _______ _____ _____    ______ ____
ROOT
ATOM      1  C   UNL     1      34.610 -15.588 -23.569  0.00  0.00    -0.003 C 
ATOM      2  C   UNL     1      33.956 -12.931 -23.080  0.00  0.00    +0.054 C 
ATOM      3  C   UNL     1      33.883 -14.873 -24.514  0.00  0.00    -0.002 C 
ATOM      4  C   UNL     1      35.012 -14.988 -22.382  0.00  0.00    -0.002 C 
ATOM      5  C   UNL     1      33.555 -13.539 -24.269  0.00  0.00    +0.004 C 
ATOM      6  C   UNL     1      34.684 -13.655 -22.136  0.00  0.00    +0.004 C 
ENDROOT
BRANCH   2   9
ATOM      7  O   UNL     1      33.028 -11.249 -21.767  0.00  0.00    -0.270 OA
ATOM      8  N   UNL     1      34.005 -10.623 -23.806  0.00  0.00    -0.279 N 
ATOM      9  C   UNL     1      33.612 -11.541 -22.822  0.00  0.00    +0.250 C 
ATOM     10  H   UNL     1      34.461 -11.005 -24.591  0.00  0.00    +0.155 HD
BRANCH   8  12
ATOM     11  F   UNL     1      33.251  -5.147 -23.845  0.00  0.00    -0.204 F 
ATOM     12  C   UNL     1      33.831  -9.217 -23.820  0.00  0.00    +0.064 C 
ATOM     13  C   UNL     1      34.915  -8.379 -24.020  0.00  0.00    +0.057 C 
ATOM     14  C   UNL     1      32.555  -8.711 -23.626  0.00  0.00    +0.018 C 
ATOM     15  C   UNL     1      34.719  -6.998 -24.029  0.00  0.00    +0.045 C 
ATOM     16  C   UNL     1      32.359  -7.331 -23.636  0.00  0.00    +0.031 C 
ATOM     17  C   UNL     1      33.441  -6.473 -23.836  0.00  0.00    +0.141 C 
BRANCH  13  18
ATOM     18  N   UNL     1      36.218  -8.887 -24.217  0.00  0.00    -0.356 N 
ATOM     19  H   UNL     1      36.414  -9.444 -25.005  0.00  0.00    +0.142 HD
ATOM     20  H   UNL     1      36.930  -8.684 -23.569  0.00  0.00    +0.142 HD
ENDBRANCH  13  18
ENDBRANCH   8  12
ENDBRANCH   2   9
BRANCH   1  21
ATOM     21  C   UNL     1      34.963 -17.023 -23.833  0.00  0.00    +0.117 C 
BRANCH  21  23
ATOM     22  O   UNL     1      36.669 -18.036 -21.722  0.00  0.00    -0.270 OA
ATOM     23  N   UNL     1      34.583 -17.885 -22.736  0.00  0.00    -0.297 N 
ATOM     24  C   UNL     1      35.476 -18.318 -21.771  0.00  0.00    +0.246 C 
ATOM     25  H   UNL     1      33.645 -18.177 -22.674  0.00  0.00    +0.150 HD
BRANCH  24  26
ATOM     26  C   UNL     1      34.817 -19.194 -20.761  0.00  0.00    +0.058 C 
ATOM     27  C   UNL     1      35.562 -19.858 -19.864  0.00  0.00    +0.006 C 
BRANCH  27  29
ATOM     28  N   UNL     1      35.416 -22.106 -16.885  0.00  0.00    -0.242 NA
ATOM     29  C   UNL     1      35.018 -20.742 -18.817  0.00  0.00    +0.019 C 
ATOM     30  C   UNL     1      33.669 -21.024 -18.778  0.00  0.00    +0.003 C 
ATOM     31  C   UNL     1      35.851 -21.289 -17.872  0.00  0.00    +0.099 C 
ATOM     32  C   UNL     1      33.184 -21.860 -17.778  0.00  0.00    +0.021 C 
ATOM     33  C   UNL     1      34.091 -22.370 -16.864  0.00  0.00    +0.099 C 
ENDBRANCH  27  29
ENDBRANCH  24  26
ENDBRANCH  21  23
ENDBRANCH   1  21
TORSDOF 7
ENDMDL
MODEL 7
REMARK VINA RESULT:     -10.9      3.489      5.520
REMARK  Name = 12136798
REMARK  7 active torsions:
REMARK  status: ('A' for Active; 'I' for Inactive)
REMARK    1  A    between atoms: C_1  and  C_21
REMARK    2  A    between atoms: C_2  and  C_9
REMARK    3  A    between atoms: N_8  and  C_12
REMARK    4  A    between atoms: C_13  and  N_18
REMARK    5  A    between atoms: C_21  and  N_23
REMARK    6  A    between atoms: C_24  and  C_26
REMARK    7  A    between atoms: C_27  and  C_29
REMARK                            x       y       z     vdW  Elec       q    Type
REMARK                         _______ _______ _______ _____ _____    ______ ____
ROOT
ATOM      1  C   UNL     1      34.301 -15.412 -24.566  0.00  0.00    -0.003 C 
ATOM      2  C   UNL     1      35.277 -17.091 -22.577  0.00  0.00    +0.054 C 
ATOM      3  C   UNL     1      34.165 -16.789 -24.700  0.00  0.00    -0.002 C 
ATOM      4  C   UNL     1      34.921 -14.866 -23.449  0.00  0.00    -0.002 C 
ATOM      5  C   UNL     1      34.654 -17.632 -23.701  0.00  0.00    +0.004 C 
ATOM      6  C   UNL     1      35.410 -15.708 -22.450  0.00  0.00    +0.004 C 
ENDROOT
BRANCH   2   9
ATOM      7  O   UNL     1      36.999 -17.936 -21.261  0.00  0.00    -0.270 OA
ATOM      8  N   UNL     1      34.839 -18.780 -20.900  0.00  0.00    -0.279 N 
ATOM      9  C   UNL     1      35.789 -17.969 -21.536  0.00  0.00    +0.250 C 
ATOM     10  H   UNL     1      33.915 -18.695 -21.228  0.00  0.00    +0.155 HD
BRANCH   8  12
ATOM     11  F   UNL     1      35.680 -22.380 -16.790  0.00  0.00    -0.204 F 
ATOM     12  C   UNL     1      35.035 -19.707 -19.846  0.00  0.00    +0.064 C 
ATOM     13  C   UNL     1      33.959 -20.386 -19.302  0.00  0.00    +0.057 C 
ATOM     14  C   UNL     1      36.325 -19.908 -19.380  0.00  0.00    +0.018 C 
ATOM     15  C   UNL     1      34.177 -21.294 -18.265  0.00  0.00    +0.045 C 
ATOM     16  C   UNL     1      36.543 -20.816 -18.344  0.00  0.00    +0.031 C 
ATOM     17  C   UNL     1      35.469 -21.508 -17.786  0.00  0.00    +0.141 C 
BRANCH  13  18
ATOM     18  N   UNL     1      32.642 -20.186 -19.771  0.00  0.00    -0.356 N 
ATOM     19  H   UNL     1      32.140 -20.936 -20.164  0.00  0.00    +0.142 HD
ATOM     20  H   UNL     1      32.224 -19.296 -19.703  0.00  0.00    +0.142 HD
ENDBRANCH  13  18
ENDBRANCH   8  12
ENDBRANCH   2   9
BRANCH   1  21
ATOM     21  C   UNL     1      33.775 -14.505 -25.640  0.00  0.00    +0.117 C 
BRANCH  21  23
ATOM     22  O   UNL     1      34.522 -12.203 -27.231  0.00  0.00    -0.270 OA
ATOM     23  N   UNL     1      33.779 -13.119 -25.229  0.00  0.00    -0.297 N 
ATOM     24  C   UNL     1      34.155 -12.083 -26.067  0.00  0.00    +0.246 C 
ATOM     25  H   UNL     1      33.502 -12.902 -24.309  0.00  0.00    +0.150 HD
BRANCH  24  26
ATOM     26  C   UNL     1      34.066 -10.760 -25.387  0.00  0.00    +0.058 C 
ATOM     27  C   UNL     1      33.991 -10.700 -24.049  0.00  0.00    +0.006 C 
BRANCH  27  29
ATOM     28  N   UNL     1      32.789  -8.155 -21.593  0.00  0.00    -0.242 NA
ATOM     29  C   UNL     1      33.911  -9.449 -23.272  0.00  0.00    +0.019 C 
ATOM     30  C   UNL     1      34.832  -8.444 -23.477  0.00  0.00    +0.003 C 
ATOM     31  C   UNL     1      32.918  -9.277 -22.338  0.00  0.00    +0.099 C 
ATOM     32  C   UNL     1      34.732  -7.275 -22.730  0.00  0.00    +0.021 C 
ATOM     33  C   UNL     1      33.702  -7.182 -21.809  0.00  0.00    +0.099 C 
ENDBRANCH  27  29
ENDBRANCH  24  26
ENDBRANCH  21  23
ENDBRANCH   1  21
TORSDOF 7
ENDMDL
MODEL 8
REMARK VINA RESULT:     -10.9      2.541      3.032
REMARK  Name = 12136798
REMARK  7 active torsions:
REMARK  status: ('A' for Active; 'I' for Inactive)
REMARK    1  A    between atoms: C_1  and  C_21
REMARK    2  A    between atoms: C_2  and  C_9
REMARK    3  A    between atoms: N_8  and  C_12
REMARK    4  A    between atoms: C_13  and  N_18
REMARK    5  A    between atoms: C_21  and  N_23
REMARK    6  A    between atoms: C_24  and  C_26
REMARK    7  A    between atoms: C_27  and  C_29
REMARK                            x       y       z     vdW  Elec       q    Type
REMARK                         _______ _______ _______ _____ _____    ______ ____
ROOT
ATOM      1  C   UNL     1      35.509 -19.647 -19.918  0.00  0.00    -0.003 C 
ATOM      2  C   UNL     1      35.511 -21.370 -17.736  0.00  0.00    +0.054 C 
ATOM      3  C   UNL     1      36.701 -19.918 -19.256  0.00  0.00    -0.002 C 
ATOM      4  C   UNL     1      34.318 -20.228 -19.499  0.00  0.00    -0.002 C 
ATOM      5  C   UNL     1      36.702 -20.783 -18.162  0.00  0.00    +0.004 C 
ATOM      6  C   UNL     1      34.319 -21.093 -18.405  0.00  0.00    +0.004 C 
ENDROOT
BRANCH   2   9
ATOM      7  O   UNL     1      34.559 -23.052 -16.441  0.00  0.00    -0.270 OA
ATOM      8  N   UNL     1      36.632 -22.193 -15.756  0.00  0.00    -0.279 N 
ATOM      9  C   UNL     1      35.512 -22.271 -16.594  0.00  0.00    +0.250 C 
ATOM     10  H   UNL     1      37.309 -21.523 -16.006  0.00  0.00    +0.155 HD
BRANCH   8  12
ATOM     11  F   UNL     1      37.822 -25.172 -11.255  0.00  0.00    -0.204 F 
ATOM     12  C   UNL     1      36.920 -22.953 -14.595  0.00  0.00    +0.064 C 
ATOM     13  C   UNL     1      35.989 -23.051 -13.574  0.00  0.00    +0.057 C 
ATOM     14  C   UNL     1      38.150 -23.586 -14.512  0.00  0.00    +0.018 C 
ATOM     15  C   UNL     1      36.295 -23.805 -12.441  0.00  0.00    +0.045 C 
ATOM     16  C   UNL     1      38.455 -24.339 -13.379  0.00  0.00    +0.031 C 
ATOM     17  C   UNL     1      37.528 -24.448 -12.343  0.00  0.00    +0.141 C 
BRANCH  13  18
ATOM     18  N   UNL     1      34.733 -22.408 -13.651  0.00  0.00    -0.356 N 
ATOM     19  H   UNL     1      33.978 -22.857 -14.095  0.00  0.00    +0.142 HD
ATOM     20  H   UNL     1      34.613 -21.512 -13.261  0.00  0.00    +0.142 HD
ENDBRANCH  13  18
ENDBRANCH   8  12
ENDBRANCH   2   9
BRANCH   1  21
ATOM     21  C   UNL     1      35.507 -18.717 -21.096  0.00  0.00    +0.117 C 
BRANCH  21  23
ATOM     22  O   UNL     1      36.198 -16.175 -22.301  0.00  0.00    -0.270 OA
ATOM     23  N   UNL     1      34.981 -17.414 -20.756  0.00  0.00    -0.297 N 
ATOM     24  C   UNL     1      35.376 -16.250 -21.394  0.00  0.00    +0.246 C 
ATOM     25  H   UNL     1      34.310 -17.351 -20.038  0.00  0.00    +0.150 HD
BRANCH  24  26
ATOM     26  C   UNL     1      34.676 -15.053 -20.846  0.00  0.00    +0.058 C 
ATOM     27  C   UNL     1      34.026 -14.221 -21.672  0.00  0.00    +0.006 C 
BRANCH  27  29
ATOM     28  N   UNL     1      32.567 -10.783 -21.724  0.00  0.00    -0.242 NA
ATOM     29  C   UNL     1      33.293 -13.017 -21.240  0.00  0.00    +0.019 C 
ATOM     30  C   UNL     1      32.672 -12.987 -20.009  0.00  0.00    +0.003 C 
ATOM     31  C   UNL     1      33.223 -11.917 -22.060  0.00  0.00    +0.099 C 
ATOM     32  C   UNL     1      31.988 -11.838 -19.628  0.00  0.00    +0.021 C 
ATOM     33  C   UNL     1      31.965 -10.774 -20.514  0.00  0.00    +0.099 C 
ENDBRANCH  27  29
ENDBRANCH  24  26
ENDBRANCH  21  23
ENDBRANCH   1  21
TORSDOF 7
ENDMDL
MODEL 9
REMARK VINA RESULT:     -10.9      4.189     10.547
REMARK  Name = 12136798
REMARK  7 active torsions:
REMARK  status: ('A' for Active; 'I' for Inactive)
REMARK    1  A    between atoms: C_1  and  C_21
REMARK    2  A    between atoms: C_2  and  C_9
REMARK    3  A    between atoms: N_8  and  C_12
REMARK    4  A    between atoms: C_13  and  N_18
REMARK    5  A    between atoms: C_21  and  N_23
REMARK    6  A    between atoms: C_24  and  C_26
REMARK    7  A    between atoms: C_27  and  C_29
REMARK                            x       y       z     vdW  Elec       q    Type
REMARK                         _______ _______ _______ _____ _____    ______ ____
ROOT
ATOM      1  C   UNL     1      36.549 -20.366 -18.724  0.00  0.00    -0.003 C 
ATOM      2  C   UNL     1      35.457 -18.878 -20.803  0.00  0.00    +0.054 C 
ATOM      3  C   UNL     1      37.351 -19.477 -19.429  0.00  0.00    -0.002 C 
ATOM      4  C   UNL     1      35.207 -20.520 -19.048  0.00  0.00    -0.002 C 
ATOM      5  C   UNL     1      36.804 -18.729 -20.472  0.00  0.00    +0.004 C 
ATOM      6  C   UNL     1      34.658 -19.773 -20.091  0.00  0.00    +0.004 C 
ENDROOT
BRANCH   2   9
ATOM      7  O   UNL     1      34.120 -18.659 -22.694  0.00  0.00    -0.270 OA
ATOM      8  N   UNL     1      35.240 -16.746 -21.926  0.00  0.00    -0.279 N 
ATOM      9  C   UNL     1      34.886 -18.101 -21.892  0.00  0.00    +0.250 C 
ATOM     10  H   UNL     1      35.858 -16.447 -21.220  0.00  0.00    +0.155 HD
BRANCH   8  12
ATOM     11  F   UNL     1      33.625 -12.908 -25.561  0.00  0.00    -0.204 F 
ATOM     12  C   UNL     1      34.825 -15.748 -22.843  0.00  0.00    +0.064 C 
ATOM     13  C   UNL     1      34.560 -14.461 -22.406  0.00  0.00    +0.057 C 
ATOM     14  C   UNL     1      34.692 -16.098 -24.178  0.00  0.00    +0.018 C 
ATOM     15  C   UNL     1      34.153 -13.497 -23.328  0.00  0.00    +0.045 C 
ATOM     16  C   UNL     1      34.286 -15.134 -25.099  0.00  0.00    +0.031 C 
ATOM     17  C   UNL     1      34.015 -13.833 -24.675  0.00  0.00    +0.141 C 
BRANCH  13  18
ATOM     18  N   UNL     1      34.693 -14.098 -21.048  0.00  0.00    -0.356 N 
ATOM     19  H   UNL     1      34.079 -13.437 -20.653  0.00  0.00    +0.142 HD
ATOM     20  H   UNL     1      35.398 -14.506 -20.495  0.00  0.00    +0.142 HD
ENDBRANCH  13  18
ENDBRANCH   8  12
ENDBRANCH   2   9
BRANCH   1  21
ATOM     21  C   UNL     1      37.138 -21.169 -17.601  0.00  0.00    +0.117 C 
BRANCH  21  23
ATOM     22  O   UNL     1      37.526 -21.943 -14.836  0.00  0.00    -0.270 OA
ATOM     23  N   UNL     1      36.129 -21.612 -16.664  0.00  0.00    -0.297 N 
ATOM     24  C   UNL     1      36.415 -21.961 -15.355  0.00  0.00    +0.246 C 
ATOM     25  H   UNL     1      35.195 -21.666 -16.972  0.00  0.00    +0.150 HD
BRANCH  24  26
ATOM     26  C   UNL     1      35.191 -22.379 -14.614  0.00  0.00    +0.058 C 
ATOM     27  C   UNL     1      34.066 -22.664 -15.287  0.00  0.00    +0.006 C 
BRANCH  27  29
ATOM     28  N   UNL     1      31.697 -24.151 -12.811  0.00  0.00    -0.242 NA
ATOM     29  C   UNL     1      32.804 -23.096 -14.659  0.00  0.00    +0.019 C 
ATOM     30  C   UNL     1      31.600 -22.866 -15.291  0.00  0.00    +0.003 C 
ATOM     31  C   UNL     1      32.818 -23.730 -13.441  0.00  0.00    +0.099 C 
ATOM     32  C   UNL     1      30.425 -23.285 -14.675  0.00  0.00    +0.021 C 
ATOM     33  C   UNL     1      30.528 -23.916 -13.447  0.00  0.00    +0.099 C 
ENDBRANCH  27  29
ENDBRANCH  24  26
ENDBRANCH  21  23
ENDBRANCH   1  21
TORSDOF 7
ENDMDL
