MODEL 1
REMARK VINA RESULT:     -11.9      0.000      0.000
REMARK  Name = 446752
REMARK  3 active torsions:
REMARK  status: ('A' for Active; 'I' for Inactive)
REMARK    1  A    between atoms: C_6  and  C_18
REMARK    2  A    between atoms: C_18  and  N_19
REMARK    3  A    between atoms: N_19  and  C_22
REMARK                            x       y       z     vdW  Elec       q    Type
REMARK                         _______ _______ _______ _____ _____    ______ ____
ROOT
ATOM      1  N   UNL     1      37.087 -20.210 -18.739  0.00  0.00    -0.182 NA
ATOM      2  N   UNL     1      36.635 -21.568 -16.920  0.00  0.00    -0.273 NA
ATOM      3  N   UNL     1      34.412 -22.380 -16.477  0.00  0.00    -0.312 NA
ATOM      4  N   UNL     1      32.632 -21.825 -17.863  0.00  0.00    -0.332 N 
ATOM      5  N   UNL     1      36.197 -22.945 -15.070  0.00  0.00    -0.283 N 
ATOM      6  C   UNL     1      35.340 -19.558 -20.256  0.00  0.00    +0.010 C 
ATOM      7  C   UNL     1      34.427 -20.275 -19.518  0.00  0.00    -0.009 C 
ATOM      8  C   UNL     1      34.863 -20.964 -18.377  0.00  0.00    +0.115 C 
ATOM      9  C   UNL     1      36.212 -20.913 -18.008  0.00  0.00    +0.104 C 
ATOM     10  C   UNL     1      36.647 -19.549 -19.837  0.00  0.00    +0.107 C 
ATOM     11  C   UNL     1      33.008 -20.265 -19.998  0.00  0.00    +0.032 C 
ATOM     12  C   UNL     1      34.009 -21.714 -17.572  0.00  0.00    +0.201 C 
ATOM     13  C   UNL     1      35.721 -22.266 -16.213  0.00  0.00    +0.206 C 
ATOM     14  H   UNL     1      32.048 -22.361 -17.280  0.00  0.00    +0.145 HD
ATOM     15  H   UNL     1      32.257 -21.366 -18.649  0.00  0.00    +0.145 HD
ATOM     16  H   UNL     1      37.150 -22.896 -14.829  0.00  0.00    +0.156 HD
ATOM     17  H   UNL     1      35.575 -23.470 -14.516  0.00  0.00    +0.156 HD
ENDROOT
BRANCH   6  18
ATOM     18  C   UNL     1      34.954 -18.791 -21.491  0.00  0.00    +0.097 C 
BRANCH  18  19
ATOM     19  N   UNL     1      35.787 -17.643 -21.647  0.00  0.00    -0.288 NA
ATOM     20  H   UNL     1      36.742 -17.776 -21.849  0.00  0.00    +0.124 HD
BRANCH  19  22
ATOM     21  N   UNL     1      33.928 -13.550 -23.526  0.00  0.00    -0.248 NA
ATOM     22  C   UNL     1      35.298 -16.319 -21.523  0.00  0.00    +0.101 C 
ATOM     23  C   UNL     1      34.847 -15.592 -22.636  0.00  0.00    +0.010 C 
ATOM     24  C   UNL     1      34.366 -14.275 -22.481  0.00  0.00    +0.061 C 
ATOM     25  C   UNL     1      35.273 -15.751 -20.252  0.00  0.00    -0.010 C 
ATOM     26  C   UNL     1      34.861 -16.140 -23.926  0.00  0.00    +0.000 C 
ATOM     27  C   UNL     1      34.354 -13.730 -21.200  0.00  0.00    +0.071 C 
ATOM     28  C   UNL     1      34.801 -14.454 -20.091  0.00  0.00    -0.023 C 
ATOM     29  C   UNL     1      34.410 -15.396 -25.006  0.00  0.00    +0.020 C 
ATOM     30  C   UNL     1      33.958 -14.117 -24.755  0.00  0.00    +0.098 C 
ENDBRANCH  19  22
ENDBRANCH  18  19
ENDBRANCH   6  18
TORSDOF 3
ENDMDL
MODEL 2
REMARK VINA RESULT:     -11.7      0.921      2.176
REMARK  Name = 446752
REMARK  3 active torsions:
REMARK  status: ('A' for Active; 'I' for Inactive)
REMARK    1  A    between atoms: C_6  and  C_18
REMARK    2  A    between atoms: C_18  and  N_19
REMARK    3  A    between atoms: N_19  and  C_22
REMARK                            x       y       z     vdW  Elec       q    Type
REMARK                         _______ _______ _______ _____ _____    ______ ____
ROOT
ATOM      1  N   UNL     1      32.784 -20.108 -19.933  0.00  0.00    -0.182 NA
ATOM      2  N   UNL     1      32.820 -21.524 -18.101  0.00  0.00    -0.273 NA
ATOM      3  N   UNL     1      34.880 -22.098 -16.995  0.00  0.00    -0.312 NA
ATOM      4  N   UNL     1      36.915 -21.250 -17.728  0.00  0.00    -0.332 N 
ATOM      5  N   UNL     1      32.837 -22.962 -16.246  0.00  0.00    -0.283 N 
ATOM      6  C   UNL     1      34.815 -19.158 -20.797  0.00  0.00    +0.010 C 
ATOM      7  C   UNL     1      35.539 -19.812 -19.827  0.00  0.00    -0.009 C 
ATOM      8  C   UNL     1      34.863 -20.621 -18.902  0.00  0.00    +0.115 C 
ATOM      9  C   UNL     1      33.471 -20.753 -18.980  0.00  0.00    +0.104 C 
ATOM     10  C   UNL     1      33.455 -19.331 -20.817  0.00  0.00    +0.107 C 
ATOM     11  C   UNL     1      37.023 -19.605 -19.830  0.00  0.00    +0.032 C 
ATOM     12  C   UNL     1      35.514 -21.319 -17.887  0.00  0.00    +0.201 C 
ATOM     13  C   UNL     1      33.551 -22.155 -17.158  0.00  0.00    +0.206 C 
ATOM     14  H   UNL     1      37.353 -21.752 -17.004  0.00  0.00    +0.145 HD
ATOM     15  H   UNL     1      37.453 -20.700 -18.343  0.00  0.00    +0.145 HD
ATOM     16  H   UNL     1      31.858 -23.040 -16.319  0.00  0.00    +0.156 HD
ATOM     17  H   UNL     1      33.318 -23.446 -15.536  0.00  0.00    +0.156 HD
ENDROOT
BRANCH   6  18
ATOM     18  C   UNL     1      35.464 -18.273 -21.826  0.00  0.00    +0.097 C 
BRANCH  18  19
ATOM     19  N   UNL     1      35.931 -17.066 -21.224  0.00  0.00    -0.288 NA
ATOM     20  H   UNL     1      36.770 -17.089 -20.709  0.00  0.00    +0.124 HD
BRANCH  19  22
ATOM     21  N   UNL     1      33.694 -13.611 -23.831  0.00  0.00    -0.248 NA
ATOM     22  C   UNL     1      35.237 -15.837 -21.336  0.00  0.00    +0.101 C 
ATOM     23  C   UNL     1      34.807 -15.342 -22.578  0.00  0.00    +0.010 C 
ATOM     24  C   UNL     1      34.119 -14.114 -22.657  0.00  0.00    +0.061 C 
ATOM     25  C   UNL     1      34.988 -15.121 -20.168  0.00  0.00    -0.010 C 
ATOM     26  C   UNL     1      35.045 -16.042 -23.769  0.00  0.00    +0.000 C 
ATOM     27  C   UNL     1      33.884 -13.418 -21.474  0.00  0.00    +0.071 C 
ATOM     28  C   UNL     1      34.310 -13.910 -20.238  0.00  0.00    -0.023 C 
ATOM     29  C   UNL     1      34.609 -15.527 -24.980  0.00  0.00    +0.020 C 
ATOM     30  C   UNL     1      33.944 -14.318 -24.958  0.00  0.00    +0.098 C 
ENDBRANCH  19  22
ENDBRANCH  18  19
ENDBRANCH   6  18
TORSDOF 3
ENDMDL
MODEL 3
REMARK VINA RESULT:     -11.6      1.078      3.002
REMARK  Name = 446752
REMARK  3 active torsions:
REMARK  status: ('A' for Active; 'I' for Inactive)
REMARK    1  A    between atoms: C_6  and  C_18
REMARK    2  A    between atoms: C_18  and  N_19
REMARK    3  A    between atoms: N_19  and  C_22
REMARK                            x       y       z     vdW  Elec       q    Type
REMARK                         _______ _______ _______ _____ _____    ______ ____
ROOT
ATOM      1  N   UNL     1      33.006 -19.971 -20.157  0.00  0.00    -0.182 NA
ATOM      2  N   UNL     1      32.869 -21.408 -18.347  0.00  0.00    -0.273 NA
ATOM      3  N   UNL     1      34.825 -22.045 -17.096  0.00  0.00    -0.312 NA
ATOM      4  N   UNL     1      36.929 -21.238 -17.662  0.00  0.00    -0.332 N 
ATOM      5  N   UNL     1      32.711 -22.866 -16.515  0.00  0.00    -0.283 N 
ATOM      6  C   UNL     1      35.119 -19.061 -20.853  0.00  0.00    +0.010 C 
ATOM      7  C   UNL     1      35.751 -19.743 -19.839  0.00  0.00    -0.009 C 
ATOM      8  C   UNL     1      34.988 -20.546 -18.979  0.00  0.00    +0.115 C 
ATOM      9  C   UNL     1      33.603 -20.643 -19.164  0.00  0.00    +0.104 C 
ATOM     10  C   UNL     1      33.760 -19.200 -20.978  0.00  0.00    +0.107 C 
ATOM     11  C   UNL     1      37.235 -19.572 -19.727  0.00  0.00    +0.032 C 
ATOM     12  C   UNL     1      35.543 -21.271 -17.927  0.00  0.00    +0.201 C 
ATOM     13  C   UNL     1      33.512 -22.067 -17.359  0.00  0.00    +0.206 C 
ATOM     14  H   UNL     1      37.299 -21.758 -16.912  0.00  0.00    +0.145 HD
ATOM     15  H   UNL     1      37.525 -20.695 -18.226  0.00  0.00    +0.145 HD
ATOM     16  H   UNL     1      31.739 -22.920 -16.663  0.00  0.00    +0.156 HD
ATOM     17  H   UNL     1      33.125 -23.370 -15.778  0.00  0.00    +0.156 HD
ENDROOT
BRANCH   6  18
ATOM     18  C   UNL     1      35.865 -18.180 -21.818  0.00  0.00    +0.097 C 
BRANCH  18  19
ATOM     19  N   UNL     1      35.564 -16.806 -21.575  0.00  0.00    -0.288 NA
ATOM     20  H   UNL     1      35.751 -16.432 -20.683  0.00  0.00    +0.124 HD
BRANCH  19  22
ATOM     21  N   UNL     1      33.365 -12.686 -22.964  0.00  0.00    -0.248 NA
ATOM     22  C   UNL     1      35.006 -15.958 -22.563  0.00  0.00    +0.101 C 
ATOM     23  C   UNL     1      34.453 -14.709 -22.236  0.00  0.00    +0.010 C 
ATOM     24  C   UNL     1      33.905 -13.887 -23.243  0.00  0.00    +0.061 C 
ATOM     25  C   UNL     1      35.023 -16.398 -23.884  0.00  0.00    -0.010 C 
ATOM     26  C   UNL     1      34.424 -14.242 -20.915  0.00  0.00    +0.000 C 
ATOM     27  C   UNL     1      33.933 -14.352 -24.554  0.00  0.00    +0.071 C 
ATOM     28  C   UNL     1      34.485 -15.594 -24.880  0.00  0.00    -0.023 C 
ATOM     29  C   UNL     1      33.869 -13.005 -20.624  0.00  0.00    +0.020 C 
ATOM     30  C   UNL     1      33.358 -12.271 -21.675  0.00  0.00    +0.098 C 
ENDBRANCH  19  22
ENDBRANCH  18  19
ENDBRANCH   6  18
TORSDOF 3
ENDMDL
MODEL 4
REMARK VINA RESULT:     -11.4      1.291      3.268
REMARK  Name = 446752
REMARK  3 active torsions:
REMARK  status: ('A' for Active; 'I' for Inactive)
REMARK    1  A    between atoms: C_6  and  C_18
REMARK    2  A    between atoms: C_18  and  N_19
REMARK    3  A    between atoms: N_19  and  C_22
REMARK                            x       y       z     vdW  Elec       q    Type
REMARK                         _______ _______ _______ _____ _____    ______ ____
ROOT
ATOM      1  N   UNL     1      32.760 -21.152 -18.657  0.00  0.00    -0.182 NA
ATOM      2  N   UNL     1      32.198 -22.377 -16.774  0.00  0.00    -0.273 NA
ATOM      3  N   UNL     1      33.863 -23.062 -15.175  0.00  0.00    -0.312 NA
ATOM      4  N   UNL     1      36.103 -22.518 -15.466  0.00  0.00    -0.332 N 
ATOM      5  N   UNL     1      31.609 -23.618 -14.871  0.00  0.00    -0.283 N 
ATOM      6  C   UNL     1      35.040 -20.520 -19.082  0.00  0.00    +0.010 C 
ATOM      7  C   UNL     1      35.434 -21.151 -17.925  0.00  0.00    -0.009 C 
ATOM      8  C   UNL     1      34.468 -21.786 -17.132  0.00  0.00    +0.115 C 
ATOM      9  C   UNL     1      33.125 -21.772 -17.526  0.00  0.00    +0.104 C 
ATOM     10  C   UNL     1      33.708 -20.544 -19.410  0.00  0.00    +0.107 C 
ATOM     11  C   UNL     1      36.895 -21.109 -17.592  0.00  0.00    +0.032 C 
ATOM     12  C   UNL     1      34.777 -22.448 -15.945  0.00  0.00    +0.201 C 
ATOM     13  C   UNL     1      32.610 -22.988 -15.643  0.00  0.00    +0.206 C 
ATOM     14  H   UNL     1      36.298 -22.991 -14.625  0.00  0.00    +0.145 HD
ATOM     15  H   UNL     1      36.833 -22.094 -15.973  0.00  0.00    +0.145 HD
ATOM     16  H   UNL     1      30.671 -23.595 -15.167  0.00  0.00    +0.156 HD
ATOM     17  H   UNL     1      31.851 -24.080 -14.036  0.00  0.00    +0.156 HD
ENDROOT
BRANCH   6  18
ATOM     18  C   UNL     1      36.013 -19.817 -19.988  0.00  0.00    +0.097 C 
BRANCH  18  19
ATOM     19  N   UNL     1      35.734 -18.418 -20.032  0.00  0.00    -0.288 NA
ATOM     20  H   UNL     1      35.734 -17.910 -19.187  0.00  0.00    +0.124 HD
BRANCH  19  22
ATOM     21  N   UNL     1      34.655 -14.373 -22.525  0.00  0.00    -0.248 NA
ATOM     22  C   UNL     1      35.457 -17.730 -21.237  0.00  0.00    +0.101 C 
ATOM     23  C   UNL     1      35.190 -16.351 -21.255  0.00  0.00    +0.010 C 
ATOM     24  C   UNL     1      34.916 -15.693 -22.472  0.00  0.00    +0.061 C 
ATOM     25  C   UNL     1      35.458 -18.463 -22.421  0.00  0.00    -0.010 C 
ATOM     26  C   UNL     1      35.183 -15.589 -20.078  0.00  0.00    +0.000 C 
ATOM     27  C   UNL     1      34.922 -16.450 -23.641  0.00  0.00    +0.071 C 
ATOM     28  C   UNL     1      35.189 -17.821 -23.624  0.00  0.00    -0.023 C 
ATOM     29  C   UNL     1      34.914 -14.230 -20.128  0.00  0.00    +0.020 C 
ATOM     30  C   UNL     1      34.659 -13.674 -21.366  0.00  0.00    +0.098 C 
ENDBRANCH  19  22
ENDBRANCH  18  19
ENDBRANCH   6  18
TORSDOF 3
ENDMDL
MODEL 5
REMARK VINA RESULT:     -11.3      0.556      2.047
REMARK  Name = 446752
REMARK  3 active torsions:
REMARK  status: ('A' for Active; 'I' for Inactive)
REMARK    1  A    between atoms: C_6  and  C_18
REMARK    2  A    between atoms: C_18  and  N_19
REMARK    3  A    between atoms: N_19  and  C_22
REMARK                            x       y       z     vdW  Elec       q    Type
REMARK                         _______ _______ _______ _____ _____    ______ ____
ROOT
ATOM      1  N   UNL     1      37.044 -20.192 -18.745  0.00  0.00    -0.182 NA
ATOM      2  N   UNL     1      36.747 -21.541 -16.887  0.00  0.00    -0.273 NA
ATOM      3  N   UNL     1      34.594 -22.465 -16.334  0.00  0.00    -0.312 NA
ATOM      4  N   UNL     1      32.727 -22.034 -17.649  0.00  0.00    -0.332 N 
ATOM      5  N   UNL     1      36.466 -22.906 -14.999  0.00  0.00    -0.283 N 
ATOM      6  C   UNL     1      35.199 -19.664 -20.193  0.00  0.00    +0.010 C 
ATOM      7  C   UNL     1      34.360 -20.417 -19.404  0.00  0.00    -0.009 C 
ATOM      8  C   UNL     1      34.883 -21.061 -18.274  0.00  0.00    +0.115 C 
ATOM      9  C   UNL     1      36.242 -20.929 -17.965  0.00  0.00    +0.104 C 
ATOM     10  C   UNL     1      36.520 -19.576 -19.833  0.00  0.00    +0.107 C 
ATOM     11  C   UNL     1      32.923 -20.494 -19.822  0.00  0.00    +0.032 C 
ATOM     12  C   UNL     1      34.108 -21.842 -17.420  0.00  0.00    +0.201 C 
ATOM     13  C   UNL     1      35.904 -22.274 -16.129  0.00  0.00    +0.206 C 
ATOM     14  H   UNL     1      32.199 -22.591 -17.031  0.00  0.00    +0.145 HD
ATOM     15  H   UNL     1      32.294 -21.610 -18.424  0.00  0.00    +0.145 HD
ATOM     16  H   UNL     1      37.425 -22.801 -14.801  0.00  0.00    +0.156 HD
ATOM     17  H   UNL     1      35.899 -23.454 -14.409  0.00  0.00    +0.156 HD
ENDROOT
BRANCH   6  18
ATOM     18  C   UNL     1      34.717 -18.941 -21.422  0.00  0.00    +0.097 C 
BRANCH  18  19
ATOM     19  N   UNL     1      35.544 -17.810 -21.692  0.00  0.00    -0.288 NA
ATOM     20  H   UNL     1      36.427 -17.757 -21.260  0.00  0.00    +0.124 HD
BRANCH  19  22
ATOM     21  N   UNL     1      34.281 -13.182 -22.540  0.00  0.00    -0.248 NA
ATOM     22  C   UNL     1      35.147 -16.761 -22.556  0.00  0.00    +0.101 C 
ATOM     23  C   UNL     1      34.911 -15.461 -22.079  0.00  0.00    +0.010 C 
ATOM     24  C   UNL     1      34.516 -14.437 -22.964  0.00  0.00    +0.061 C 
ATOM     25  C   UNL     1      34.996 -17.053 -23.909  0.00  0.00    -0.010 C 
ATOM     26  C   UNL     1      35.056 -15.140 -20.722  0.00  0.00    +0.000 C 
ATOM     27  C   UNL     1      34.371 -14.757 -24.311  0.00  0.00    +0.071 C 
ATOM     28  C   UNL     1      34.607 -16.049 -24.787  0.00  0.00    -0.023 C 
ATOM     29  C   UNL     1      34.815 -13.848 -20.281  0.00  0.00    +0.020 C 
ATOM     30  C   UNL     1      34.433 -12.913 -21.222  0.00  0.00    +0.098 C 
ENDBRANCH  19  22
ENDBRANCH  18  19
ENDBRANCH   6  18
TORSDOF 3
ENDMDL
MODEL 6
REMARK VINA RESULT:     -11.2      3.740      9.902
REMARK  Name = 446752
REMARK  3 active torsions:
REMARK  status: ('A' for Active; 'I' for Inactive)
REMARK    1  A    between atoms: C_6  and  C_18
REMARK    2  A    between atoms: C_18  and  N_19
REMARK    3  A    between atoms: N_19  and  C_22
REMARK                            x       y       z     vdW  Elec       q    Type
REMARK                         _______ _______ _______ _____ _____    ______ ____
ROOT
ATOM      1  N   UNL     1      37.044 -21.120 -16.956  0.00  0.00    -0.182 NA
ATOM      2  N   UNL     1      36.779 -19.896 -18.903  0.00  0.00    -0.273 NA
ATOM      3  N   UNL     1      34.697 -19.887 -20.111  0.00  0.00    -0.312 NA
ATOM      4  N   UNL     1      32.869 -21.112 -19.364  0.00  0.00    -0.332 N 
ATOM      5  N   UNL     1      36.530 -18.649 -20.876  0.00  0.00    -0.283 N 
ATOM      6  C   UNL     1      35.237 -22.432 -16.069  0.00  0.00    +0.010 C 
ATOM      7  C   UNL     1      34.432 -22.036 -17.112  0.00  0.00    -0.009 C 
ATOM      8  C   UNL     1      34.953 -21.169 -18.084  0.00  0.00    +0.115 C 
ATOM      9  C   UNL     1      36.276 -20.723 -17.980  0.00  0.00    +0.104 C 
ATOM     10  C   UNL     1      36.523 -21.958 -16.028  0.00  0.00    +0.107 C 
ATOM     11  C   UNL     1      33.032 -22.571 -17.132  0.00  0.00    +0.032 C 
ATOM     12  C   UNL     1      34.211 -20.717 -19.172  0.00  0.00    +0.201 C 
ATOM     13  C   UNL     1      35.970 -19.521 -19.917  0.00  0.00    +0.206 C 
ATOM     14  H   UNL     1      32.365 -20.780 -20.141  0.00  0.00    +0.145 HD
ATOM     15  H   UNL     1      32.440 -21.721 -18.720  0.00  0.00    +0.145 HD
ATOM     16  H   UNL     1      37.463 -18.347 -20.783  0.00  0.00    +0.156 HD
ATOM     17  H   UNL     1      35.987 -18.342 -21.638  0.00  0.00    +0.156 HD
ENDROOT
BRANCH   6  18
ATOM     18  C   UNL     1      34.755 -23.360 -14.988  0.00  0.00    +0.097 C 
BRANCH  18  19
ATOM     19  N   UNL     1      35.510 -24.571 -14.995  0.00  0.00    -0.288 NA
ATOM     20  H   UNL     1      35.243 -25.291 -15.612  0.00  0.00    +0.124 HD
BRANCH  19  22
ATOM     21  N   UNL     1      37.834 -24.104 -10.738  0.00  0.00    -0.248 NA
ATOM     22  C   UNL     1      36.628 -24.781 -14.151  0.00  0.00    +0.101 C 
ATOM     23  C   UNL     1      36.651 -24.314 -12.827  0.00  0.00    +0.010 C 
ATOM     24  C   UNL     1      37.779 -24.539 -12.011  0.00  0.00    +0.061 C 
ATOM     25  C   UNL     1      37.717 -25.473 -14.674  0.00  0.00    -0.010 C 
ATOM     26  C   UNL     1      35.568 -23.615 -12.276  0.00  0.00    +0.000 C 
ATOM     27  C   UNL     1      38.855 -25.232 -12.559  0.00  0.00    +0.071 C 
ATOM     28  C   UNL     1      38.832 -25.698 -13.876  0.00  0.00    -0.023 C 
ATOM     29  C   UNL     1      35.621 -23.166 -10.965  0.00  0.00    +0.020 C 
ATOM     30  C   UNL     1      36.767 -23.434 -10.245  0.00  0.00    +0.098 C 
ENDBRANCH  19  22
ENDBRANCH  18  19
ENDBRANCH   6  18
TORSDOF 3
ENDMDL
MODEL 7
REMARK VINA RESULT:     -11.2      1.294      8.296
REMARK  Name = 446752
REMARK  3 active torsions:
REMARK  status: ('A' for Active; 'I' for Inactive)
REMARK    1  A    between atoms: C_6  and  C_18
REMARK    2  A    between atoms: C_18  and  N_19
REMARK    3  A    between atoms: N_19  and  C_22
REMARK                            x       y       z     vdW  Elec       q    Type
REMARK                         _______ _______ _______ _____ _____    ______ ____
ROOT
ATOM      1  N   UNL     1      35.244 -16.649 -23.860  0.00  0.00    -0.182 NA
ATOM      2  N   UNL     1      34.262 -14.779 -24.807  0.00  0.00    -0.273 NA
ATOM      3  N   UNL     1      33.581 -12.899 -23.467  0.00  0.00    -0.312 NA
ATOM      4  N   UNL     1      33.885 -12.893 -21.163  0.00  0.00    -0.332 N 
ATOM      5  N   UNL     1      33.268 -12.892 -25.787  0.00  0.00    -0.283 N 
ATOM      6  C   UNL     1      35.618 -16.778 -21.489  0.00  0.00    +0.010 C 
ATOM      7  C   UNL     1      35.067 -15.527 -21.330  0.00  0.00    -0.009 C 
ATOM      8  C   UNL     1      34.602 -14.839 -22.460  0.00  0.00    +0.115 C 
ATOM      9  C   UNL     1      34.704 -15.430 -23.725  0.00  0.00    +0.104 C 
ATOM     10  C   UNL     1      35.686 -17.299 -22.756  0.00  0.00    +0.107 C 
ATOM     11  C   UNL     1      35.004 -14.984 -19.935  0.00  0.00    +0.032 C 
ATOM     12  C   UNL     1      34.031 -13.570 -22.394  0.00  0.00    +0.201 C 
ATOM     13  C   UNL     1      33.726 -13.553 -24.627  0.00  0.00    +0.206 C 
ATOM     14  H   UNL     1      33.478 -11.997 -21.141  0.00  0.00    +0.145 HD
ATOM     15  H   UNL     1      34.188 -13.318 -20.329  0.00  0.00    +0.145 HD
ATOM     16  H   UNL     1      33.350 -13.326 -26.667  0.00  0.00    +0.156 HD
ATOM     17  H   UNL     1      32.868 -11.995 -25.716  0.00  0.00    +0.156 HD
ENDROOT
BRANCH   6  18
ATOM     18  C   UNL     1      36.138 -17.582 -20.328  0.00  0.00    +0.097 C 
BRANCH  18  19
ATOM     19  N   UNL     1      35.967 -18.977 -20.571  0.00  0.00    -0.288 NA
ATOM     20  H   UNL     1      36.508 -19.405 -21.274  0.00  0.00    +0.124 HD
BRANCH  19  22
ATOM     21  N   UNL     1      34.861 -22.021 -16.930  0.00  0.00    -0.248 NA
ATOM     22  C   UNL     1      35.050 -19.774 -19.842  0.00  0.00    +0.101 C 
ATOM     23  C   UNL     1      35.449 -20.514 -18.717  0.00  0.00    +0.010 C 
ATOM     24  C   UNL     1      34.513 -21.299 -18.011  0.00  0.00    +0.061 C 
ATOM     25  C   UNL     1      33.727 -19.805 -20.273  0.00  0.00    -0.010 C 
ATOM     26  C   UNL     1      36.774 -20.500 -18.261  0.00  0.00    +0.000 C 
ATOM     27  C   UNL     1      33.197 -21.313 -18.465  0.00  0.00    +0.071 C 
ATOM     28  C   UNL     1      32.800 -20.576 -19.584  0.00  0.00    -0.023 C 
ATOM     29  C   UNL     1      37.137 -21.242 -17.147  0.00  0.00    +0.020 C 
ATOM     30  C   UNL     1      36.151 -21.979 -16.522  0.00  0.00    +0.098 C 
ENDBRANCH  19  22
ENDBRANCH  18  19
ENDBRANCH   6  18
TORSDOF 3
ENDMDL
MODEL 8
REMARK VINA RESULT:     -11.0      3.123      9.530
REMARK  Name = 446752
REMARK  3 active torsions:
REMARK  status: ('A' for Active; 'I' for Inactive)
REMARK    1  A    between atoms: C_6  and  C_18
REMARK    2  A    between atoms: C_18  and  N_19
REMARK    3  A    between atoms: N_19  and  C_22
REMARK                            x       y       z     vdW  Elec       q    Type
REMARK                         _______ _______ _______ _____ _____    ______ ____
ROOT
ATOM      1  N   UNL     1      37.151 -20.263 -18.068  0.00  0.00    -0.182 NA
ATOM      2  N   UNL     1      36.513 -19.157 -19.999  0.00  0.00    -0.273 NA
ATOM      3  N   UNL     1      34.289 -19.370 -20.895  0.00  0.00    -0.312 NA
ATOM      4  N   UNL     1      32.695 -20.700 -19.852  0.00  0.00    -0.332 N 
ATOM      5  N   UNL     1      35.885 -18.028 -21.959  0.00  0.00    -0.283 N 
ATOM      6  C   UNL     1      35.603 -21.671 -16.885  0.00  0.00    +0.010 C 
ATOM      7  C   UNL     1      34.630 -21.390 -17.816  0.00  0.00    -0.009 C 
ATOM      8  C   UNL     1      34.934 -20.531 -18.882  0.00  0.00    +0.115 C 
ATOM      9  C   UNL     1      36.215 -19.977 -18.984  0.00  0.00    +0.104 C 
ATOM     10  C   UNL     1      36.838 -21.095 -17.045  0.00  0.00    +0.107 C 
ATOM     11  C   UNL     1      33.292 -22.034 -17.616  0.00  0.00    +0.032 C 
ATOM     12  C   UNL     1      34.012 -20.191 -19.868  0.00  0.00    +0.201 C 
ATOM     13  C   UNL     1      35.541 -18.895 -20.899  0.00  0.00    +0.206 C 
ATOM     14  H   UNL     1      32.060 -20.446 -20.560  0.00  0.00    +0.145 HD
ATOM     15  H   UNL     1      32.413 -21.310 -19.132  0.00  0.00    +0.145 HD
ATOM     16  H   UNL     1      36.792 -17.649 -22.011  0.00  0.00    +0.156 HD
ATOM     17  H   UNL     1      35.217 -17.801 -22.645  0.00  0.00    +0.156 HD
ENDROOT
BRANCH   6  18
ATOM     18  C   UNL     1      35.358 -22.583 -15.714  0.00  0.00    +0.097 C 
BRANCH  18  19
ATOM     19  N   UNL     1      36.211 -22.236 -14.624  0.00  0.00    -0.288 NA
ATOM     20  H   UNL     1      36.554 -21.315 -14.567  0.00  0.00    +0.124 HD
BRANCH  19  22
ATOM     21  N   UNL     1      39.306 -25.460 -12.682  0.00  0.00    -0.248 NA
ATOM     22  C   UNL     1      36.585 -23.162 -13.619  0.00  0.00    +0.101 C 
ATOM     23  C   UNL     1      37.803 -23.859 -13.675  0.00  0.00    +0.010 C 
ATOM     24  C   UNL     1      38.147 -24.775 -12.659  0.00  0.00    +0.061 C 
ATOM     25  C   UNL     1      35.704 -23.366 -12.561  0.00  0.00    -0.010 C 
ATOM     26  C   UNL     1      38.708 -23.672 -14.728  0.00  0.00    +0.000 C 
ATOM     27  C   UNL     1      37.247 -24.961 -11.613  0.00  0.00    +0.071 C 
ATOM     28  C   UNL     1      36.036 -24.266 -11.557  0.00  0.00    -0.023 C 
ATOM     29  C   UNL     1      39.902 -24.376 -14.756  0.00  0.00    +0.020 C 
ATOM     30  C   UNL     1      40.152 -25.250 -13.717  0.00  0.00    +0.098 C 
ENDBRANCH  19  22
ENDBRANCH  18  19
ENDBRANCH   6  18
TORSDOF 3
ENDMDL
MODEL 9
REMARK VINA RESULT:     -11.0      1.317      8.231
REMARK  Name = 446752
REMARK  3 active torsions:
REMARK  status: ('A' for Active; 'I' for Inactive)
REMARK    1  A    between atoms: C_6  and  C_18
REMARK    2  A    between atoms: C_18  and  N_19
REMARK    3  A    between atoms: N_19  and  C_22
REMARK                            x       y       z     vdW  Elec       q    Type
REMARK                         _______ _______ _______ _____ _____    ______ ____
ROOT
ATOM      1  N   UNL     1      35.306 -15.023 -20.931  0.00  0.00    -0.182 NA
ATOM      2  N   UNL     1      34.571 -13.107 -22.002  0.00  0.00    -0.273 NA
ATOM      3  N   UNL     1      33.768 -13.163 -24.271  0.00  0.00    -0.312 NA
ATOM      4  N   UNL     1      33.703 -15.150 -25.474  0.00  0.00    -0.332 N 
ATOM      5  N   UNL     1      33.830 -11.153 -23.071  0.00  0.00    -0.283 N 
ATOM      6  C   UNL     1      35.293 -17.147 -22.057  0.00  0.00    +0.010 C 
ATOM      7  C   UNL     1      34.780 -16.550 -23.185  0.00  0.00    -0.009 C 
ATOM      8  C   UNL     1      34.530 -15.171 -23.172  0.00  0.00    +0.115 C 
ATOM      9  C   UNL     1      34.806 -14.424 -22.021  0.00  0.00    +0.104 C 
ATOM     10  C   UNL     1      35.541 -16.358 -20.962  0.00  0.00    +0.107 C 
ATOM     11  C   UNL     1      34.520 -17.437 -24.365  0.00  0.00    +0.032 C 
ATOM     12  C   UNL     1      34.012 -14.484 -24.268  0.00  0.00    +0.201 C 
ATOM     13  C   UNL     1      34.066 -12.544 -23.121  0.00  0.00    +0.206 C 
ATOM     14  H   UNL     1      33.337 -14.643 -26.235  0.00  0.00    +0.145 HD
ATOM     15  H   UNL     1      33.854 -16.119 -25.554  0.00  0.00    +0.145 HD
ATOM     16  H   UNL     1      34.031 -10.648 -22.251  0.00  0.00    +0.156 HD
ATOM     17  H   UNL     1      33.463 -10.689 -23.858  0.00  0.00    +0.156 HD
ENDROOT
BRANCH   6  18
ATOM     18  C   UNL     1      35.590 -18.621 -21.988  0.00  0.00    +0.097 C 
BRANCH  18  19
ATOM     19  N   UNL     1      35.880 -19.010 -20.647  0.00  0.00    -0.288 NA
ATOM     20  H   UNL     1      36.732 -18.721 -20.245  0.00  0.00    +0.124 HD
BRANCH  19  22
ATOM     21  N   UNL     1      34.927 -21.987 -16.910  0.00  0.00    -0.248 NA
ATOM     22  C   UNL     1      34.996 -19.796 -19.869  0.00  0.00    +0.101 C 
ATOM     23  C   UNL     1      35.440 -20.513 -18.746  0.00  0.00    +0.010 C 
ATOM     24  C   UNL     1      34.535 -21.288 -17.991  0.00  0.00    +0.061 C 
ATOM     25  C   UNL     1      33.657 -19.840 -20.249  0.00  0.00    -0.010 C 
ATOM     26  C   UNL     1      36.781 -20.486 -18.341  0.00  0.00    +0.000 C 
ATOM     27  C   UNL     1      33.203 -21.315 -18.394  0.00  0.00    +0.071 C 
ATOM     28  C   UNL     1      32.760 -20.601 -19.510  0.00  0.00    -0.023 C 
ATOM     29  C   UNL     1      37.189 -21.205 -17.228  0.00  0.00    +0.020 C 
ATOM     30  C   UNL     1      36.231 -21.934 -16.552  0.00  0.00    +0.098 C 
ENDBRANCH  19  22
ENDBRANCH  18  19
ENDBRANCH   6  18
TORSDOF 3
ENDMDL
