MODEL 1
REMARK VINA RESULT:     -11.2      0.000      0.000
REMARK  Name = 42627769
REMARK  10 active torsions:
REMARK  status: ('A' for Active; 'I' for Inactive)
REMARK    1  A    between atoms: C_1  and  C_3
REMARK    2  A    between atoms: C_1  and  N_6
REMARK    3  A    between atoms: C_1  and  C_22
REMARK    4  A    between atoms: C_3  and  O_4
REMARK    5  A    between atoms: N_6  and  S_8
REMARK    6  A    between atoms: S_8  and  C_11
REMARK    7  A    between atoms: C_16  and  O_17
REMARK    8  A    between atoms: O_17  and  C_18
REMARK    9  A    between atoms: C_18  and  C_19
REMARK   10  A    between atoms: C_22  and  C_24
REMARK                            x       y       z     vdW  Elec       q    Type
REMARK                         _______ _______ _______ _____ _____    ______ ____
ROOT
ATOM      1  C   UNL     1      34.694 -22.975 -15.771  0.00  0.00    +0.178 C 
ENDROOT
BRANCH   1   3
ATOM      2  O   UNL     1      36.735 -22.481 -14.539  0.00  0.00    -0.249 OA
ATOM      3  C   UNL     1      35.990 -23.299 -15.063  0.00  0.00    +0.330 C 
BRANCH   3   4
ATOM      4  O   UNL     1      36.247 -24.634 -15.064  0.00  0.00    -0.479 OA
ATOM      5  H   UNL     1      36.530 -25.057 -14.277  0.00  0.00    +0.295 HD
ENDBRANCH   3   4
ENDBRANCH   1   3
BRANCH   1   6
ATOM      6  N   UNL     1      35.028 -22.065 -16.892  0.00  0.00    -0.170 NA
ATOM      7  H   UNL     1      35.053 -21.121 -16.509  0.00  0.00    +0.149 HD
BRANCH   6   8
ATOM      8  S   UNL     1      34.029 -22.012 -18.264  0.00  0.00    +0.061 S 
ATOM      9  O   UNL     1      32.693 -21.606 -17.874  0.00  0.00    -0.153 OA
ATOM     10  O   UNL     1      34.228 -23.226 -19.034  0.00  0.00    -0.153 OA
BRANCH   8  11
ATOM     11  C   UNL     1      34.752 -20.690 -19.190  0.00  0.00    +0.122 C 
ATOM     12  C   UNL     1      33.942 -19.853 -19.957  0.00  0.00    +0.023 C 
ATOM     13  C   UNL     1      36.131 -20.487 -19.155  0.00  0.00    +0.023 C 
ATOM     14  C   UNL     1      34.512 -18.812 -20.689  0.00  0.00    +0.038 C 
ATOM     15  C   UNL     1      36.701 -19.446 -19.888  0.00  0.00    +0.038 C 
ATOM     16  C   UNL     1      35.891 -18.608 -20.654  0.00  0.00    +0.140 C 
BRANCH  16  17
ATOM     17  O   UNL     1      36.447 -17.592 -21.370  0.00  0.00    -0.461 OA
BRANCH  17  18
ATOM     18  C   UNL     1      35.753 -17.168 -22.542  0.00  0.00    +0.281 C 
BRANCH  18  19
ATOM     19  C   UNL     1      35.351 -15.770 -22.399  0.00  0.00    -0.044 C 
ATOM     20  C   UNL     1      35.024 -14.620 -22.282  0.00  0.00    -0.086 C 
ATOM     21  C   UNL     1      34.623 -13.221 -22.140  0.00  0.00    +0.090 C 
ENDBRANCH  18  19
ENDBRANCH  17  18
ENDBRANCH  16  17
ENDBRANCH   8  11
ENDBRANCH   6   8
ENDBRANCH   1   6
BRANCH   1  22
ATOM     22  C   UNL     1      33.681 -22.285 -14.833  0.00  0.00    +0.056 C 
BRANCH  22  24
ATOM     23  N   UNL     1      31.781 -24.769 -12.948  0.00  0.00    -0.312 N 
ATOM     24  C   UNL     1      32.695 -23.207 -14.234  0.00  0.00    -0.004 C 
ATOM     25  C   UNL     1      31.324 -23.333 -14.594  0.00  0.00    +0.010 C 
ATOM     26  C   UNL     1      30.774 -24.319 -13.772  0.00  0.00    +0.048 C 
ATOM     27  C   UNL     1      32.946 -24.103 -13.220  0.00  0.00    +0.058 C 
ATOM     28  C   UNL     1      30.497 -22.701 -15.543  0.00  0.00    -0.003 C 
ATOM     29  C   UNL     1      29.432 -24.707 -13.853  0.00  0.00    +0.014 C 
ATOM     30  C   UNL     1      29.152 -23.079 -15.635  0.00  0.00    -0.022 C 
ATOM     31  C   UNL     1      28.630 -24.066 -14.802  0.00  0.00    -0.003 C 
ATOM     32  C   UNL     1      28.269 -22.412 -16.637  0.00  0.00    +0.031 C 
ATOM     33  H   UNL     1      31.679 -25.468 -12.263  0.00  0.00    +0.152 HD
ENDBRANCH  22  24
ENDBRANCH   1  22
TORSDOF 10
ENDMDL
MODEL 2
REMARK VINA RESULT:     -10.8      3.300      7.628
REMARK  Name = 42627769
REMARK  10 active torsions:
REMARK  status: ('A' for Active; 'I' for Inactive)
REMARK    1  A    between atoms: C_1  and  C_3
REMARK    2  A    between atoms: C_1  and  N_6
REMARK    3  A    between atoms: C_1  and  C_22
REMARK    4  A    between atoms: C_3  and  O_4
REMARK    5  A    between atoms: N_6  and  S_8
REMARK    6  A    between atoms: S_8  and  C_11
REMARK    7  A    between atoms: C_16  and  O_17
REMARK    8  A    between atoms: O_17  and  C_18
REMARK    9  A    between atoms: C_18  and  C_19
REMARK   10  A    between atoms: C_22  and  C_24
REMARK                            x       y       z     vdW  Elec       q    Type
REMARK                         _______ _______ _______ _____ _____    ______ ____
ROOT
ATOM      1  C   UNL     1      35.997 -22.220 -15.038  0.00  0.00    +0.178 C 
ENDROOT
BRANCH   1   3
ATOM      2  O   UNL     1      37.961 -22.374 -13.607  0.00  0.00    -0.249 OA
ATOM      3  C   UNL     1      37.258 -22.849 -14.490  0.00  0.00    +0.330 C 
BRANCH   3   4
ATOM      4  O   UNL     1      37.535 -24.036 -15.093  0.00  0.00    -0.479 OA
ATOM      5  H   UNL     1      38.354 -24.159 -15.531  0.00  0.00    +0.295 HD
ENDBRANCH   3   4
ENDBRANCH   1   3
BRANCH   1   6
ATOM      6  N   UNL     1      35.059 -22.069 -13.901  0.00  0.00    -0.170 NA
ATOM      7  H   UNL     1      35.532 -21.500 -13.200  0.00  0.00    +0.149 HD
BRANCH   6   8
ATOM      8  S   UNL     1      34.475 -23.448 -13.099  0.00  0.00    +0.061 S 
ATOM      9  O   UNL     1      34.539 -23.237 -11.665  0.00  0.00    -0.153 OA
ATOM     10  O   UNL     1      35.083 -24.625 -13.691  0.00  0.00    -0.153 OA
BRANCH   8  11
ATOM     11  C   UNL     1      32.773 -23.452 -13.573  0.00  0.00    +0.122 C 
ATOM     12  C   UNL     1      32.075 -22.249 -13.678  0.00  0.00    +0.023 C 
ATOM     13  C   UNL     1      32.125 -24.659 -13.840  0.00  0.00    +0.023 C 
ATOM     14  C   UNL     1      30.731 -22.252 -14.050  0.00  0.00    +0.038 C 
ATOM     15  C   UNL     1      30.781 -24.662 -14.212  0.00  0.00    +0.038 C 
ATOM     16  C   UNL     1      30.084 -23.459 -14.317  0.00  0.00    +0.140 C 
BRANCH  16  17
ATOM     17  O   UNL     1      28.772 -23.461 -14.679  0.00  0.00    -0.461 OA
BRANCH  17  18
ATOM     18  C   UNL     1      28.483 -23.558 -16.073  0.00  0.00    +0.281 C 
BRANCH  18  19
ATOM     19  C   UNL     1      27.622 -22.447 -16.476  0.00  0.00    -0.044 C 
ATOM     20  C   UNL     1      26.918 -21.533 -16.809  0.00  0.00    -0.086 C 
ATOM     21  C   UNL     1      26.058 -20.422 -17.215  0.00  0.00    +0.090 C 
ENDBRANCH  18  19
ENDBRANCH  17  18
ENDBRANCH  16  17
ENDBRANCH   8  11
ENDBRANCH   6   8
ENDBRANCH   1   6
BRANCH   1  22
ATOM     22  C   UNL     1      35.345 -23.093 -16.131  0.00  0.00    +0.056 C 
BRANCH  22  24
ATOM     23  N   UNL     1      32.486 -21.646 -17.882  0.00  0.00    -0.312 N 
ATOM     24  C   UNL     1      34.385 -22.364 -16.984  0.00  0.00    -0.004 C 
ATOM     25  C   UNL     1      34.702 -21.417 -17.998  0.00  0.00    +0.010 C 
ATOM     26  C   UNL     1      33.493 -20.982 -18.545  0.00  0.00    +0.048 C 
ATOM     27  C   UNL     1      33.015 -22.483 -16.937  0.00  0.00    +0.058 C 
ATOM     28  C   UNL     1      35.905 -20.887 -18.504  0.00  0.00    -0.003 C 
ATOM     29  C   UNL     1      33.426 -20.041 -19.578  0.00  0.00    +0.014 C 
ATOM     30  C   UNL     1      35.854 -19.944 -19.537  0.00  0.00    -0.022 C 
ATOM     31  C   UNL     1      34.633 -19.528 -20.064  0.00  0.00    -0.003 C 
ATOM     32  C   UNL     1      37.125 -19.377 -20.078  0.00  0.00    +0.031 C 
ATOM     33  H   UNL     1      31.524 -21.535 -18.061  0.00  0.00    +0.152 HD
ENDBRANCH  22  24
ENDBRANCH   1  22
TORSDOF 10
ENDMDL
MODEL 3
REMARK VINA RESULT:     -10.5      2.548      4.785
REMARK  Name = 42627769
REMARK  10 active torsions:
REMARK  status: ('A' for Active; 'I' for Inactive)
REMARK    1  A    between atoms: C_1  and  C_3
REMARK    2  A    between atoms: C_1  and  N_6
REMARK    3  A    between atoms: C_1  and  C_22
REMARK    4  A    between atoms: C_3  and  O_4
REMARK    5  A    between atoms: N_6  and  S_8
REMARK    6  A    between atoms: S_8  and  C_11
REMARK    7  A    between atoms: C_16  and  O_17
REMARK    8  A    between atoms: O_17  and  C_18
REMARK    9  A    between atoms: C_18  and  C_19
REMARK   10  A    between atoms: C_22  and  C_24
REMARK                            x       y       z     vdW  Elec       q    Type
REMARK                         _______ _______ _______ _____ _____    ______ ____
ROOT
ATOM      1  C   UNL     1      34.580 -22.188 -15.587  0.00  0.00    +0.178 C 
ENDROOT
BRANCH   1   3
ATOM      2  O   UNL     1      34.672 -24.621 -15.574  0.00  0.00    -0.249 OA
ATOM      3  C   UNL     1      34.056 -23.587 -15.351  0.00  0.00    +0.330 C 
BRANCH   3   4
ATOM      4  O   UNL     1      32.794 -23.576 -14.847  0.00  0.00    -0.479 OA
ATOM      5  H   UNL     1      32.142 -23.019 -15.225  0.00  0.00    +0.295 HD
ENDBRANCH   3   4
ENDBRANCH   1   3
BRANCH   1   6
ATOM      6  N   UNL     1      35.119 -22.155 -16.967  0.00  0.00    -0.170 NA
ATOM      7  H   UNL     1      35.750 -21.356 -17.019  0.00  0.00    +0.149 HD
BRANCH   6   8
ATOM      8  S   UNL     1      34.057 -22.027 -18.286  0.00  0.00    +0.061 S 
ATOM      9  O   UNL     1      32.753 -21.600 -17.817  0.00  0.00    -0.153 OA
ATOM     10  O   UNL     1      34.184 -23.217 -19.106  0.00  0.00    -0.153 OA
BRANCH   8  11
ATOM     11  C   UNL     1      34.771 -20.693 -19.200  0.00  0.00    +0.122 C 
ATOM     12  C   UNL     1      36.150 -20.489 -19.173  0.00  0.00    +0.023 C 
ATOM     13  C   UNL     1      33.955 -19.843 -19.947  0.00  0.00    +0.023 C 
ATOM     14  C   UNL     1      36.714 -19.435 -19.892  0.00  0.00    +0.038 C 
ATOM     15  C   UNL     1      34.518 -18.789 -20.666  0.00  0.00    +0.038 C 
ATOM     16  C   UNL     1      35.898 -18.585 -20.639  0.00  0.00    +0.140 C 
BRANCH  16  17
ATOM     17  O   UNL     1      36.448 -17.557 -21.339  0.00  0.00    -0.461 OA
BRANCH  17  18
ATOM     18  C   UNL     1      35.763 -17.133 -22.517  0.00  0.00    +0.281 C 
BRANCH  18  19
ATOM     19  C   UNL     1      35.350 -15.738 -22.373  0.00  0.00    -0.044 C 
ATOM     20  C   UNL     1      35.011 -14.591 -22.257  0.00  0.00    -0.086 C 
ATOM     21  C   UNL     1      34.597 -13.196 -22.115  0.00  0.00    +0.090 C 
ENDBRANCH  18  19
ENDBRANCH  17  18
ENDBRANCH  16  17
ENDBRANCH   8  11
ENDBRANCH   6   8
ENDBRANCH   1   6
BRANCH   1  22
ATOM     22  C   UNL     1      35.697 -21.815 -14.590  0.00  0.00    +0.056 C 
BRANCH  22  24
ATOM     23  N   UNL     1      35.720 -24.189 -11.815  0.00  0.00    -0.312 N 
ATOM     24  C   UNL     1      35.959 -22.851 -13.570  0.00  0.00    -0.004 C 
ATOM     25  C   UNL     1      37.114 -23.677 -13.480  0.00  0.00    +0.010 C 
ATOM     26  C   UNL     1      36.939 -24.506 -12.370  0.00  0.00    +0.048 C 
ATOM     27  C   UNL     1      35.120 -23.189 -12.533  0.00  0.00    +0.058 C 
ATOM     28  C   UNL     1      38.296 -23.797 -14.237  0.00  0.00    -0.003 C 
ATOM     29  C   UNL     1      37.891 -25.455 -11.978  0.00  0.00    +0.014 C 
ATOM     30  C   UNL     1      39.257 -24.742 -13.857  0.00  0.00    -0.022 C 
ATOM     31  C   UNL     1      39.055 -25.557 -12.745  0.00  0.00    -0.003 C 
ATOM     32  C   UNL     1      40.511 -24.877 -14.656  0.00  0.00    +0.031 C 
ATOM     33  H   UNL     1      35.335 -24.618 -11.017  0.00  0.00    +0.152 HD
ENDBRANCH  22  24
ENDBRANCH   1  22
TORSDOF 10
ENDMDL
MODEL 4
REMARK VINA RESULT:     -10.4      2.787      4.754
REMARK  Name = 42627769
REMARK  10 active torsions:
REMARK  status: ('A' for Active; 'I' for Inactive)
REMARK    1  A    between atoms: C_1  and  C_3
REMARK    2  A    between atoms: C_1  and  N_6
REMARK    3  A    between atoms: C_1  and  C_22
REMARK    4  A    between atoms: C_3  and  O_4
REMARK    5  A    between atoms: N_6  and  S_8
REMARK    6  A    between atoms: S_8  and  C_11
REMARK    7  A    between atoms: C_16  and  O_17
REMARK    8  A    between atoms: O_17  and  C_18
REMARK    9  A    between atoms: C_18  and  C_19
REMARK   10  A    between atoms: C_22  and  C_24
REMARK                            x       y       z     vdW  Elec       q    Type
REMARK                         _______ _______ _______ _____ _____    ______ ____
ROOT
ATOM      1  C   UNL     1      34.782 -22.029 -15.760  0.00  0.00    +0.178 C 
ENDROOT
BRANCH   1   3
ATOM      2  O   UNL     1      34.865 -24.440 -15.425  0.00  0.00    -0.249 OA
ATOM      3  C   UNL     1      34.406 -23.346 -15.119  0.00  0.00    +0.330 C 
BRANCH   3   4
ATOM      4  O   UNL     1      33.482 -23.185 -14.136  0.00  0.00    -0.479 OA
ATOM      5  H   UNL     1      33.731 -23.282 -13.238  0.00  0.00    +0.295 HD
ENDBRANCH   3   4
ENDBRANCH   1   3
BRANCH   1   6
ATOM      6  N   UNL     1      35.153 -22.322 -17.165  0.00  0.00    -0.170 NA
ATOM      7  H   UNL     1      35.963 -21.744 -17.383  0.00  0.00    +0.149 HD
BRANCH   6   8
ATOM      8  S   UNL     1      34.023 -22.072 -18.407  0.00  0.00    +0.061 S 
ATOM      9  O   UNL     1      32.759 -21.650 -17.834  0.00  0.00    -0.153 OA
ATOM     10  O   UNL     1      34.070 -23.202 -19.317  0.00  0.00    -0.153 OA
BRANCH   8  11
ATOM     11  C   UNL     1      34.721 -20.692 -19.263  0.00  0.00    +0.122 C 
ATOM     12  C   UNL     1      36.096 -20.465 -19.214  0.00  0.00    +0.023 C 
ATOM     13  C   UNL     1      33.896 -19.828 -19.984  0.00  0.00    +0.023 C 
ATOM     14  C   UNL     1      36.647 -19.375 -19.887  0.00  0.00    +0.038 C 
ATOM     15  C   UNL     1      34.448 -18.738 -20.657  0.00  0.00    +0.038 C 
ATOM     16  C   UNL     1      35.823 -18.511 -20.609  0.00  0.00    +0.140 C 
BRANCH  16  17
ATOM     17  O   UNL     1      36.361 -17.447 -21.265  0.00  0.00    -0.461 OA
BRANCH  17  18
ATOM     18  C   UNL     1      35.740 -17.056 -22.488  0.00  0.00    +0.281 C 
BRANCH  18  19
ATOM     19  C   UNL     1      35.327 -15.656 -22.406  0.00  0.00    -0.044 C 
ATOM     20  C   UNL     1      34.988 -14.505 -22.342  0.00  0.00    -0.086 C 
ATOM     21  C   UNL     1      34.574 -13.106 -22.263  0.00  0.00    +0.090 C 
ENDBRANCH  18  19
ENDBRANCH  17  18
ENDBRANCH  16  17
ENDBRANCH   8  11
ENDBRANCH   6   8
ENDBRANCH   1   6
BRANCH   1  22
ATOM     22  C   UNL     1      35.972 -21.358 -15.043  0.00  0.00    +0.056 C 
BRANCH  22  24
ATOM     23  N   UNL     1      38.851 -23.578 -14.702  0.00  0.00    -0.312 N 
ATOM     24  C   UNL     1      37.038 -22.299 -14.643  0.00  0.00    -0.004 C 
ATOM     25  C   UNL     1      37.171 -22.941 -13.380  0.00  0.00    +0.010 C 
ATOM     26  C   UNL     1      38.316 -23.737 -13.445  0.00  0.00    +0.048 C 
ATOM     27  C   UNL     1      38.086 -22.710 -15.434  0.00  0.00    +0.058 C 
ATOM     28  C   UNL     1      36.424 -22.921 -12.186  0.00  0.00    -0.003 C 
ATOM     29  C   UNL     1      38.753 -24.519 -12.369  0.00  0.00    +0.014 C 
ATOM     30  C   UNL     1      36.849 -23.698 -11.102  0.00  0.00    -0.022 C 
ATOM     31  C   UNL     1      37.997 -24.483 -11.194  0.00  0.00    -0.003 C 
ATOM     32  C   UNL     1      36.063 -23.681  -9.833  0.00  0.00    +0.031 C 
ATOM     33  H   UNL     1      39.666 -24.023 -15.029  0.00  0.00    +0.152 HD
ENDBRANCH  22  24
ENDBRANCH   1  22
TORSDOF 10
ENDMDL
MODEL 5
REMARK VINA RESULT:     -10.4      3.015      5.663
REMARK  Name = 42627769
REMARK  10 active torsions:
REMARK  status: ('A' for Active; 'I' for Inactive)
REMARK    1  A    between atoms: C_1  and  C_3
REMARK    2  A    between atoms: C_1  and  N_6
REMARK    3  A    between atoms: C_1  and  C_22
REMARK    4  A    between atoms: C_3  and  O_4
REMARK    5  A    between atoms: N_6  and  S_8
REMARK    6  A    between atoms: S_8  and  C_11
REMARK    7  A    between atoms: C_16  and  O_17
REMARK    8  A    between atoms: O_17  and  C_18
REMARK    9  A    between atoms: C_18  and  C_19
REMARK   10  A    between atoms: C_22  and  C_24
REMARK                            x       y       z     vdW  Elec       q    Type
REMARK                         _______ _______ _______ _____ _____    ______ ____
ROOT
ATOM      1  C   UNL     1      34.434 -19.688 -19.735  0.00  0.00    +0.178 C 
ENDROOT
BRANCH   1   3
ATOM      2  O   UNL     1      32.329 -19.733 -20.957  0.00  0.00    -0.249 OA
ATOM      3  C   UNL     1      32.939 -19.839 -19.901  0.00  0.00    +0.330 C 
BRANCH   3   4
ATOM      4  O   UNL     1      32.325 -20.119 -18.721  0.00  0.00    -0.479 OA
ATOM      5  H   UNL     1      31.503 -19.720 -18.515  0.00  0.00    +0.295 HD
ENDBRANCH   3   4
ENDBRANCH   1   3
BRANCH   1   6
ATOM      6  N   UNL     1      34.942 -19.030 -20.962  0.00  0.00    -0.170 NA
ATOM      7  H   UNL     1      35.182 -19.772 -21.618  0.00  0.00    +0.149 HD
BRANCH   6   8
ATOM      8  S   UNL     1      36.288 -17.999 -20.873  0.00  0.00    +0.061 S 
ATOM      9  O   UNL     1      37.149 -18.228 -22.017  0.00  0.00    -0.153 OA
ATOM     10  O   UNL     1      36.831 -18.054 -19.528  0.00  0.00    -0.153 OA
BRANCH   8  11
ATOM     11  C   UNL     1      35.542 -16.408 -21.062  0.00  0.00    +0.122 C 
ATOM     12  C   UNL     1      35.394 -15.855 -22.334  0.00  0.00    +0.023 C 
ATOM     13  C   UNL     1      35.105 -15.704 -19.940  0.00  0.00    +0.023 C 
ATOM     14  C   UNL     1      34.808 -14.598 -22.484  0.00  0.00    +0.038 C 
ATOM     15  C   UNL     1      34.518 -14.447 -20.091  0.00  0.00    +0.038 C 
ATOM     16  C   UNL     1      34.369 -13.894 -21.362  0.00  0.00    +0.140 C 
BRANCH  16  17
ATOM     17  O   UNL     1      33.798 -12.668 -21.509  0.00  0.00    -0.461 OA
BRANCH  17  18
ATOM     18  C   UNL     1      32.381 -12.590 -21.364  0.00  0.00    +0.281 C 
BRANCH  18  19
ATOM     19  C   UNL     1      32.050 -11.846 -20.150  0.00  0.00    -0.044 C 
ATOM     20  C   UNL     1      31.780 -11.236 -19.151  0.00  0.00    -0.086 C 
ATOM     21  C   UNL     1      31.451 -10.493 -17.936  0.00  0.00    +0.090 C 
ENDBRANCH  18  19
ENDBRANCH  17  18
ENDBRANCH  16  17
ENDBRANCH   8  11
ENDBRANCH   6   8
ENDBRANCH   1   6
BRANCH   1  22
ATOM     22  C   UNL     1      35.136 -21.051 -19.555  0.00  0.00    +0.056 C 
BRANCH  22  24
ATOM     23  N   UNL     1      37.021 -21.357 -16.443  0.00  0.00    -0.312 N 
ATOM     24  C   UNL     1      35.657 -21.280 -18.193  0.00  0.00    -0.004 C 
ATOM     25  C   UNL     1      34.938 -21.823 -17.091  0.00  0.00    +0.010 C 
ATOM     26  C   UNL     1      35.817 -21.859 -16.006  0.00  0.00    +0.048 C 
ATOM     27  C   UNL     1      36.935 -21.003 -17.763  0.00  0.00    +0.058 C 
ATOM     28  C   UNL     1      33.620 -22.288 -16.912  0.00  0.00    -0.003 C 
ATOM     29  C   UNL     1      35.443 -22.340 -14.747  0.00  0.00    +0.014 C 
ATOM     30  C   UNL     1      33.232 -22.772 -15.658  0.00  0.00    -0.022 C 
ATOM     31  C   UNL     1      34.130 -22.796 -14.593  0.00  0.00    -0.003 C 
ATOM     32  C   UNL     1      31.836 -23.265 -15.461  0.00  0.00    +0.031 C 
ATOM     33  H   UNL     1      37.829 -21.263 -15.887  0.00  0.00    +0.152 HD
ENDBRANCH  22  24
ENDBRANCH   1  22
TORSDOF 10
ENDMDL
MODEL 6
REMARK VINA RESULT:      -9.9      6.554     13.864
REMARK  Name = 42627769
REMARK  10 active torsions:
REMARK  status: ('A' for Active; 'I' for Inactive)
REMARK    1  A    between atoms: C_1  and  C_3
REMARK    2  A    between atoms: C_1  and  N_6
REMARK    3  A    between atoms: C_1  and  C_22
REMARK    4  A    between atoms: C_3  and  O_4
REMARK    5  A    between atoms: N_6  and  S_8
REMARK    6  A    between atoms: S_8  and  C_11
REMARK    7  A    between atoms: C_16  and  O_17
REMARK    8  A    between atoms: O_17  and  C_18
REMARK    9  A    between atoms: C_18  and  C_19
REMARK   10  A    between atoms: C_22  and  C_24
REMARK                            x       y       z     vdW  Elec       q    Type
REMARK                         _______ _______ _______ _____ _____    ______ ____
ROOT
ATOM      1  C   UNL     1      34.389 -10.147 -23.273  0.00  0.00    +0.178 C 
ENDROOT
BRANCH   1   3
ATOM      2  O   UNL     1      35.867  -9.634 -25.139  0.00  0.00    -0.249 OA
ATOM      3  C   UNL     1      34.806 -10.083 -24.725  0.00  0.00    +0.330 C 
BRANCH   3   4
ATOM      4  O   UNL     1      33.853 -10.595 -25.548  0.00  0.00    -0.479 OA
ATOM      5  H   UNL     1      33.287 -11.276 -25.243  0.00  0.00    +0.295 HD
ENDBRANCH   3   4
ENDBRANCH   1   3
BRANCH   1   6
ATOM      6  N   UNL     1      34.682 -11.520 -22.799  0.00  0.00    -0.170 NA
ATOM      7  H   UNL     1      35.461 -11.866 -23.358  0.00  0.00    +0.149 HD
BRANCH   6   8
ATOM      8  S   UNL     1      33.472 -12.710 -22.855  0.00  0.00    +0.061 S 
ATOM      9  O   UNL     1      33.251 -13.111 -24.232  0.00  0.00    -0.153 OA
ATOM     10  O   UNL     1      32.357 -12.282 -22.032  0.00  0.00    -0.153 OA
BRANCH   8  11
ATOM     11  C   UNL     1      34.247 -14.058 -22.014  0.00  0.00    +0.122 C 
ATOM     12  C   UNL     1      34.796 -15.111 -22.743  0.00  0.00    +0.023 C 
ATOM     13  C   UNL     1      34.305 -14.069 -20.620  0.00  0.00    +0.023 C 
ATOM     14  C   UNL     1      35.406 -16.176 -22.079  0.00  0.00    +0.038 C 
ATOM     15  C   UNL     1      34.915 -15.134 -19.956  0.00  0.00    +0.038 C 
ATOM     16  C   UNL     1      35.465 -16.187 -20.686  0.00  0.00    +0.140 C 
BRANCH  16  17
ATOM     17  O   UNL     1      36.059 -17.227 -20.039  0.00  0.00    -0.461 OA
BRANCH  17  18
ATOM     18  C   UNL     1      36.082 -18.484 -20.713  0.00  0.00    +0.281 C 
BRANCH  18  19
ATOM     19  C   UNL     1      35.143 -19.404 -20.073  0.00  0.00    -0.044 C 
ATOM     20  C   UNL     1      34.373 -20.162 -19.547  0.00  0.00    -0.086 C 
ATOM     21  C   UNL     1      33.437 -21.083 -18.906  0.00  0.00    +0.090 C 
ENDBRANCH  18  19
ENDBRANCH  17  18
ENDBRANCH  16  17
ENDBRANCH   8  11
ENDBRANCH   6   8
ENDBRANCH   1   6
BRANCH   1  22
ATOM     22  C   UNL     1      32.885  -9.851 -23.091  0.00  0.00    +0.056 C 
BRANCH  22  24
ATOM     23  N   UNL     1      32.188  -7.468 -20.413  0.00  0.00    -0.312 N 
ATOM     24  C   UNL     1      32.605  -8.695 -22.216  0.00  0.00    -0.004 C 
ATOM     25  C   UNL     1      32.473  -7.337 -22.622  0.00  0.00    +0.010 C 
ATOM     26  C   UNL     1      32.212  -6.589 -21.472  0.00  0.00    +0.048 C 
ATOM     27  C   UNL     1      32.425  -8.743 -20.853  0.00  0.00    +0.058 C 
ATOM     28  C   UNL     1      32.550  -6.672 -23.861  0.00  0.00    -0.003 C 
ATOM     29  C   UNL     1      32.023  -5.203 -21.500  0.00  0.00    +0.014 C 
ATOM     30  C   UNL     1      32.364  -5.285 -23.904  0.00  0.00    -0.022 C 
ATOM     31  C   UNL     1      32.105  -4.564 -22.740  0.00  0.00    -0.003 C 
ATOM     32  C   UNL     1      32.446  -4.573 -25.214  0.00  0.00    +0.031 C 
ATOM     33  H   UNL     1      32.025  -7.217 -19.475  0.00  0.00    +0.152 HD
ENDBRANCH  22  24
ENDBRANCH   1  22
TORSDOF 10
ENDMDL
MODEL 7
REMARK VINA RESULT:      -9.8      6.762     13.538
REMARK  Name = 42627769
REMARK  10 active torsions:
REMARK  status: ('A' for Active; 'I' for Inactive)
REMARK    1  A    between atoms: C_1  and  C_3
REMARK    2  A    between atoms: C_1  and  N_6
REMARK    3  A    between atoms: C_1  and  C_22
REMARK    4  A    between atoms: C_3  and  O_4
REMARK    5  A    between atoms: N_6  and  S_8
REMARK    6  A    between atoms: S_8  and  C_11
REMARK    7  A    between atoms: C_16  and  O_17
REMARK    8  A    between atoms: O_17  and  C_18
REMARK    9  A    between atoms: C_18  and  C_19
REMARK   10  A    between atoms: C_22  and  C_24
REMARK                            x       y       z     vdW  Elec       q    Type
REMARK                         _______ _______ _______ _____ _____    ______ ____
ROOT
ATOM      1  C   UNL     1      32.106 -10.670 -21.447  0.00  0.00    +0.178 C 
ENDROOT
BRANCH   1   3
ATOM      2  O   UNL     1      31.809  -9.828 -19.181  0.00  0.00    -0.249 OA
ATOM      3  C   UNL     1      31.355 -10.405 -20.161  0.00  0.00    +0.330 C 
BRANCH   3   4
ATOM      4  O   UNL     1      30.084 -10.883 -20.210  0.00  0.00    -0.479 OA
ATOM      5  H   UNL     1      29.683 -11.228 -19.436  0.00  0.00    +0.295 HD
ENDBRANCH   3   4
ENDBRANCH   1   3
BRANCH   1   6
ATOM      6  N   UNL     1      32.712 -12.017 -21.324  0.00  0.00    -0.170 NA
ATOM      7  H   UNL     1      33.313 -11.997 -20.501  0.00  0.00    +0.149 HD
BRANCH   6   8
ATOM      8  S   UNL     1      33.645 -12.643 -22.598  0.00  0.00    +0.061 S 
ATOM      9  O   UNL     1      34.717 -11.717 -22.912  0.00  0.00    -0.153 OA
ATOM     10  O   UNL     1      32.754 -13.110 -23.644  0.00  0.00    -0.153 OA
BRANCH   8  11
ATOM     11  C   UNL     1      34.363 -14.075 -21.854  0.00  0.00    +0.122 C 
ATOM     12  C   UNL     1      34.907 -15.079 -22.655  0.00  0.00    +0.023 C 
ATOM     13  C   UNL     1      34.383 -14.205 -20.465  0.00  0.00    +0.023 C 
ATOM     14  C   UNL     1      35.472 -16.211 -22.069  0.00  0.00    +0.038 C 
ATOM     15  C   UNL     1      34.948 -15.337 -19.878  0.00  0.00    +0.038 C 
ATOM     16  C   UNL     1      35.493 -16.340 -20.680  0.00  0.00    +0.140 C 
BRANCH  16  17
ATOM     17  O   UNL     1      36.043 -17.445 -20.108  0.00  0.00    -0.461 OA
BRANCH  17  18
ATOM     18  C   UNL     1      35.868 -18.686 -20.790  0.00  0.00    +0.281 C 
BRANCH  18  19
ATOM     19  C   UNL     1      34.989 -19.557 -20.012  0.00  0.00    -0.044 C 
ATOM     20  C   UNL     1      34.265 -20.273 -19.375  0.00  0.00    -0.086 C 
ATOM     21  C   UNL     1      33.385 -21.145 -18.599  0.00  0.00    +0.090 C 
ENDBRANCH  18  19
ENDBRANCH  17  18
ENDBRANCH  16  17
ENDBRANCH   8  11
ENDBRANCH   6   8
ENDBRANCH   1   6
BRANCH   1  22
ATOM     22  C   UNL     1      33.216  -9.627 -21.692  0.00  0.00    +0.056 C 
BRANCH  22  24
ATOM     23  N   UNL     1      31.971  -6.803 -23.644  0.00  0.00    -0.312 N 
ATOM     24  C   UNL     1      32.723  -8.345 -22.236  0.00  0.00    -0.004 C 
ATOM     25  C   UNL     1      32.519  -7.139 -21.508  0.00  0.00    +0.010 C 
ATOM     26  C   UNL     1      32.047  -6.188 -22.415  0.00  0.00    +0.048 C 
ATOM     27  C   UNL     1      32.378  -8.107 -23.546  0.00  0.00    +0.058 C 
ATOM     28  C   UNL     1      32.691  -6.765 -20.161  0.00  0.00    -0.003 C 
ATOM     29  C   UNL     1      31.738  -4.876 -22.041  0.00  0.00    +0.014 C 
ATOM     30  C   UNL     1      32.385  -5.455 -19.772  0.00  0.00    -0.022 C 
ATOM     31  C   UNL     1      31.916  -4.527 -20.699  0.00  0.00    -0.003 C 
ATOM     32  C   UNL     1      32.564  -5.052 -18.346  0.00  0.00    +0.031 C 
ATOM     33  H   UNL     1      31.669  -6.369 -24.475  0.00  0.00    +0.152 HD
ENDBRANCH  22  24
ENDBRANCH   1  22
TORSDOF 10
ENDMDL
MODEL 8
REMARK VINA RESULT:      -9.8      9.861     13.968
REMARK  Name = 42627769
REMARK  10 active torsions:
REMARK  status: ('A' for Active; 'I' for Inactive)
REMARK    1  A    between atoms: C_1  and  C_3
REMARK    2  A    between atoms: C_1  and  N_6
REMARK    3  A    between atoms: C_1  and  C_22
REMARK    4  A    between atoms: C_3  and  O_4
REMARK    5  A    between atoms: N_6  and  S_8
REMARK    6  A    between atoms: S_8  and  C_11
REMARK    7  A    between atoms: C_16  and  O_17
REMARK    8  A    between atoms: O_17  and  C_18
REMARK    9  A    between atoms: C_18  and  C_19
REMARK   10  A    between atoms: C_22  and  C_24
REMARK                            x       y       z     vdW  Elec       q    Type
REMARK                         _______ _______ _______ _____ _____    ______ ____
ROOT
ATOM      1  C   UNL     1      33.095  -6.945 -23.207  0.00  0.00    +0.178 C 
ENDROOT
BRANCH   1   3
ATOM      2  O   UNL     1      31.583  -5.038 -23.144  0.00  0.00    -0.249 OA
ATOM      3  C   UNL     1      32.541  -5.609 -23.648  0.00  0.00    +0.330 C 
BRANCH   3   4
ATOM      4  O   UNL     1      33.242  -5.089 -24.690  0.00  0.00    -0.479 OA
ATOM      5  H   UNL     1      33.272  -4.162 -24.819  0.00  0.00    +0.295 HD
ENDBRANCH   3   4
ENDBRANCH   1   3
BRANCH   1   6
ATOM      6  N   UNL     1      33.663  -7.596 -24.411  0.00  0.00    -0.170 NA
ATOM      7  H   UNL     1      32.957  -8.246 -24.756  0.00  0.00    +0.149 HD
BRANCH   6   8
ATOM      8  S   UNL     1      35.116  -8.467 -24.296  0.00  0.00    +0.061 S 
ATOM      9  O   UNL     1      35.700  -8.261 -22.984  0.00  0.00    -0.153 OA
ATOM     10  O   UNL     1      35.903  -8.224 -25.491  0.00  0.00    -0.153 OA
BRANCH   8  11
ATOM     11  C   UNL     1      34.549 -10.138 -24.383  0.00  0.00    +0.122 C 
ATOM     12  C   UNL     1      34.462 -10.906 -23.223  0.00  0.00    +0.023 C 
ATOM     13  C   UNL     1      34.190 -10.690 -25.613  0.00  0.00    +0.023 C 
ATOM     14  C   UNL     1      34.017 -12.226 -23.291  0.00  0.00    +0.038 C 
ATOM     15  C   UNL     1      33.745 -12.010 -25.681  0.00  0.00    +0.038 C 
ATOM     16  C   UNL     1      33.657 -12.778 -24.521  0.00  0.00    +0.140 C 
BRANCH  16  17
ATOM     17  O   UNL     1      33.224 -14.066 -24.587  0.00  0.00    -0.461 OA
BRANCH  17  18
ATOM     18  C   UNL     1      34.111 -15.022 -25.165  0.00  0.00    +0.281 C 
BRANCH  18  19
ATOM     19  C   UNL     1      34.716 -15.834 -24.111  0.00  0.00    -0.044 C 
ATOM     20  C   UNL     1      35.212 -16.499 -23.242  0.00  0.00    -0.086 C 
ATOM     21  C   UNL     1      35.814 -17.311 -22.186  0.00  0.00    +0.090 C 
ENDBRANCH  18  19
ENDBRANCH  17  18
ENDBRANCH  16  17
ENDBRANCH   8  11
ENDBRANCH   6   8
ENDBRANCH   1   6
BRANCH   1  22
ATOM     22  C   UNL     1      32.003  -7.850 -22.600  0.00  0.00    +0.056 C 
BRANCH  22  24
ATOM     23  N   UNL     1      32.180  -7.408 -18.979  0.00  0.00    -0.312 N 
ATOM     24  C   UNL     1      32.063  -7.955 -21.127  0.00  0.00    -0.004 C 
ATOM     25  C   UNL     1      32.046  -9.154 -20.362  0.00  0.00    +0.010 C 
ATOM     26  C   UNL     1      32.120  -8.783 -19.018  0.00  0.00    +0.048 C 
ATOM     27  C   UNL     1      32.145  -6.899 -20.250  0.00  0.00    +0.058 C 
ATOM     28  C   UNL     1      31.975 -10.523 -20.685  0.00  0.00    -0.003 C 
ATOM     29  C   UNL     1      32.127  -9.717 -17.976  0.00  0.00    +0.014 C 
ATOM     30  C   UNL     1      31.981 -11.469 -19.653  0.00  0.00    -0.022 C 
ATOM     31  C   UNL     1      32.055 -11.070 -18.320  0.00  0.00    -0.003 C 
ATOM     32  C   UNL     1      31.904 -12.922 -19.987  0.00  0.00    +0.031 C 
ATOM     33  H   UNL     1      32.238  -6.869 -18.157  0.00  0.00    +0.152 HD
ENDBRANCH  22  24
ENDBRANCH   1  22
TORSDOF 10
ENDMDL
MODEL 9
REMARK VINA RESULT:      -9.7      7.939     13.788
REMARK  Name = 42627769
REMARK  10 active torsions:
REMARK  status: ('A' for Active; 'I' for Inactive)
REMARK    1  A    between atoms: C_1  and  C_3
REMARK    2  A    between atoms: C_1  and  N_6
REMARK    3  A    between atoms: C_1  and  C_22
REMARK    4  A    between atoms: C_3  and  O_4
REMARK    5  A    between atoms: N_6  and  S_8
REMARK    6  A    between atoms: S_8  and  C_11
REMARK    7  A    between atoms: C_16  and  O_17
REMARK    8  A    between atoms: O_17  and  C_18
REMARK    9  A    between atoms: C_18  and  C_19
REMARK   10  A    between atoms: C_22  and  C_24
REMARK                            x       y       z     vdW  Elec       q    Type
REMARK                         _______ _______ _______ _____ _____    ______ ____
ROOT
ATOM      1  C   UNL     1      31.964  -8.373 -20.825  0.00  0.00    +0.178 C 
ENDROOT
BRANCH   1   3
ATOM      2  O   UNL     1      32.374  -6.242 -19.720  0.00  0.00    -0.249 OA
ATOM      3  C   UNL     1      32.485  -7.461 -19.737  0.00  0.00    +0.330 C 
BRANCH   3   4
ATOM      4  O   UNL     1      33.103  -8.158 -18.747  0.00  0.00    -0.479 OA
ATOM      5  H   UNL     1      32.737  -8.171 -17.884  0.00  0.00    +0.295 HD
ENDBRANCH   3   4
ENDBRANCH   1   3
BRANCH   1   6
ATOM      6  N   UNL     1      32.743  -9.631 -20.745  0.00  0.00    -0.170 NA
ATOM      7  H   UNL     1      33.178  -9.768 -21.656  0.00  0.00    +0.149 HD
BRANCH   6   8
ATOM      8  S   UNL     1      31.959 -11.086 -20.352  0.00  0.00    +0.061 S 
ATOM      9  O   UNL     1      30.711 -11.176 -21.085  0.00  0.00    -0.153 OA
ATOM     10  O   UNL     1      31.972 -11.249 -18.910  0.00  0.00    -0.153 OA
BRANCH   8  11
ATOM     11  C   UNL     1      33.069 -12.289 -21.018  0.00  0.00    +0.122 C 
ATOM     12  C   UNL     1      33.614 -13.269 -20.188  0.00  0.00    +0.023 C 
ATOM     13  C   UNL     1      33.403 -12.257 -22.372  0.00  0.00    +0.023 C 
ATOM     14  C   UNL     1      34.492 -14.217 -20.712  0.00  0.00    +0.038 C 
ATOM     15  C   UNL     1      34.282 -13.206 -22.896  0.00  0.00    +0.038 C 
ATOM     16  C   UNL     1      34.826 -14.186 -22.067  0.00  0.00    +0.140 C 
BRANCH  16  17
ATOM     17  O   UNL     1      35.683 -15.111 -22.577  0.00  0.00    -0.461 OA
BRANCH  17  18
ATOM     18  C   UNL     1      35.110 -16.306 -23.106  0.00  0.00    +0.281 C 
BRANCH  18  19
ATOM     19  C   UNL     1      35.284 -17.400 -22.152  0.00  0.00    -0.044 C 
ATOM     20  C   UNL     1      35.429 -18.298 -21.367  0.00  0.00    -0.086 C 
ATOM     21  C   UNL     1      35.605 -19.390 -20.411  0.00  0.00    +0.090 C 
ENDBRANCH  18  19
ENDBRANCH  17  18
ENDBRANCH  16  17
ENDBRANCH   8  11
ENDBRANCH   6   8
ENDBRANCH   1   6
BRANCH   1  22
ATOM     22  C   UNL     1      32.134  -7.752 -22.228  0.00  0.00    +0.056 C 
BRANCH  22  24
ATOM     23  N   UNL     1      35.675  -7.363 -23.034  0.00  0.00    -0.312 N 
ATOM     24  C   UNL     1      33.519  -7.802 -22.741  0.00  0.00    -0.004 C 
ATOM     25  C   UNL     1      34.016  -8.671 -23.752  0.00  0.00    +0.010 C 
ATOM     26  C   UNL     1      35.371  -8.375 -23.916  0.00  0.00    +0.048 C 
ATOM     27  C   UNL     1      34.562  -7.011 -22.318  0.00  0.00    +0.058 C 
ATOM     28  C   UNL     1      33.442  -9.683 -24.546  0.00  0.00    -0.003 C 
ATOM     29  C   UNL     1      36.184  -9.043 -24.839  0.00  0.00    +0.014 C 
ATOM     30  C   UNL     1      34.243 -10.360 -25.473  0.00  0.00    -0.022 C 
ATOM     31  C   UNL     1      35.592 -10.043 -25.616  0.00  0.00    -0.003 C 
ATOM     32  C   UNL     1      33.641 -11.435 -26.317  0.00  0.00    +0.031 C 
ATOM     33  H   UNL     1      36.564  -6.953 -22.930  0.00  0.00    +0.152 HD
ENDBRANCH  22  24
ENDBRANCH   1  22
TORSDOF 10
ENDMDL
