MODEL 1
REMARK VINA RESULT:     -11.7      0.000      0.000
REMARK  Name = 4369491
REMARK  2 active torsions:
REMARK  status: ('A' for Active; 'I' for Inactive)
REMARK    1  A    between atoms: C_10  and  C_21
REMARK    2  A    between atoms: C_17  and  O_27
REMARK                            x       y       z     vdW  Elec       q    Type
REMARK                         _______ _______ _______ _____ _____    ______ ____
ROOT
ATOM      1  O   UNL     1      31.910 -22.293 -16.603  0.00  0.00    -0.270 OA
ATOM      2  O   UNL     1      34.160 -24.136 -13.038  0.00  0.00    -0.270 OA
ATOM      3  N   UNL     1      36.805 -20.877 -17.943  0.00  0.00    -0.353 N 
ATOM      4  N   UNL     1      32.707 -23.341 -14.681  0.00  0.00    -0.248 N 
ATOM      5  C   UNL     1      34.916 -21.656 -17.036  0.00  0.00    +0.022 A 
ATOM      6  C   UNL     1      34.228 -22.344 -16.028  0.00  0.00    +0.060 C 
ATOM      7  C   UNL     1      36.308 -21.578 -16.872  0.00  0.00    +0.057 A 
ATOM      8  C   UNL     1      34.595 -20.969 -18.254  0.00  0.00    +0.020 A 
ATOM      9  C   UNL     1      34.905 -22.905 -14.946  0.00  0.00    +0.058 C 
ATOM     10  C   UNL     1      36.271 -22.823 -14.795  0.00  0.00    +0.006 C 
ATOM     11  C   UNL     1      35.795 -20.496 -18.792  0.00  0.00    +0.057 A 
ATOM     12  C   UNL     1      36.998 -22.145 -15.777  0.00  0.00    +0.017 C 
ATOM     13  C   UNL     1      32.805 -22.628 -15.853  0.00  0.00    +0.252 C 
ATOM     14  C   UNL     1      33.922 -23.548 -14.076  0.00  0.00    +0.252 C 
ATOM     15  C   UNL     1      33.404 -20.693 -18.964  0.00  0.00    +0.038 C 
ATOM     16  C   UNL     1      35.864 -19.772 -19.989  0.00  0.00    +0.020 C 
ATOM     17  C   UNL     1      33.457 -19.969 -20.162  0.00  0.00    +0.134 C 
ATOM     18  C   UNL     1      34.671 -19.516 -20.666  0.00  0.00    +0.038 C 
ATOM     19  H   UNL     1      37.758 -20.674 -18.084  0.00  0.00    +0.166 HD
ATOM     20  H   UNL     1      31.855 -23.667 -14.313  0.00  0.00    +0.158 HD
ENDROOT
BRANCH  10  21
ATOM     21  C   UNL     1      36.971 -23.405 -13.672  0.00  0.00    +0.000 C 
ATOM     22  C   UNL     1      37.169 -22.659 -12.510  0.00  0.00    +0.000 C 
ATOM     23  C   UNL     1      37.449 -24.714 -13.749  0.00  0.00    +0.000 C 
ATOM     24  C   UNL     1      37.844 -23.220 -11.426  0.00  0.00    +0.000 C 
ATOM     25  C   UNL     1      38.123 -25.276 -12.664  0.00  0.00    +0.000 C 
ATOM     26  C   UNL     1      38.321 -24.528 -11.503  0.00  0.00    +0.000 C 
ENDBRANCH  10  21
BRANCH  17  27
ATOM     27  O   UNL     1      32.304 -19.708 -20.840  0.00  0.00    -0.506 OA
ATOM     28  H   UNL     1      31.690 -20.397 -21.002  0.00  0.00    +0.292 HD
ENDBRANCH  17  27
TORSDOF 2
ENDMDL
MODEL 2
REMARK VINA RESULT:     -11.7      2.661      7.169
REMARK  Name = 4369491
REMARK  2 active torsions:
REMARK  status: ('A' for Active; 'I' for Inactive)
REMARK    1  A    between atoms: C_10  and  C_21
REMARK    2  A    between atoms: C_17  and  O_27
REMARK                            x       y       z     vdW  Elec       q    Type
REMARK                         _______ _______ _______ _____ _____    ______ ____
ROOT
ATOM      1  O   UNL     1      36.443 -22.314 -16.506  0.00  0.00    -0.270 OA
ATOM      2  O   UNL     1      31.951 -21.870 -17.395  0.00  0.00    -0.270 OA
ATOM      3  N   UNL     1      34.549 -24.241 -11.982  0.00  0.00    -0.353 N 
ATOM      4  N   UNL     1      34.280 -21.947 -17.290  0.00  0.00    -0.248 N 
ATOM      5  C   UNL     1      34.943 -23.373 -14.005  0.00  0.00    +0.022 A 
ATOM      6  C   UNL     1      34.498 -22.842 -15.223  0.00  0.00    +0.060 C 
ATOM      7  C   UNL     1      33.932 -23.747 -13.106  0.00  0.00    +0.057 A 
ATOM      8  C   UNL     1      36.199 -23.661 -13.374  0.00  0.00    +0.020 A 
ATOM      9  C   UNL     1      33.139 -22.705 -15.498  0.00  0.00    +0.058 C 
ATOM     10  C   UNL     1      32.156 -23.076 -14.608  0.00  0.00    +0.006 C 
ATOM     11  C   UNL     1      35.916 -24.200 -12.116  0.00  0.00    +0.057 A 
ATOM     12  C   UNL     1      32.553 -23.611 -13.380  0.00  0.00    +0.017 C 
ATOM     13  C   UNL     1      35.235 -22.350 -16.386  0.00  0.00    +0.252 C 
ATOM     14  C   UNL     1      32.998 -22.127 -16.833  0.00  0.00    +0.252 C 
ATOM     15  C   UNL     1      37.557 -23.520 -13.737  0.00  0.00    +0.038 C 
ATOM     16  C   UNL     1      36.910 -24.601 -11.214  0.00  0.00    +0.020 C 
ATOM     17  C   UNL     1      38.563 -23.917 -12.846  0.00  0.00    +0.134 C 
ATOM     18  C   UNL     1      38.242 -24.450 -11.603  0.00  0.00    +0.038 C 
ATOM     19  H   UNL     1      34.077 -24.578 -11.188  0.00  0.00    +0.166 HD
ATOM     20  H   UNL     1      34.493 -21.569 -18.173  0.00  0.00    +0.158 HD
ENDROOT
BRANCH  10  21
ATOM     21  C   UNL     1      30.746 -22.933 -14.895  0.00  0.00    +0.000 C 
ATOM     22  C   UNL     1      30.069 -21.774 -14.514  0.00  0.00    +0.000 C 
ATOM     23  C   UNL     1      30.060 -23.955 -15.554  0.00  0.00    +0.000 C 
ATOM     24  C   UNL     1      28.710 -21.635 -14.791  0.00  0.00    +0.000 C 
ATOM     25  C   UNL     1      28.700 -23.816 -15.831  0.00  0.00    +0.000 C 
ATOM     26  C   UNL     1      28.025 -22.656 -15.448  0.00  0.00    +0.000 C 
ENDBRANCH  10  21
BRANCH  17  27
ATOM     27  O   UNL     1      39.870 -23.778 -13.205  0.00  0.00    -0.506 OA
ATOM     28  H   UNL     1      40.524 -23.644 -12.548  0.00  0.00    +0.292 HD
ENDBRANCH  17  27
TORSDOF 2
ENDMDL
MODEL 3
REMARK VINA RESULT:     -11.4      2.323      4.680
REMARK  Name = 4369491
REMARK  2 active torsions:
REMARK  status: ('A' for Active; 'I' for Inactive)
REMARK    1  A    between atoms: C_10  and  C_21
REMARK    2  A    between atoms: C_17  and  O_27
REMARK                            x       y       z     vdW  Elec       q    Type
REMARK                         _______ _______ _______ _____ _____    ______ ____
ROOT
ATOM      1  O   UNL     1      32.962 -21.716 -17.760  0.00  0.00    -0.270 OA
ATOM      2  O   UNL     1      37.051 -22.339 -15.745  0.00  0.00    -0.270 OA
ATOM      3  N   UNL     1      31.309 -24.002 -13.310  0.00  0.00    -0.353 N 
ATOM      4  N   UNL     1      35.176 -21.868 -17.051  0.00  0.00    -0.248 N 
ATOM      5  C   UNL     1      32.399 -23.080 -15.031  0.00  0.00    +0.022 A 
ATOM      6  C   UNL     1      33.582 -22.675 -15.661  0.00  0.00    +0.060 C 
ATOM      7  C   UNL     1      32.561 -23.675 -13.769  0.00  0.00    +0.057 A 
ATOM      8  C   UNL     1      30.992 -23.065 -15.313  0.00  0.00    +0.020 A 
ATOM      9  C   UNL     1      34.823 -22.860 -15.056  0.00  0.00    +0.058 C 
ATOM     10  C   UNL     1      34.971 -23.445 -13.818  0.00  0.00    +0.006 C 
ATOM     11  C   UNL     1      30.344 -23.647 -14.220  0.00  0.00    +0.057 A 
ATOM     12  C   UNL     1      33.817 -23.865 -13.151  0.00  0.00    +0.017 C 
ATOM     13  C   UNL     1      33.814 -22.032 -16.954  0.00  0.00    +0.252 C 
ATOM     14  C   UNL     1      35.853 -22.340 -15.954  0.00  0.00    +0.252 C 
ATOM     15  C   UNL     1      30.192 -22.617 -16.388  0.00  0.00    +0.038 C 
ATOM     16  C   UNL     1      28.954 -23.802 -14.149  0.00  0.00    +0.020 C 
ATOM     17  C   UNL     1      28.801 -22.765 -16.332  0.00  0.00    +0.134 C 
ATOM     18  C   UNL     1      28.192 -23.349 -15.227  0.00  0.00    +0.038 C 
ATOM     19  H   UNL     1      31.127 -24.434 -12.445  0.00  0.00    +0.166 HD
ATOM     20  H   UNL     1      35.620 -21.456 -17.827  0.00  0.00    +0.158 HD
ENDROOT
BRANCH  10  21
ATOM     21  C   UNL     1      36.260 -23.637 -13.192  0.00  0.00    +0.000 C 
ATOM     22  C   UNL     1      36.749 -22.688 -12.293  0.00  0.00    +0.000 C 
ATOM     23  C   UNL     1      37.017 -24.773 -13.485  0.00  0.00    +0.000 C 
ATOM     24  C   UNL     1      37.993 -22.873 -11.690  0.00  0.00    +0.000 C 
ATOM     25  C   UNL     1      38.260 -24.959 -12.881  0.00  0.00    +0.000 C 
ATOM     26  C   UNL     1      38.748 -24.008 -11.984  0.00  0.00    +0.000 C 
ENDBRANCH  10  21
BRANCH  17  27
ATOM     27  O   UNL     1      28.037 -22.330 -17.373  0.00  0.00    -0.506 OA
ATOM     28  H   UNL     1      28.072 -21.431 -17.636  0.00  0.00    +0.292 HD
ENDBRANCH  17  27
TORSDOF 2
ENDMDL
MODEL 4
REMARK VINA RESULT:     -11.0      6.069      9.603
REMARK  Name = 4369491
REMARK  2 active torsions:
REMARK  status: ('A' for Active; 'I' for Inactive)
REMARK    1  A    between atoms: C_10  and  C_21
REMARK    2  A    between atoms: C_17  and  O_27
REMARK                            x       y       z     vdW  Elec       q    Type
REMARK                         _______ _______ _______ _____ _____    ______ ____
ROOT
ATOM      1  O   UNL     1      34.081 -15.690 -25.812  0.00  0.00    -0.270 OA
ATOM      2  O   UNL     1      35.025 -19.443 -23.323  0.00  0.00    -0.270 OA
ATOM      3  N   UNL     1      34.773 -13.378 -21.128  0.00  0.00    -0.353 N 
ATOM      4  N   UNL     1      34.516 -17.780 -24.878  0.00  0.00    -0.248 N 
ATOM      5  C   UNL     1      34.564 -14.719 -22.905  0.00  0.00    +0.022 A 
ATOM      6  C   UNL     1      34.590 -15.988 -23.497  0.00  0.00    +0.060 C 
ATOM      7  C   UNL     1      34.842 -14.689 -21.529  0.00  0.00    +0.057 A 
ATOM      8  C   UNL     1      34.322 -13.366 -23.316  0.00  0.00    +0.020 A 
ATOM      9  C   UNL     1      34.876 -17.128 -22.748  0.00  0.00    +0.058 C 
ATOM     10  C   UNL     1      35.148 -17.088 -21.399  0.00  0.00    +0.006 C 
ATOM     11  C   UNL     1      34.460 -12.558 -22.185  0.00  0.00    +0.057 A 
ATOM     12  C   UNL     1      35.133 -15.842 -20.766  0.00  0.00    +0.017 C 
ATOM     13  C   UNL     1      34.357 -16.414 -24.876  0.00  0.00    +0.252 C 
ATOM     14  C   UNL     1      34.827 -18.286 -23.640  0.00  0.00    +0.252 C 
ATOM     15  C   UNL     1      33.997 -12.735 -24.538  0.00  0.00    +0.038 C 
ATOM     16  C   UNL     1      34.292 -11.167 -22.213  0.00  0.00    +0.020 C 
ATOM     17  C   UNL     1      33.825 -11.345 -24.582  0.00  0.00    +0.134 C 
ATOM     18  C   UNL     1      33.972 -10.574 -23.434  0.00  0.00    +0.038 C 
ATOM     19  H   UNL     1      34.926 -13.066 -20.208  0.00  0.00    +0.166 HD
ATOM     20  H   UNL     1      34.416 -18.337 -25.682  0.00  0.00    +0.158 HD
ENDROOT
BRANCH  10  21
ATOM     21  C   UNL     1      35.443 -18.272 -20.624  0.00  0.00    +0.000 C 
ATOM     22  C   UNL     1      36.765 -18.592 -20.313  0.00  0.00    +0.000 C 
ATOM     23  C   UNL     1      34.406 -19.097 -20.186  0.00  0.00    +0.000 C 
ATOM     24  C   UNL     1      37.050 -19.734 -19.566  0.00  0.00    +0.000 C 
ATOM     25  C   UNL     1      34.691 -20.239 -19.437  0.00  0.00    +0.000 C 
ATOM     26  C   UNL     1      36.013 -20.558 -19.128  0.00  0.00    +0.000 C 
ENDBRANCH  10  21
BRANCH  17  27
ATOM     27  O   UNL     1      33.512 -10.745 -25.764  0.00  0.00    -0.506 OA
ATOM     28  H   UNL     1      32.985  -9.970 -25.771  0.00  0.00    +0.292 HD
ENDBRANCH  17  27
TORSDOF 2
ENDMDL
MODEL 5
REMARK VINA RESULT:     -10.8      1.641      7.159
REMARK  Name = 4369491
REMARK  2 active torsions:
REMARK  status: ('A' for Active; 'I' for Inactive)
REMARK    1  A    between atoms: C_10  and  C_21
REMARK    2  A    between atoms: C_17  and  O_27
REMARK                            x       y       z     vdW  Elec       q    Type
REMARK                         _______ _______ _______ _____ _____    ______ ____
ROOT
ATOM      1  O   UNL     1      32.751 -22.666 -16.544  0.00  0.00    -0.270 OA
ATOM      2  O   UNL     1      32.625 -19.924 -20.237  0.00  0.00    -0.270 OA
ATOM      3  N   UNL     1      37.843 -21.322 -16.703  0.00  0.00    -0.353 N 
ATOM      4  N   UNL     1      32.316 -21.359 -18.423  0.00  0.00    -0.248 N 
ATOM      5  C   UNL     1      35.647 -21.643 -16.979  0.00  0.00    +0.022 A 
ATOM      6  C   UNL     1      34.448 -21.415 -17.667  0.00  0.00    +0.060 C 
ATOM      7  C   UNL     1      36.774 -20.984 -17.496  0.00  0.00    +0.057 A 
ATOM      8  C   UNL     1      36.084 -22.395 -15.838  0.00  0.00    +0.020 A 
ATOM      9  C   UNL     1      34.404 -20.585 -18.785  0.00  0.00    +0.058 C 
ATOM     10  C   UNL     1      35.516 -19.943 -19.284  0.00  0.00    +0.006 C 
ATOM     11  C   UNL     1      37.456 -22.172 -15.696  0.00  0.00    +0.057 A 
ATOM     12  C   UNL     1      36.734 -20.142 -18.630  0.00  0.00    +0.017 C 
ATOM     13  C   UNL     1      33.094 -21.914 -17.435  0.00  0.00    +0.252 C 
ATOM     14  C   UNL     1      33.027 -20.549 -19.275  0.00  0.00    +0.252 C 
ATOM     15  C   UNL     1      35.458 -23.250 -14.903  0.00  0.00    +0.038 C 
ATOM     16  C   UNL     1      38.224 -22.753 -14.678  0.00  0.00    +0.020 C 
ATOM     17  C   UNL     1      36.213 -23.839 -13.881  0.00  0.00    +0.134 C 
ATOM     18  C   UNL     1      37.576 -23.592 -13.771  0.00  0.00    +0.038 C 
ATOM     19  H   UNL     1      38.762 -20.999 -16.837  0.00  0.00    +0.166 HD
ATOM     20  H   UNL     1      31.350 -21.524 -18.512  0.00  0.00    +0.158 HD
ENDROOT
BRANCH  10  21
ATOM     21  C   UNL     1      35.468 -19.083 -20.446  0.00  0.00    +0.000 C 
ATOM     22  C   UNL     1      35.243 -19.629 -21.710  0.00  0.00    +0.000 C 
ATOM     23  C   UNL     1      35.646 -17.706 -20.303  0.00  0.00    +0.000 C 
ATOM     24  C   UNL     1      35.197 -18.800 -22.830  0.00  0.00    +0.000 C 
ATOM     25  C   UNL     1      35.599 -16.877 -21.424  0.00  0.00    +0.000 C 
ATOM     26  C   UNL     1      35.375 -17.424 -22.687  0.00  0.00    +0.000 C 
ENDBRANCH  10  21
BRANCH  17  27
ATOM     27  O   UNL     1      35.600 -24.661 -12.983  0.00  0.00    -0.506 OA
ATOM     28  H   UNL     1      36.033 -24.887 -12.184  0.00  0.00    +0.292 HD
ENDBRANCH  17  27
TORSDOF 2
ENDMDL
MODEL 6
REMARK VINA RESULT:     -10.7      1.359      6.789
REMARK  Name = 4369491
REMARK  2 active torsions:
REMARK  status: ('A' for Active; 'I' for Inactive)
REMARK    1  A    between atoms: C_10  and  C_21
REMARK    2  A    between atoms: C_17  and  O_27
REMARK                            x       y       z     vdW  Elec       q    Type
REMARK                         _______ _______ _______ _____ _____    ______ ____
ROOT
ATOM      1  O   UNL     1      33.246 -23.984 -14.031  0.00  0.00    -0.270 OA
ATOM      2  O   UNL     1      32.308 -21.581 -17.841  0.00  0.00    -0.270 OA
ATOM      3  N   UNL     1      38.154 -22.521 -15.269  0.00  0.00    -0.353 N 
ATOM      4  N   UNL     1      32.409 -22.859 -15.892  0.00  0.00    -0.248 N 
ATOM      5  C   UNL     1      35.961 -22.925 -15.093  0.00  0.00    +0.022 A 
ATOM      6  C   UNL     1      34.646 -22.790 -15.555  0.00  0.00    +0.060 C 
ATOM      7  C   UNL     1      36.941 -22.283 -15.868  0.00  0.00    +0.057 A 
ATOM      8  C   UNL     1      36.638 -23.562 -14.000  0.00  0.00    +0.020 A 
ATOM      9  C   UNL     1      34.356 -22.063 -16.708  0.00  0.00    +0.058 C 
ATOM     10  C   UNL     1      35.324 -21.437 -17.460  0.00  0.00    +0.006 C 
ATOM     11  C   UNL     1      38.001 -23.290 -14.141  0.00  0.00    +0.057 A 
ATOM     12  C   UNL     1      36.651 -21.545 -17.037  0.00  0.00    +0.017 C 
ATOM     13  C   UNL     1      33.382 -23.304 -15.029  0.00  0.00    +0.252 C 
ATOM     14  C   UNL     1      32.911 -22.108 -16.926  0.00  0.00    +0.252 C 
ATOM     15  C   UNL     1      36.236 -24.349 -12.897  0.00  0.00    +0.038 C 
ATOM     16  C   UNL     1      38.971 -23.759 -13.246  0.00  0.00    +0.020 C 
ATOM     17  C   UNL     1      37.195 -24.825 -11.993  0.00  0.00    +0.134 C 
ATOM     18  C   UNL     1      38.543 -24.532 -12.167  0.00  0.00    +0.038 C 
ATOM     19  H   UNL     1      39.016 -22.185 -15.602  0.00  0.00    +0.166 HD
ATOM     20  H   UNL     1      31.452 -23.058 -15.781  0.00  0.00    +0.158 HD
ENDROOT
BRANCH  10  21
ATOM     21  C   UNL     1      35.021 -20.684 -18.657  0.00  0.00    +0.000 C 
ATOM     22  C   UNL     1      33.697 -20.523 -19.064  0.00  0.00    +0.000 C 
ATOM     23  C   UNL     1      36.054 -20.117 -19.405  0.00  0.00    +0.000 C 
ATOM     24  C   UNL     1      33.404 -19.797 -20.218  0.00  0.00    +0.000 C 
ATOM     25  C   UNL     1      35.761 -19.389 -20.559  0.00  0.00    +0.000 C 
ATOM     26  C   UNL     1      34.436 -19.231 -20.966  0.00  0.00    +0.000 C 
ENDBRANCH  10  21
BRANCH  17  27
ATOM     27  O   UNL     1      36.799 -25.582 -10.932  0.00  0.00    -0.506 OA
ATOM     28  H   UNL     1      35.987 -25.398 -10.502  0.00  0.00    +0.292 HD
ENDBRANCH  17  27
TORSDOF 2
ENDMDL
MODEL 7
REMARK VINA RESULT:     -10.6      8.218     13.397
REMARK  Name = 4369491
REMARK  2 active torsions:
REMARK  status: ('A' for Active; 'I' for Inactive)
REMARK    1  A    between atoms: C_10  and  C_21
REMARK    2  A    between atoms: C_17  and  O_27
REMARK                            x       y       z     vdW  Elec       q    Type
REMARK                         _______ _______ _______ _____ _____    ______ ____
ROOT
ATOM      1  O   UNL     1      34.232 -15.084 -25.777  0.00  0.00    -0.270 OA
ATOM      2  O   UNL     1      33.492 -10.544 -25.839  0.00  0.00    -0.270 OA
ATOM      3  N   UNL     1      34.932 -14.100 -20.648  0.00  0.00    -0.353 N 
ATOM      4  N   UNL     1      33.801 -12.830 -26.181  0.00  0.00    -0.248 N 
ATOM      5  C   UNL     1      34.563 -14.099 -22.853  0.00  0.00    +0.022 A 
ATOM      6  C   UNL     1      34.256 -13.435 -24.048  0.00  0.00    +0.060 C 
ATOM      7  C   UNL     1      34.624 -13.285 -21.710  0.00  0.00    +0.057 A 
ATOM      8  C   UNL     1      34.850 -15.440 -22.433  0.00  0.00    +0.020 A 
ATOM      9  C   UNL     1      34.030 -12.060 -24.073  0.00  0.00    +0.058 C 
ATOM     10  C   UNL     1      34.092 -11.272 -22.946  0.00  0.00    +0.006 C 
ATOM     11  C   UNL     1      35.075 -15.404 -21.055  0.00  0.00    +0.057 A 
ATOM     12  C   UNL     1      34.396 -11.892 -21.731  0.00  0.00    +0.017 C 
ATOM     13  C   UNL     1      34.107 -13.931 -25.415  0.00  0.00    +0.252 C 
ATOM     14  C   UNL     1      33.737 -11.669 -25.451  0.00  0.00    +0.252 C 
ATOM     15  C   UNL     1      34.946 -16.693 -23.081  0.00  0.00    +0.038 C 
ATOM     16  C   UNL     1      35.387 -16.542 -20.300  0.00  0.00    +0.020 C 
ATOM     17  C   UNL     1      35.256 -17.840 -22.340  0.00  0.00    +0.134 C 
ATOM     18  C   UNL     1      35.473 -17.764 -20.968  0.00  0.00    +0.038 C 
ATOM     19  H   UNL     1      35.037 -13.791 -19.720  0.00  0.00    +0.166 HD
ATOM     20  H   UNL     1      33.645 -12.870 -27.152  0.00  0.00    +0.158 HD
ENDROOT
BRANCH  10  21
ATOM     21  C   UNL     1      33.859  -9.845 -22.974  0.00  0.00    +0.000 C 
ATOM     22  C   UNL     1      32.592  -9.339 -22.680  0.00  0.00    +0.000 C 
ATOM     23  C   UNL     1      34.900  -8.973 -23.295  0.00  0.00    +0.000 C 
ATOM     24  C   UNL     1      32.367  -7.963 -22.708  0.00  0.00    +0.000 C 
ATOM     25  C   UNL     1      34.675  -7.597 -23.322  0.00  0.00    +0.000 C 
ATOM     26  C   UNL     1      33.407  -7.092 -23.029  0.00  0.00    +0.000 C 
ENDBRANCH  10  21
BRANCH  17  27
ATOM     27  O   UNL     1      35.345 -19.044 -22.972  0.00  0.00    -0.506 OA
ATOM     28  H   UNL     1      36.008 -19.656 -22.722  0.00  0.00    +0.292 HD
ENDBRANCH  17  27
TORSDOF 2
ENDMDL
MODEL 8
REMARK VINA RESULT:     -10.5     10.323     13.938
REMARK  Name = 4369491
REMARK  2 active torsions:
REMARK  status: ('A' for Active; 'I' for Inactive)
REMARK    1  A    between atoms: C_10  and  C_21
REMARK    2  A    between atoms: C_17  and  O_27
REMARK                            x       y       z     vdW  Elec       q    Type
REMARK                         _______ _______ _______ _____ _____    ______ ____
ROOT
ATOM      1  O   UNL     1      31.025  -9.585 -19.580  0.00  0.00    -0.270 OA
ATOM      2  O   UNL     1      32.542 -13.825 -20.523  0.00  0.00    -0.270 OA
ATOM      3  N   UNL     1      33.649  -8.515 -24.023  0.00  0.00    -0.353 N 
ATOM      4  N   UNL     1      31.611 -11.835 -19.741  0.00  0.00    -0.248 N 
ATOM      5  C   UNL     1      32.665  -9.369 -22.205  0.00  0.00    +0.022 A 
ATOM      6  C   UNL     1      32.357 -10.447 -21.366  0.00  0.00    +0.060 C 
ATOM      7  C   UNL     1      33.452  -9.681 -23.325  0.00  0.00    +0.057 A 
ATOM      8  C   UNL     1      32.397  -7.960 -22.257  0.00  0.00    +0.020 A 
ATOM      9  C   UNL     1      32.814 -11.734 -21.647  0.00  0.00    +0.058 C 
ATOM     10  C   UNL     1      33.585 -12.030 -22.749  0.00  0.00    +0.006 C 
ATOM     11  C   UNL     1      33.025  -7.461 -23.401  0.00  0.00    +0.057 A 
ATOM     12  C   UNL     1      33.916 -10.984 -23.614  0.00  0.00    +0.017 C 
ATOM     13  C   UNL     1      31.578 -10.516 -20.131  0.00  0.00    +0.252 C 
ATOM     14  C   UNL     1      32.332 -12.630 -20.597  0.00  0.00    +0.252 C 
ATOM     15  C   UNL     1      31.684  -7.047 -21.448  0.00  0.00    +0.038 C 
ATOM     16  C   UNL     1      32.976  -6.111 -23.773  0.00  0.00    +0.020 C 
ATOM     17  C   UNL     1      31.626  -5.694 -21.807  0.00  0.00    +0.134 C 
ATOM     18  C   UNL     1      32.263  -5.235 -22.954  0.00  0.00    +0.038 C 
ATOM     19  H   UNL     1      34.167  -8.443 -24.856  0.00  0.00    +0.166 HD
ATOM     20  H   UNL     1      31.164 -12.173 -18.933  0.00  0.00    +0.158 HD
ENDROOT
BRANCH  10  21
ATOM     21  C   UNL     1      34.058 -13.365 -23.038  0.00  0.00    +0.000 C 
ATOM     22  C   UNL     1      34.980 -13.978 -22.190  0.00  0.00    +0.000 C 
ATOM     23  C   UNL     1      33.591 -14.042 -24.166  0.00  0.00    +0.000 C 
ATOM     24  C   UNL     1      35.437 -15.266 -22.469  0.00  0.00    +0.000 C 
ATOM     25  C   UNL     1      34.047 -15.331 -24.444  0.00  0.00    +0.000 C 
ATOM     26  C   UNL     1      34.971 -15.942 -23.596  0.00  0.00    +0.000 C 
ENDBRANCH  10  21
BRANCH  17  27
ATOM     27  O   UNL     1      30.936  -4.821 -21.021  0.00  0.00    -0.506 OA
ATOM     28  H   UNL     1      30.024  -4.958 -20.857  0.00  0.00    +0.292 HD
ENDBRANCH  17  27
TORSDOF 2
ENDMDL
MODEL 9
REMARK VINA RESULT:     -10.4      1.605      2.360
REMARK  Name = 4369491
REMARK  2 active torsions:
REMARK  status: ('A' for Active; 'I' for Inactive)
REMARK    1  A    between atoms: C_10  and  C_21
REMARK    2  A    between atoms: C_17  and  O_27
REMARK                            x       y       z     vdW  Elec       q    Type
REMARK                         _______ _______ _______ _____ _____    ______ ____
ROOT
ATOM      1  O   UNL     1      32.761 -21.480 -19.439  0.00  0.00    -0.270 OA
ATOM      2  O   UNL     1      34.014 -23.489 -15.494  0.00  0.00    -0.270 OA
ATOM      3  N   UNL     1      37.558 -19.352 -18.959  0.00  0.00    -0.353 N 
ATOM      4  N   UNL     1      33.055 -22.664 -17.454  0.00  0.00    -0.248 N 
ATOM      5  C   UNL     1      35.617 -20.452 -18.797  0.00  0.00    +0.022 A 
ATOM      6  C   UNL     1      34.757 -21.337 -18.134  0.00  0.00    +0.060 C 
ATOM      7  C   UNL     1      36.857 -20.236 -18.175  0.00  0.00    +0.057 A 
ATOM      8  C   UNL     1      35.600 -19.657 -19.992  0.00  0.00    +0.020 A 
ATOM      9  C   UNL     1      35.132 -21.948 -16.939  0.00  0.00    +0.058 C 
ATOM     10  C   UNL     1      36.350 -21.730 -16.338  0.00  0.00    +0.006 C 
ATOM     11  C   UNL     1      36.824 -18.986 -20.060  0.00  0.00    +0.057 A 
ATOM     12  C   UNL     1      37.241 -20.854 -16.964  0.00  0.00    +0.017 C 
ATOM     13  C   UNL     1      33.411 -21.802 -18.465  0.00  0.00    +0.252 C 
ATOM     14  C   UNL     1      34.031 -22.805 -16.500  0.00  0.00    +0.252 C 
ATOM     15  C   UNL     1      34.669 -19.432 -21.031  0.00  0.00    +0.038 C 
ATOM     16  C   UNL     1      37.159 -18.112 -21.103  0.00  0.00    +0.020 C 
ATOM     17  C   UNL     1      34.990 -18.562 -22.080  0.00  0.00    +0.134 C 
ATOM     18  C   UNL     1      36.219 -17.912 -22.114  0.00  0.00    +0.038 C 
ATOM     19  H   UNL     1      38.464 -19.025 -18.759  0.00  0.00    +0.166 HD
ATOM     20  H   UNL     1      32.189 -23.131 -17.418  0.00  0.00    +0.158 HD
ENDROOT
BRANCH  10  21
ATOM     21  C   UNL     1      36.736 -22.365 -15.097  0.00  0.00    +0.000 C 
ATOM     22  C   UNL     1      35.999 -22.135 -13.936  0.00  0.00    +0.000 C 
ATOM     23  C   UNL     1      37.847 -23.209 -15.061  0.00  0.00    +0.000 C 
ATOM     24  C   UNL     1      36.371 -22.747 -12.739  0.00  0.00    +0.000 C 
ATOM     25  C   UNL     1      38.219 -23.822 -13.864  0.00  0.00    +0.000 C 
ATOM     26  C   UNL     1      37.481 -23.590 -12.704  0.00  0.00    +0.000 C 
ENDBRANCH  10  21
BRANCH  17  27
ATOM     27  O   UNL     1      34.087 -18.351 -23.078  0.00  0.00    -0.506 OA
ATOM     28  H   UNL     1      34.377 -18.283 -23.966  0.00  0.00    +0.292 HD
ENDBRANCH  17  27
TORSDOF 2
ENDMDL
