MODEL 1
REMARK VINA RESULT:     -12.4      0.000      0.000
REMARK  Name = 24755471
REMARK  13 active torsions:
REMARK  status: ('A' for Active; 'I' for Inactive)
REMARK    1  A    between atoms: C_1  and  S_11
REMARK    2  A    between atoms: C_9  and  O_27
REMARK    3  A    between atoms: S_11  and  N_14
REMARK    4  A    between atoms: N_14  and  C_16
REMARK    5  A    between atoms: C_16  and  C_18
REMARK    6  A    between atoms: C_16  and  C_21
REMARK    7  A    between atoms: C_18  and  O_19
REMARK    8  A    between atoms: C_21  and  C_22
REMARK    9  A    between atoms: C_22  and  C_24
REMARK   10  A    between atoms: C_24  and  O_25
REMARK   11  A    between atoms: O_27  and  C_28
REMARK   12  A    between atoms: C_28  and  C_29
REMARK   13  A    between atoms: C_34  and  C_36
REMARK                            x       y       z     vdW  Elec       q    Type
REMARK                         _______ _______ _______ _____ _____    ______ ____
ROOT
ATOM      1  C   UNL     1      35.770 -22.566 -15.810  0.00  0.00    +0.122 C 
ATOM      2  C   UNL     1      34.673 -21.542 -17.726  0.00  0.00    +0.002 C 
ATOM      3  C   UNL     1      34.636 -22.386 -16.604  0.00  0.00    +0.020 C 
ATOM      4  C   UNL     1      35.876 -20.870 -18.047  0.00  0.00    +0.003 C 
ATOM      5  C   UNL     1      36.953 -21.905 -16.127  0.00  0.00    +0.020 C 
ATOM      6  C   UNL     1      37.008 -21.062 -17.238  0.00  0.00    +0.001 C 
ATOM      7  C   UNL     1      35.913 -20.026 -19.169  0.00  0.00    +0.037 C 
ATOM      8  C   UNL     1      33.541 -21.351 -18.536  0.00  0.00    +0.003 C 
ATOM      9  C   UNL     1      34.779 -19.847 -19.963  0.00  0.00    +0.139 C 
ATOM     10  C   UNL     1      33.596 -20.508 -19.647  0.00  0.00    +0.037 C 
ENDROOT
BRANCH   1  11
ATOM     11  S   UNL     1      35.702 -23.632 -14.402  0.00  0.00    +0.061 S 
ATOM     12  O   UNL     1      34.582 -23.217 -13.581  0.00  0.00    -0.153 OA
ATOM     13  O   UNL     1      35.779 -24.992 -14.899  0.00  0.00    -0.153 OA
BRANCH  11  14
ATOM     14  N   UNL     1      37.156 -23.253 -13.607  0.00  0.00    -0.170 NA
ATOM     15  H   UNL     1      36.931 -22.553 -12.901  0.00  0.00    +0.149 HD
BRANCH  14  16
ATOM     16  C   UNL     1      37.923 -24.318 -12.924  0.00  0.00    +0.174 C 
BRANCH  16  18
ATOM     17  O   UNL     1      40.303 -24.237 -13.419  0.00  0.00    -0.249 OA
ATOM     18  C   UNL     1      39.171 -24.587 -13.731  0.00  0.00    +0.330 C 
BRANCH  18  19
ATOM     19  O   UNL     1      38.908 -25.294 -14.860  0.00  0.00    -0.479 OA
ATOM     20  H   UNL     1      39.603 -25.726 -15.314  0.00  0.00    +0.295 HD
ENDBRANCH  18  19
ENDBRANCH  16  18
BRANCH  16  21
ATOM     21  C   UNL     1      38.178 -23.939 -11.460  0.00  0.00    +0.040 C 
BRANCH  21  22
ATOM     22  C   UNL     1      37.129 -23.044 -10.796  0.00  0.00    +0.111 C 
BRANCH  22  24
ATOM     23  O   UNL     1      35.678 -23.839  -9.036  0.00  0.00    -0.250 OA
ATOM     24  C   UNL     1      35.954 -23.799 -10.228  0.00  0.00    +0.314 C 
BRANCH  24  25
ATOM     25  O   UNL     1      35.237 -24.449 -11.180  0.00  0.00    -0.480 OA
ATOM     26  H   UNL     1      34.470 -24.930 -10.940  0.00  0.00    +0.295 HD
ENDBRANCH  24  25
ENDBRANCH  22  24
ENDBRANCH  21  22
ENDBRANCH  16  21
ENDBRANCH  14  16
ENDBRANCH  11  14
ENDBRANCH   1  11
BRANCH   9  27
ATOM     27  O   UNL     1      34.830 -19.024 -21.046  0.00  0.00    -0.471 OA
BRANCH  27  28
ATOM     28  C   UNL     1      35.989 -18.204 -21.184  0.00  0.00    +0.232 C 
BRANCH  28  29
ATOM     29  C   UNL     1      35.562 -16.802 -21.507  0.00  0.00    +0.021 C 
ATOM     30  C   UNL     1      35.222 -15.922 -20.479  0.00  0.00    -0.000 C 
ATOM     31  C   UNL     1      35.502 -16.380 -22.835  0.00  0.00    -0.000 C 
ATOM     32  C   UNL     1      34.825 -14.620 -20.779  0.00  0.00    +0.010 C 
ATOM     33  C   UNL     1      35.104 -15.078 -23.135  0.00  0.00    +0.010 C 
ATOM     34  C   UNL     1      34.765 -14.198 -22.108  0.00  0.00    +0.068 C 
BRANCH  34  36
ATOM     35  N   UNL     1      34.028 -11.778 -22.665  0.00  0.00    -0.191 NA
ATOM     36  C   UNL     1      34.358 -12.862 -22.415  0.00  0.00    +0.100 C 
ENDBRANCH  34  36
ENDBRANCH  28  29
ENDBRANCH  27  28
ENDBRANCH   9  27
TORSDOF 13
ENDMDL
MODEL 2
REMARK VINA RESULT:     -12.4      1.407      3.031
REMARK  Name = 24755471
REMARK  13 active torsions:
REMARK  status: ('A' for Active; 'I' for Inactive)
REMARK    1  A    between atoms: C_1  and  S_11
REMARK    2  A    between atoms: C_9  and  O_27
REMARK    3  A    between atoms: S_11  and  N_14
REMARK    4  A    between atoms: N_14  and  C_16
REMARK    5  A    between atoms: C_16  and  C_18
REMARK    6  A    between atoms: C_16  and  C_21
REMARK    7  A    between atoms: C_18  and  O_19
REMARK    8  A    between atoms: C_21  and  C_22
REMARK    9  A    between atoms: C_22  and  C_24
REMARK   10  A    between atoms: C_24  and  O_25
REMARK   11  A    between atoms: O_27  and  C_28
REMARK   12  A    between atoms: C_28  and  C_29
REMARK   13  A    between atoms: C_34  and  C_36
REMARK                            x       y       z     vdW  Elec       q    Type
REMARK                         _______ _______ _______ _____ _____    ______ ____
ROOT
ATOM      1  C   UNL     1      36.057 -22.643 -15.036  0.00  0.00    +0.122 C 
ATOM      2  C   UNL     1      34.897 -21.863 -17.028  0.00  0.00    +0.002 C 
ATOM      3  C   UNL     1      34.902 -22.572 -15.816  0.00  0.00    +0.020 C 
ATOM      4  C   UNL     1      36.080 -21.214 -17.455  0.00  0.00    +0.003 C 
ATOM      5  C   UNL     1      37.220 -22.006 -15.457  0.00  0.00    +0.020 C 
ATOM      6  C   UNL     1      37.234 -21.296 -16.658  0.00  0.00    +0.001 C 
ATOM      7  C   UNL     1      36.076 -20.505 -18.667  0.00  0.00    +0.037 C 
ATOM      8  C   UNL     1      33.743 -21.782 -17.826  0.00  0.00    +0.003 C 
ATOM      9  C   UNL     1      34.920 -20.435 -19.446  0.00  0.00    +0.139 C 
ATOM     10  C   UNL     1      33.757 -21.072 -19.027  0.00  0.00    +0.037 C 
ENDROOT
BRANCH   1  11
ATOM     11  S   UNL     1      36.041 -23.541 -13.514  0.00  0.00    +0.061 S 
ATOM     12  O   UNL     1      34.868 -23.133 -12.767  0.00  0.00    -0.153 OA
ATOM     13  O   UNL     1      36.246 -24.938 -13.846  0.00  0.00    -0.153 OA
BRANCH  11  14
ATOM     14  N   UNL     1      37.436 -22.948 -12.744  0.00  0.00    -0.170 NA
ATOM     15  H   UNL     1      37.170 -22.078 -12.283  0.00  0.00    +0.149 HD
BRANCH  14  16
ATOM     16  C   UNL     1      38.128 -23.775 -11.731  0.00  0.00    +0.174 C 
BRANCH  16  18
ATOM     17  O   UNL     1      36.912 -23.395  -9.659  0.00  0.00    -0.249 OA
ATOM     18  C   UNL     1      37.139 -24.098 -10.636  0.00  0.00    +0.330 C 
BRANCH  18  19
ATOM     19  O   UNL     1      36.494 -25.272 -10.859  0.00  0.00    -0.479 OA
ATOM     20  H   UNL     1      36.918 -26.084 -10.665  0.00  0.00    +0.295 HD
ENDBRANCH  18  19
ENDBRANCH  16  18
BRANCH  16  21
ATOM     21  C   UNL     1      38.773 -25.000 -12.391  0.00  0.00    +0.040 C 
BRANCH  21  22
ATOM     22  C   UNL     1      40.038 -24.742 -13.215  0.00  0.00    +0.111 C 
BRANCH  22  24
ATOM     23  O   UNL     1      40.922 -25.355 -15.378  0.00  0.00    -0.250 OA
ATOM     24  C   UNL     1      39.956 -25.249 -14.632  0.00  0.00    +0.314 C 
BRANCH  24  25
ATOM     25  O   UNL     1      38.690 -25.563 -15.006  0.00  0.00    -0.480 OA
ATOM     26  H   UNL     1      38.167 -26.122 -14.465  0.00  0.00    +0.295 HD
ENDBRANCH  24  25
ENDBRANCH  22  24
ENDBRANCH  21  22
ENDBRANCH  16  21
ENDBRANCH  14  16
ENDBRANCH  11  14
ENDBRANCH   1  11
BRANCH   9  27
ATOM     27  O   UNL     1      34.932 -19.741 -20.617  0.00  0.00    -0.471 OA
BRANCH  27  28
ATOM     28  C   UNL     1      35.876 -18.678 -20.734  0.00  0.00    +0.232 C 
BRANCH  28  29
ATOM     29  C   UNL     1      35.475 -17.789 -21.874  0.00  0.00    +0.021 C 
ATOM     30  C   UNL     1      34.843 -18.332 -22.993  0.00  0.00    -0.000 C 
ATOM     31  C   UNL     1      35.735 -16.420 -21.816  0.00  0.00    -0.000 C 
ATOM     32  C   UNL     1      34.471 -17.506 -24.052  0.00  0.00    +0.010 C 
ATOM     33  C   UNL     1      35.363 -15.594 -22.875  0.00  0.00    +0.010 C 
ATOM     34  C   UNL     1      34.732 -16.137 -23.994  0.00  0.00    +0.068 C 
BRANCH  34  36
ATOM     35  N   UNL     1      34.039 -14.602 -25.962  0.00  0.00    -0.191 NA
ATOM     36  C   UNL     1      34.349 -15.290 -25.081  0.00  0.00    +0.100 C 
ENDBRANCH  34  36
ENDBRANCH  28  29
ENDBRANCH  27  28
ENDBRANCH   9  27
TORSDOF 13
ENDMDL
MODEL 3
REMARK VINA RESULT:     -12.1      1.753      3.263
REMARK  Name = 24755471
REMARK  13 active torsions:
REMARK  status: ('A' for Active; 'I' for Inactive)
REMARK    1  A    between atoms: C_1  and  S_11
REMARK    2  A    between atoms: C_9  and  O_27
REMARK    3  A    between atoms: S_11  and  N_14
REMARK    4  A    between atoms: N_14  and  C_16
REMARK    5  A    between atoms: C_16  and  C_18
REMARK    6  A    between atoms: C_16  and  C_21
REMARK    7  A    between atoms: C_18  and  O_19
REMARK    8  A    between atoms: C_21  and  C_22
REMARK    9  A    between atoms: C_22  and  C_24
REMARK   10  A    between atoms: C_24  and  O_25
REMARK   11  A    between atoms: O_27  and  C_28
REMARK   12  A    between atoms: C_28  and  C_29
REMARK   13  A    between atoms: C_34  and  C_36
REMARK                            x       y       z     vdW  Elec       q    Type
REMARK                         _______ _______ _______ _____ _____    ______ ____
ROOT
ATOM      1  C   UNL     1      33.785 -22.958 -14.870  0.00  0.00    +0.122 C 
ATOM      2  C   UNL     1      35.216 -21.889 -16.522  0.00  0.00    +0.002 C 
ATOM      3  C   UNL     1      35.033 -22.466 -15.256  0.00  0.00    +0.020 C 
ATOM      4  C   UNL     1      34.118 -21.808 -17.412  0.00  0.00    +0.003 C 
ATOM      5  C   UNL     1      32.705 -22.878 -15.745  0.00  0.00    +0.020 C 
ATOM      6  C   UNL     1      32.869 -22.308 -17.008  0.00  0.00    +0.001 C 
ATOM      7  C   UNL     1      34.301 -21.231 -18.679  0.00  0.00    +0.037 C 
ATOM      8  C   UNL     1      36.466 -21.388 -16.926  0.00  0.00    +0.003 C 
ATOM      9  C   UNL     1      35.549 -20.739 -19.063  0.00  0.00    +0.139 C 
ATOM     10  C   UNL     1      36.629 -20.818 -18.189  0.00  0.00    +0.037 C 
ENDROOT
BRANCH   1  11
ATOM     11  S   UNL     1      33.576 -23.681 -13.271  0.00  0.00    +0.061 S 
ATOM     12  O   UNL     1      33.105 -22.646 -12.371  0.00  0.00    -0.153 OA
ATOM     13  O   UNL     1      32.805 -24.896 -13.455  0.00  0.00    -0.153 OA
BRANCH  11  14
ATOM     14  N   UNL     1      35.173 -24.099 -12.865  0.00  0.00    -0.170 NA
ATOM     15  H   UNL     1      35.721 -24.031 -13.722  0.00  0.00    +0.149 HD
BRANCH  14  16
ATOM     16  C   UNL     1      35.897 -23.329 -11.831  0.00  0.00    +0.174 C 
BRANCH  16  18
ATOM     17  O   UNL     1      35.605 -23.885  -9.481  0.00  0.00    -0.249 OA
ATOM     18  C   UNL     1      36.008 -24.192 -10.597  0.00  0.00    +0.330 C 
BRANCH  18  19
ATOM     19  O   UNL     1      36.599 -25.386 -10.859  0.00  0.00    -0.479 OA
ATOM     20  H   UNL     1      36.123 -26.183 -10.731  0.00  0.00    +0.295 HD
ENDBRANCH  18  19
ENDBRANCH  16  18
BRANCH  16  21
ATOM     21  C   UNL     1      37.237 -22.825 -12.379  0.00  0.00    +0.040 C 
BRANCH  21  22
ATOM     22  C   UNL     1      37.864 -23.647 -13.509  0.00  0.00    +0.111 C 
BRANCH  22  24
ATOM     23  O   UNL     1      40.188 -24.034 -12.974  0.00  0.00    -0.250 OA
ATOM     24  C   UNL     1      39.049 -24.473 -13.077  0.00  0.00    +0.314 C 
BRANCH  24  25
ATOM     25  O   UNL     1      38.726 -25.767 -12.830  0.00  0.00    -0.480 OA
ATOM     26  H   UNL     1      39.102 -26.211 -12.096  0.00  0.00    +0.295 HD
ENDBRANCH  24  25
ENDBRANCH  22  24
ENDBRANCH  21  22
ENDBRANCH  16  21
ENDBRANCH  14  16
ENDBRANCH  11  14
ENDBRANCH   1  11
BRANCH   9  27
ATOM     27  O   UNL     1      35.711 -20.184 -20.295  0.00  0.00    -0.471 OA
BRANCH  27  28
ATOM     28  C   UNL     1      36.310 -18.890 -20.351  0.00  0.00    +0.232 C 
BRANCH  28  29
ATOM     29  C   UNL     1      35.748 -18.140 -21.522  0.00  0.00    +0.021 C 
ATOM     30  C   UNL     1      35.894 -16.755 -21.598  0.00  0.00    -0.000 C 
ATOM     31  C   UNL     1      35.077 -18.827 -22.534  0.00  0.00    -0.000 C 
ATOM     32  C   UNL     1      35.371 -16.057 -22.686  0.00  0.00    +0.010 C 
ATOM     33  C   UNL     1      34.554 -18.129 -23.622  0.00  0.00    +0.010 C 
ATOM     34  C   UNL     1      34.701 -16.744 -23.698  0.00  0.00    +0.068 C 
BRANCH  34  36
ATOM     35  N   UNL     1      33.731 -15.448 -25.720  0.00  0.00    -0.191 NA
ATOM     36  C   UNL     1      34.165 -16.029 -24.814  0.00  0.00    +0.100 C 
ENDBRANCH  34  36
ENDBRANCH  28  29
ENDBRANCH  27  28
ENDBRANCH   9  27
TORSDOF 13
ENDMDL
MODEL 4
REMARK VINA RESULT:     -12.0      0.641      1.369
REMARK  Name = 24755471
REMARK  13 active torsions:
REMARK  status: ('A' for Active; 'I' for Inactive)
REMARK    1  A    between atoms: C_1  and  S_11
REMARK    2  A    between atoms: C_9  and  O_27
REMARK    3  A    between atoms: S_11  and  N_14
REMARK    4  A    between atoms: N_14  and  C_16
REMARK    5  A    between atoms: C_16  and  C_18
REMARK    6  A    between atoms: C_16  and  C_21
REMARK    7  A    between atoms: C_18  and  O_19
REMARK    8  A    between atoms: C_21  and  C_22
REMARK    9  A    between atoms: C_22  and  C_24
REMARK   10  A    between atoms: C_24  and  O_25
REMARK   11  A    between atoms: O_27  and  C_28
REMARK   12  A    between atoms: C_28  and  C_29
REMARK   13  A    between atoms: C_34  and  C_36
REMARK                            x       y       z     vdW  Elec       q    Type
REMARK                         _______ _______ _______ _____ _____    ______ ____
ROOT
ATOM      1  C   UNL     1      34.925 -22.772 -15.993  0.00  0.00    +0.122 C 
ATOM      2  C   UNL     1      35.674 -21.267 -17.753  0.00  0.00    +0.002 C 
ATOM      3  C   UNL     1      35.942 -22.046 -16.616  0.00  0.00    +0.020 C 
ATOM      4  C   UNL     1      34.356 -21.223 -18.267  0.00  0.00    +0.003 C 
ATOM      5  C   UNL     1      33.629 -22.727 -16.499  0.00  0.00    +0.020 C 
ATOM      6  C   UNL     1      33.344 -21.959 -17.628  0.00  0.00    +0.001 C 
ATOM      7  C   UNL     1      34.088 -20.444 -19.404  0.00  0.00    +0.037 C 
ATOM      8  C   UNL     1      36.685 -20.530 -18.392  0.00  0.00    +0.003 C 
ATOM      9  C   UNL     1      35.105 -19.719 -20.026  0.00  0.00    +0.139 C 
ATOM     10  C   UNL     1      36.401 -19.762 -19.521  0.00  0.00    +0.037 C 
ENDROOT
BRANCH   1  11
ATOM     11  S   UNL     1      35.283 -23.746 -14.563  0.00  0.00    +0.061 S 
ATOM     12  O   UNL     1      34.345 -23.373 -13.522  0.00  0.00    -0.153 OA
ATOM     13  O   UNL     1      35.376 -25.124 -15.003  0.00  0.00    -0.153 OA
BRANCH  11  14
ATOM     14  N   UNL     1      36.837 -23.196 -14.146  0.00  0.00    -0.170 NA
ATOM     15  H   UNL     1      36.710 -22.379 -13.550  0.00  0.00    +0.149 HD
BRANCH  14  16
ATOM     16  C   UNL     1      37.775 -24.098 -13.443  0.00  0.00    +0.174 C 
BRANCH  16  18
ATOM     17  O   UNL     1      39.796 -23.509 -14.663  0.00  0.00    -0.249 OA
ATOM     18  C   UNL     1      38.956 -24.345 -14.352  0.00  0.00    +0.330 C 
BRANCH  18  19
ATOM     19  O   UNL     1      39.007 -25.630 -14.787  0.00  0.00    -0.479 OA
ATOM     20  H   UNL     1      39.835 -26.044 -14.930  0.00  0.00    +0.295 HD
ENDBRANCH  18  19
ENDBRANCH  16  18
BRANCH  16  21
ATOM     21  C   UNL     1      38.138 -23.526 -12.067  0.00  0.00    +0.040 C 
BRANCH  21  22
ATOM     22  C   UNL     1      37.028 -22.771 -11.330  0.00  0.00    +0.111 C 
BRANCH  22  24
ATOM     23  O   UNL     1      36.378 -23.681  -9.189  0.00  0.00    -0.250 OA
ATOM     24  C   UNL     1      36.214 -23.636 -10.401  0.00  0.00    +0.314 C 
BRANCH  24  25
ATOM     25  O   UNL     1      35.285 -24.379 -11.055  0.00  0.00    -0.480 OA
ATOM     26  H   UNL     1      34.988 -25.188 -10.685  0.00  0.00    +0.295 HD
ENDBRANCH  24  25
ENDBRANCH  22  24
ENDBRANCH  21  22
ENDBRANCH  16  21
ENDBRANCH  14  16
ENDBRANCH  11  14
ENDBRANCH   1  11
BRANCH   9  27
ATOM     27  O   UNL     1      34.830 -18.970 -21.129  0.00  0.00    -0.471 OA
BRANCH  27  28
ATOM     28  C   UNL     1      35.907 -18.224 -21.693  0.00  0.00    +0.232 C 
BRANCH  28  29
ATOM     29  C   UNL     1      35.469 -16.802 -21.888  0.00  0.00    +0.021 C 
ATOM     30  C   UNL     1      35.309 -15.964 -20.784  0.00  0.00    -0.000 C 
ATOM     31  C   UNL     1      35.220 -16.318 -23.172  0.00  0.00    -0.000 C 
ATOM     32  C   UNL     1      34.902 -14.643 -20.964  0.00  0.00    +0.010 C 
ATOM     33  C   UNL     1      34.812 -14.997 -23.353  0.00  0.00    +0.010 C 
ATOM     34  C   UNL     1      34.653 -14.160 -22.249  0.00  0.00    +0.068 C 
BRANCH  34  36
ATOM     35  N   UNL     1      33.898 -11.705 -22.584  0.00  0.00    -0.191 NA
ATOM     36  C   UNL     1      34.236 -12.805 -22.434  0.00  0.00    +0.100 C 
ENDBRANCH  34  36
ENDBRANCH  28  29
ENDBRANCH  27  28
ENDBRANCH   9  27
TORSDOF 13
ENDMDL
MODEL 5
REMARK VINA RESULT:     -12.0      1.120      2.971
REMARK  Name = 24755471
REMARK  13 active torsions:
REMARK  status: ('A' for Active; 'I' for Inactive)
REMARK    1  A    between atoms: C_1  and  S_11
REMARK    2  A    between atoms: C_9  and  O_27
REMARK    3  A    between atoms: S_11  and  N_14
REMARK    4  A    between atoms: N_14  and  C_16
REMARK    5  A    between atoms: C_16  and  C_18
REMARK    6  A    between atoms: C_16  and  C_21
REMARK    7  A    between atoms: C_18  and  O_19
REMARK    8  A    between atoms: C_21  and  C_22
REMARK    9  A    between atoms: C_22  and  C_24
REMARK   10  A    between atoms: C_24  and  O_25
REMARK   11  A    between atoms: O_27  and  C_28
REMARK   12  A    between atoms: C_28  and  C_29
REMARK   13  A    between atoms: C_34  and  C_36
REMARK                            x       y       z     vdW  Elec       q    Type
REMARK                         _______ _______ _______ _____ _____    ______ ____
ROOT
ATOM      1  C   UNL     1      35.450 -22.824 -15.116  0.00  0.00    +0.122 C 
ATOM      2  C   UNL     1      35.945 -21.480 -17.083  0.00  0.00    +0.002 C 
ATOM      3  C   UNL     1      36.353 -22.089 -15.885  0.00  0.00    +0.020 C 
ATOM      4  C   UNL     1      34.602 -21.618 -17.507  0.00  0.00    +0.003 C 
ATOM      5  C   UNL     1      34.129 -22.959 -15.533  0.00  0.00    +0.020 C 
ATOM      6  C   UNL     1      33.706 -22.361 -16.721  0.00  0.00    +0.001 C 
ATOM      7  C   UNL     1      34.194 -21.009 -18.705  0.00  0.00    +0.037 C 
ATOM      8  C   UNL     1      36.841 -20.735 -17.869  0.00  0.00    +0.003 C 
ATOM      9  C   UNL     1      35.097 -20.274 -19.473  0.00  0.00    +0.139 C 
ATOM     10  C   UNL     1      36.418 -20.137 -19.056  0.00  0.00    +0.037 C 
ENDROOT
BRANCH   1  11
ATOM     11  S   UNL     1      35.984 -23.583 -13.611  0.00  0.00    +0.061 S 
ATOM     12  O   UNL     1      35.041 -23.224 -12.571  0.00  0.00    -0.153 OA
ATOM     13  O   UNL     1      36.245 -24.977 -13.912  0.00  0.00    -0.153 OA
BRANCH  11  14
ATOM     14  N   UNL     1      37.464 -22.794 -13.329  0.00  0.00    -0.170 NA
ATOM     15  H   UNL     1      37.245 -21.815 -13.147  0.00  0.00    +0.149 HD
BRANCH  14  16
ATOM     16  C   UNL     1      38.343 -23.248 -12.229  0.00  0.00    +0.174 C 
BRANCH  16  18
ATOM     17  O   UNL     1      37.263 -23.954 -10.168  0.00  0.00    -0.249 OA
ATOM     18  C   UNL     1      37.602 -23.055 -10.928  0.00  0.00    +0.330 C 
BRANCH  18  19
ATOM     19  O   UNL     1      37.360 -21.745 -10.666  0.00  0.00    -0.479 OA
ATOM     20  H   UNL     1      37.969 -21.091 -10.945  0.00  0.00    +0.295 HD
ENDBRANCH  18  19
ENDBRANCH  16  18
BRANCH  16  21
ATOM     21  C   UNL     1      38.823 -24.682 -12.485  0.00  0.00    +0.040 C 
BRANCH  21  22
ATOM     22  C   UNL     1      40.151 -24.832 -13.232  0.00  0.00    +0.111 C 
BRANCH  22  24
ATOM     23  O   UNL     1      40.942 -25.523 -15.407  0.00  0.00    -0.250 OA
ATOM     24  C   UNL     1      40.000 -25.298 -14.658  0.00  0.00    +0.314 C 
BRANCH  24  25
ATOM     25  O   UNL     1      38.703 -25.427 -15.034  0.00  0.00    -0.480 OA
ATOM     26  H   UNL     1      38.493 -25.696 -15.907  0.00  0.00    +0.295 HD
ENDBRANCH  24  25
ENDBRANCH  22  24
ENDBRANCH  21  22
ENDBRANCH  16  21
ENDBRANCH  14  16
ENDBRANCH  11  14
ENDBRANCH   1  11
BRANCH   9  27
ATOM     27  O   UNL     1      34.687 -19.691 -20.633  0.00  0.00    -0.471 OA
BRANCH  27  28
ATOM     28  C   UNL     1      35.698 -19.149 -21.481  0.00  0.00    +0.232 C 
BRANCH  28  29
ATOM     29  C   UNL     1      35.434 -17.686 -21.686  0.00  0.00    +0.021 C 
ATOM     30  C   UNL     1      35.414 -16.821 -20.592  0.00  0.00    -0.000 C 
ATOM     31  C   UNL     1      35.206 -17.192 -22.971  0.00  0.00    -0.000 C 
ATOM     32  C   UNL     1      35.168 -15.462 -20.783  0.00  0.00    +0.010 C 
ATOM     33  C   UNL     1      34.960 -15.833 -23.161  0.00  0.00    +0.010 C 
ATOM     34  C   UNL     1      34.941 -14.968 -22.067  0.00  0.00    +0.068 C 
BRANCH  34  36
ATOM     35  N   UNL     1      34.485 -12.443 -22.421  0.00  0.00    -0.191 NA
ATOM     36  C   UNL     1      34.689 -13.574 -22.262  0.00  0.00    +0.100 C 
ENDBRANCH  34  36
ENDBRANCH  28  29
ENDBRANCH  27  28
ENDBRANCH   9  27
TORSDOF 13
ENDMDL
MODEL 6
REMARK VINA RESULT:     -11.4      2.032      3.445
REMARK  Name = 24755471
REMARK  13 active torsions:
REMARK  status: ('A' for Active; 'I' for Inactive)
REMARK    1  A    between atoms: C_1  and  S_11
REMARK    2  A    between atoms: C_9  and  O_27
REMARK    3  A    between atoms: S_11  and  N_14
REMARK    4  A    between atoms: N_14  and  C_16
REMARK    5  A    between atoms: C_16  and  C_18
REMARK    6  A    between atoms: C_16  and  C_21
REMARK    7  A    between atoms: C_18  and  O_19
REMARK    8  A    between atoms: C_21  and  C_22
REMARK    9  A    between atoms: C_22  and  C_24
REMARK   10  A    between atoms: C_24  and  O_25
REMARK   11  A    between atoms: O_27  and  C_28
REMARK   12  A    between atoms: C_28  and  C_29
REMARK   13  A    between atoms: C_34  and  C_36
REMARK                            x       y       z     vdW  Elec       q    Type
REMARK                         _______ _______ _______ _____ _____    ______ ____
ROOT
ATOM      1  C   UNL     1      36.318 -22.740 -13.680  0.00  0.00    +0.122 C 
ATOM      2  C   UNL     1      35.247 -22.236 -15.806  0.00  0.00    +0.002 C 
ATOM      3  C   UNL     1      35.201 -22.788 -14.516  0.00  0.00    +0.020 C 
ATOM      4  C   UNL     1      36.441 -21.625 -16.255  0.00  0.00    +0.003 C 
ATOM      5  C   UNL     1      37.492 -22.140 -14.123  0.00  0.00    +0.020 C 
ATOM      6  C   UNL     1      37.556 -21.585 -15.401  0.00  0.00    +0.001 C 
ATOM      7  C   UNL     1      36.487 -21.072 -17.545  0.00  0.00    +0.037 C 
ATOM      8  C   UNL     1      34.132 -22.276 -16.661  0.00  0.00    +0.003 C 
ATOM      9  C   UNL     1      35.370 -21.121 -18.380  0.00  0.00    +0.139 C 
ATOM     10  C   UNL     1      34.195 -21.722 -17.939  0.00  0.00    +0.037 C 
ENDROOT
BRANCH   1  11
ATOM     11  S   UNL     1      36.239 -23.442 -12.060  0.00  0.00    +0.061 S 
ATOM     12  O   UNL     1      37.460 -23.090 -11.361  0.00  0.00    -0.153 OA
ATOM     13  O   UNL     1      34.949 -23.079 -11.505  0.00  0.00    -0.153 OA
BRANCH  11  14
ATOM     14  N   UNL     1      36.243 -25.108 -12.400  0.00  0.00    -0.170 NA
ATOM     15  H   UNL     1      35.419 -25.293 -12.971  0.00  0.00    +0.149 HD
BRANCH  14  16
ATOM     16  C   UNL     1      37.395 -25.715 -13.101  0.00  0.00    +0.174 C 
BRANCH  16  18
ATOM     17  O   UNL     1      37.719 -26.317 -15.436  0.00  0.00    -0.249 OA
ATOM     18  C   UNL     1      36.963 -26.048 -14.510  0.00  0.00    +0.330 C 
BRANCH  18  19
ATOM     19  O   UNL     1      35.612 -26.038 -14.647  0.00  0.00    -0.479 OA
ATOM     20  H   UNL     1      35.228 -26.062 -15.500  0.00  0.00    +0.295 HD
ENDBRANCH  18  19
ENDBRANCH  16  18
BRANCH  16  21
ATOM     21  C   UNL     1      38.621 -24.798 -13.009  0.00  0.00    +0.040 C 
BRANCH  21  22
ATOM     22  C   UNL     1      39.968 -25.422 -13.387  0.00  0.00    +0.111 C 
BRANCH  22  24
ATOM     23  O   UNL     1      41.295 -23.674 -14.396  0.00  0.00    -0.250 OA
ATOM     24  C   UNL     1      40.669 -24.719 -14.521  0.00  0.00    +0.314 C 
BRANCH  24  25
ATOM     25  O   UNL     1      40.520 -25.359 -15.708  0.00  0.00    -0.480 OA
ATOM     26  H   UNL     1      39.663 -25.580 -16.016  0.00  0.00    +0.295 HD
ENDBRANCH  24  25
ENDBRANCH  22  24
ENDBRANCH  21  22
ENDBRANCH  16  21
ENDBRANCH  14  16
ENDBRANCH  11  14
ENDBRANCH   1  11
BRANCH   9  27
ATOM     27  O   UNL     1      35.430 -20.579 -19.628  0.00  0.00    -0.471 OA
BRANCH  27  28
ATOM     28  C   UNL     1      36.293 -19.457 -19.808  0.00  0.00    +0.232 C 
BRANCH  28  29
ATOM     29  C   UNL     1      35.837 -18.674 -21.003  0.00  0.00    +0.021 C 
ATOM     30  C   UNL     1      36.194 -17.332 -21.135  0.00  0.00    -0.000 C 
ATOM     31  C   UNL     1      35.055 -19.287 -21.982  0.00  0.00    -0.000 C 
ATOM     32  C   UNL     1      35.769 -16.604 -22.246  0.00  0.00    +0.010 C 
ATOM     33  C   UNL     1      34.630 -18.559 -23.093  0.00  0.00    +0.010 C 
ATOM     34  C   UNL     1      34.987 -17.217 -23.225  0.00  0.00    +0.068 C 
BRANCH  34  36
ATOM     35  N   UNL     1      34.200 -15.865 -25.289  0.00  0.00    -0.191 NA
ATOM     36  C   UNL     1      34.553 -16.471 -24.364  0.00  0.00    +0.100 C 
ENDBRANCH  34  36
ENDBRANCH  28  29
ENDBRANCH  27  28
ENDBRANCH   9  27
TORSDOF 13
ENDMDL
MODEL 7
REMARK VINA RESULT:     -11.1      1.727      2.857
REMARK  Name = 24755471
REMARK  13 active torsions:
REMARK  status: ('A' for Active; 'I' for Inactive)
REMARK    1  A    between atoms: C_1  and  S_11
REMARK    2  A    between atoms: C_9  and  O_27
REMARK    3  A    between atoms: S_11  and  N_14
REMARK    4  A    between atoms: N_14  and  C_16
REMARK    5  A    between atoms: C_16  and  C_18
REMARK    6  A    between atoms: C_16  and  C_21
REMARK    7  A    between atoms: C_18  and  O_19
REMARK    8  A    between atoms: C_21  and  C_22
REMARK    9  A    between atoms: C_22  and  C_24
REMARK   10  A    between atoms: C_24  and  O_25
REMARK   11  A    between atoms: O_27  and  C_28
REMARK   12  A    between atoms: C_28  and  C_29
REMARK   13  A    between atoms: C_34  and  C_36
REMARK                            x       y       z     vdW  Elec       q    Type
REMARK                         _______ _______ _______ _____ _____    ______ ____
ROOT
ATOM      1  C   UNL     1      34.185 -21.631 -17.820  0.00  0.00    +0.122 C 
ATOM      2  C   UNL     1      35.683 -20.261 -19.163  0.00  0.00    +0.002 C 
ATOM      3  C   UNL     1      35.475 -21.208 -18.147  0.00  0.00    +0.020 C 
ATOM      4  C   UNL     1      34.569 -19.735 -19.858  0.00  0.00    +0.003 C 
ATOM      5  C   UNL     1      33.090 -21.113 -18.504  0.00  0.00    +0.020 C 
ATOM      6  C   UNL     1      33.278 -20.171 -19.516  0.00  0.00    +0.001 C 
ATOM      7  C   UNL     1      34.777 -18.788 -20.874  0.00  0.00    +0.037 C 
ATOM      8  C   UNL     1      36.975 -19.824 -19.504  0.00  0.00    +0.003 C 
ATOM      9  C   UNL     1      36.067 -18.366 -21.199  0.00  0.00    +0.139 C 
ATOM     10  C   UNL     1      37.163 -18.883 -20.516  0.00  0.00    +0.037 C 
ENDROOT
BRANCH   1  11
ATOM     11  S   UNL     1      33.945 -22.824 -16.538  0.00  0.00    +0.061 S 
ATOM     12  O   UNL     1      32.884 -22.343 -15.675  0.00  0.00    -0.153 OA
ATOM     13  O   UNL     1      33.833 -24.118 -17.182  0.00  0.00    -0.153 OA
BRANCH  11  14
ATOM     14  N   UNL     1      35.427 -22.747 -15.708  0.00  0.00    -0.170 NA
ATOM     15  H   UNL     1      35.578 -21.769 -15.466  0.00  0.00    +0.149 HD
BRANCH  14  16
ATOM     16  C   UNL     1      35.619 -23.531 -14.468  0.00  0.00    +0.174 C 
BRANCH  16  18
ATOM     17  O   UNL     1      36.174 -25.819 -15.078  0.00  0.00    -0.249 OA
ATOM     18  C   UNL     1      36.538 -24.687 -14.783  0.00  0.00    +0.330 C 
BRANCH  18  19
ATOM     19  O   UNL     1      37.847 -24.332 -14.723  0.00  0.00    -0.479 OA
ATOM     20  H   UNL     1      38.490 -24.957 -14.455  0.00  0.00    +0.295 HD
ENDBRANCH  18  19
ENDBRANCH  16  18
BRANCH  16  21
ATOM     21  C   UNL     1      36.103 -22.622 -13.331  0.00  0.00    +0.040 C 
BRANCH  21  22
ATOM     22  C   UNL     1      35.893 -23.144 -11.907  0.00  0.00    +0.111 C 
BRANCH  22  24
ATOM     23  O   UNL     1      37.634 -21.893 -10.794  0.00  0.00    -0.250 OA
ATOM     24  C   UNL     1      37.093 -22.970 -11.010  0.00  0.00    +0.314 C 
BRANCH  24  25
ATOM     25  O   UNL     1      37.525 -24.141 -10.477  0.00  0.00    -0.480 OA
ATOM     26  H   UNL     1      38.438 -24.270 -10.311  0.00  0.00    +0.295 HD
ENDBRANCH  24  25
ENDBRANCH  22  24
ENDBRANCH  21  22
ENDBRANCH  16  21
ENDBRANCH  14  16
ENDBRANCH  11  14
ENDBRANCH   1  11
BRANCH   9  27
ATOM     27  O   UNL     1      36.252 -17.449 -22.188  0.00  0.00    -0.471 OA
BRANCH  27  28
ATOM     28  C   UNL     1      35.162 -17.227 -23.081  0.00  0.00    +0.232 C 
BRANCH  28  29
ATOM     29  C   UNL     1      34.823 -15.766 -23.088  0.00  0.00    +0.021 C 
ATOM     30  C   UNL     1      34.247 -15.189 -24.220  0.00  0.00    -0.000 C 
ATOM     31  C   UNL     1      35.086 -14.983 -21.964  0.00  0.00    -0.000 C 
ATOM     32  C   UNL     1      33.933 -13.831 -24.227  0.00  0.00    +0.010 C 
ATOM     33  C   UNL     1      34.771 -13.625 -21.971  0.00  0.00    +0.010 C 
ATOM     34  C   UNL     1      34.195 -13.048 -23.103  0.00  0.00    +0.068 C 
BRANCH  34  36
ATOM     35  N   UNL     1      33.609 -10.526 -23.116  0.00  0.00    -0.191 NA
ATOM     36  C   UNL     1      33.872 -11.656 -23.110  0.00  0.00    +0.100 C 
ENDBRANCH  34  36
ENDBRANCH  28  29
ENDBRANCH  27  28
ENDBRANCH   9  27
TORSDOF 13
ENDMDL
MODEL 8
REMARK VINA RESULT:     -10.9      2.774      4.717
REMARK  Name = 24755471
REMARK  13 active torsions:
REMARK  status: ('A' for Active; 'I' for Inactive)
REMARK    1  A    between atoms: C_1  and  S_11
REMARK    2  A    between atoms: C_9  and  O_27
REMARK    3  A    between atoms: S_11  and  N_14
REMARK    4  A    between atoms: N_14  and  C_16
REMARK    5  A    between atoms: C_16  and  C_18
REMARK    6  A    between atoms: C_16  and  C_21
REMARK    7  A    between atoms: C_18  and  O_19
REMARK    8  A    between atoms: C_21  and  C_22
REMARK    9  A    between atoms: C_22  and  C_24
REMARK   10  A    between atoms: C_24  and  O_25
REMARK   11  A    between atoms: O_27  and  C_28
REMARK   12  A    between atoms: C_28  and  C_29
REMARK   13  A    between atoms: C_34  and  C_36
REMARK                            x       y       z     vdW  Elec       q    Type
REMARK                         _______ _______ _______ _____ _____    ______ ____
ROOT
ATOM      1  C   UNL     1      34.645 -21.978 -16.791  0.00  0.00    +0.122 C 
ATOM      2  C   UNL     1      35.549 -20.641 -18.612  0.00  0.00    +0.002 C 
ATOM      3  C   UNL     1      35.729 -21.370 -17.426  0.00  0.00    +0.020 C 
ATOM      4  C   UNL     1      34.250 -20.527 -19.164  0.00  0.00    +0.003 C 
ATOM      5  C   UNL     1      33.368 -21.865 -17.333  0.00  0.00    +0.020 C 
ATOM      6  C   UNL     1      33.170 -21.144 -18.512  0.00  0.00    +0.001 C 
ATOM      7  C   UNL     1      34.070 -19.798 -20.350  0.00  0.00    +0.037 C 
ATOM      8  C   UNL     1      36.629 -20.022 -19.264  0.00  0.00    +0.003 C 
ATOM      9  C   UNL     1      35.154 -19.190 -20.984  0.00  0.00    +0.139 C 
ATOM     10  C   UNL     1      36.431 -19.302 -20.443  0.00  0.00    +0.037 C 
ENDROOT
BRANCH   1  11
ATOM     11  S   UNL     1      34.894 -22.891 -15.298  0.00  0.00    +0.061 S 
ATOM     12  O   UNL     1      34.770 -24.301 -15.612  0.00  0.00    -0.153 OA
ATOM     13  O   UNL     1      36.108 -22.382 -14.690  0.00  0.00    -0.153 OA
BRANCH  11  14
ATOM     14  N   UNL     1      33.562 -22.401 -14.363  0.00  0.00    -0.170 NA
ATOM     15  H   UNL     1      33.268 -21.493 -14.722  0.00  0.00    +0.149 HD
BRANCH  14  16
ATOM     16  C   UNL     1      32.351 -23.250 -14.302  0.00  0.00    +0.174 C 
BRANCH  16  18
ATOM     17  O   UNL     1      31.369 -24.345 -12.364  0.00  0.00    -0.249 OA
ATOM     18  C   UNL     1      32.364 -23.988 -12.985  0.00  0.00    +0.330 C 
BRANCH  18  19
ATOM     19  O   UNL     1      33.626 -24.243 -12.553  0.00  0.00    -0.479 OA
ATOM     20  H   UNL     1      34.203 -23.535 -12.348  0.00  0.00    +0.295 HD
ENDBRANCH  18  19
ENDBRANCH  16  18
BRANCH  16  21
ATOM     21  C   UNL     1      31.094 -22.407 -14.549  0.00  0.00    +0.040 C 
BRANCH  21  22
ATOM     22  C   UNL     1      30.172 -22.876 -15.678  0.00  0.00    +0.111 C 
BRANCH  22  24
ATOM     23  O   UNL     1      28.317 -21.913 -16.890  0.00  0.00    -0.250 OA
ATOM     24  C   UNL     1      28.927 -22.040 -15.836  0.00  0.00    +0.314 C 
BRANCH  24  25
ATOM     25  O   UNL     1      28.559 -21.423 -14.684  0.00  0.00    -0.480 OA
ATOM     26  H   UNL     1      29.065 -21.547 -13.905  0.00  0.00    +0.295 HD
ENDBRANCH  24  25
ENDBRANCH  22  24
ENDBRANCH  21  22
ENDBRANCH  16  21
ENDBRANCH  14  16
ENDBRANCH  11  14
ENDBRANCH   1  11
BRANCH   9  27
ATOM     27  O   UNL     1      34.963 -18.488 -22.135  0.00  0.00    -0.471 OA
BRANCH  27  28
ATOM     28  C   UNL     1      35.945 -17.509 -22.469  0.00  0.00    +0.232 C 
BRANCH  28  29
ATOM     29  C   UNL     1      35.321 -16.146 -22.399  0.00  0.00    +0.021 C 
ATOM     30  C   UNL     1      34.861 -15.529 -23.562  0.00  0.00    -0.000 C 
ATOM     31  C   UNL     1      35.203 -15.495 -21.171  0.00  0.00    -0.000 C 
ATOM     32  C   UNL     1      34.282 -14.263 -23.497  0.00  0.00    +0.010 C 
ATOM     33  C   UNL     1      34.624 -14.228 -21.106  0.00  0.00    +0.010 C 
ATOM     34  C   UNL     1      34.164 -13.612 -22.270  0.00  0.00    +0.068 C 
BRANCH  34  36
ATOM     35  N   UNL     1      33.087 -11.259 -22.150  0.00  0.00    -0.191 NA
ATOM     36  C   UNL     1      33.569 -12.313 -22.203  0.00  0.00    +0.100 C 
ENDBRANCH  34  36
ENDBRANCH  28  29
ENDBRANCH  27  28
ENDBRANCH   9  27
TORSDOF 13
ENDMDL
MODEL 9
REMARK VINA RESULT:     -10.9      3.362     11.227
REMARK  Name = 24755471
REMARK  13 active torsions:
REMARK  status: ('A' for Active; 'I' for Inactive)
REMARK    1  A    between atoms: C_1  and  S_11
REMARK    2  A    between atoms: C_9  and  O_27
REMARK    3  A    between atoms: S_11  and  N_14
REMARK    4  A    between atoms: N_14  and  C_16
REMARK    5  A    between atoms: C_16  and  C_18
REMARK    6  A    between atoms: C_16  and  C_21
REMARK    7  A    between atoms: C_18  and  O_19
REMARK    8  A    between atoms: C_21  and  C_22
REMARK    9  A    between atoms: C_22  and  C_24
REMARK   10  A    between atoms: C_24  and  O_25
REMARK   11  A    between atoms: O_27  and  C_28
REMARK   12  A    between atoms: C_28  and  C_29
REMARK   13  A    between atoms: C_34  and  C_36
REMARK                            x       y       z     vdW  Elec       q    Type
REMARK                         _______ _______ _______ _____ _____    ______ ____
ROOT
ATOM      1  C   UNL     1      35.650 -19.013 -20.535  0.00  0.00    +0.122 C 
ATOM      2  C   UNL     1      34.374 -20.474 -19.065  0.00  0.00    +0.002 C 
ATOM      3  C   UNL     1      34.428 -19.532 -20.105  0.00  0.00    +0.020 C 
ATOM      4  C   UNL     1      35.578 -20.896 -18.452  0.00  0.00    +0.003 C 
ATOM      5  C   UNL     1      36.833 -19.429 -19.931  0.00  0.00    +0.020 C 
ATOM      6  C   UNL     1      36.799 -20.364 -18.896  0.00  0.00    +0.001 C 
ATOM      7  C   UNL     1      35.524 -21.838 -17.411  0.00  0.00    +0.037 C 
ATOM      8  C   UNL     1      33.152 -21.006 -18.620  0.00  0.00    +0.003 C 
ATOM      9  C   UNL     1      34.302 -22.356 -16.982  0.00  0.00    +0.139 C 
ATOM     10  C   UNL     1      33.119 -21.941 -17.585  0.00  0.00    +0.037 C 
ENDROOT
BRANCH   1  11
ATOM     11  S   UNL     1      35.695 -17.829 -21.846  0.00  0.00    +0.061 S 
ATOM     12  O   UNL     1      37.017 -17.870 -22.440  0.00  0.00    -0.153 OA
ATOM     13  O   UNL     1      34.519 -18.059 -22.664  0.00  0.00    -0.153 OA
BRANCH  11  14
ATOM     14  N   UNL     1      35.500 -16.366 -21.002  0.00  0.00    -0.170 NA
ATOM     15  H   UNL     1      36.432 -15.974 -20.875  0.00  0.00    +0.149 HD
BRANCH  14  16
ATOM     16  C   UNL     1      34.657 -15.292 -21.572  0.00  0.00    +0.174 C 
BRANCH  16  18
ATOM     17  O   UNL     1      33.705 -13.280 -20.592  0.00  0.00    -0.249 OA
ATOM     18  C   UNL     1      34.473 -14.230 -20.513  0.00  0.00    +0.330 C 
BRANCH  18  19
ATOM     19  O   UNL     1      35.254 -14.453 -19.425  0.00  0.00    -0.479 OA
ATOM     20  H   UNL     1      35.146 -15.236 -18.923  0.00  0.00    +0.295 HD
ENDBRANCH  18  19
ENDBRANCH  16  18
BRANCH  16  21
ATOM     21  C   UNL     1      35.256 -14.783 -22.888  0.00  0.00    +0.040 C 
BRANCH  21  22
ATOM     22  C   UNL     1      34.261 -14.312 -23.952  0.00  0.00    +0.111 C 
BRANCH  22  24
ATOM     23  O   UNL     1      34.822 -16.119 -25.454  0.00  0.00    -0.250 OA
ATOM     24  C   UNL     1      33.985 -15.334 -25.026  0.00  0.00    +0.314 C 
BRANCH  24  25
ATOM     25  O   UNL     1      32.709 -15.284 -25.484  0.00  0.00    -0.480 OA
ATOM     26  H   UNL     1      32.511 -14.806 -26.265  0.00  0.00    +0.295 HD
ENDBRANCH  24  25
ENDBRANCH  22  24
ENDBRANCH  21  22
ENDBRANCH  16  21
ENDBRANCH  14  16
ENDBRANCH  11  14
ENDBRANCH   1  11
BRANCH   9  27
ATOM     27  O   UNL     1      34.268 -23.270 -15.974  0.00  0.00    -0.471 OA
BRANCH  27  28
ATOM     28  C   UNL     1      34.854 -22.887 -14.731  0.00  0.00    +0.232 C 
BRANCH  28  29
ATOM     29  C   UNL     1      36.194 -23.548 -14.596  0.00  0.00    +0.021 C 
ATOM     30  C   UNL     1      36.274 -24.927 -14.398  0.00  0.00    -0.000 C 
ATOM     31  C   UNL     1      37.359 -22.785 -14.667  0.00  0.00    -0.000 C 
ATOM     32  C   UNL     1      37.519 -25.541 -14.273  0.00  0.00    +0.010 C 
ATOM     33  C   UNL     1      38.604 -23.400 -14.542  0.00  0.00    +0.010 C 
ATOM     34  C   UNL     1      38.684 -24.778 -14.344  0.00  0.00    +0.068 C 
BRANCH  34  36
ATOM     35  N   UNL     1      40.997 -25.921 -14.112  0.00  0.00    -0.191 NA
ATOM     36  C   UNL     1      39.961 -25.409 -14.216  0.00  0.00    +0.100 C 
ENDBRANCH  34  36
ENDBRANCH  28  29
ENDBRANCH  27  28
ENDBRANCH   9  27
TORSDOF 13
ENDMDL
