MODEL 1
REMARK VINA RESULT:     -11.3      0.000      0.000
REMARK  Name = 5288250
REMARK  9 active torsions:
REMARK  status: ('A' for Active; 'I' for Inactive)
REMARK    1  A    between atoms: C_1  and  N_3
REMARK    2  A    between atoms: C_1  and  C_20
REMARK    3  A    between atoms: C_1  and  C_23
REMARK    4  A    between atoms: C_4  and  C_6
REMARK    5  A    between atoms: C_6  and  C_10
REMARK    6  A    between atoms: C_20  and  O_21
REMARK    7  A    between atoms: C_23  and  C_24
REMARK    8  A    between atoms: C_29  and  C_30
REMARK    9  A    between atoms: C_31  and  C_32
REMARK                            x       y       z     vdW  Elec       q    Type
REMARK                         _______ _______ _______ _____ _____    ______ ____
ROOT
ATOM      1  C   UNL     1      34.371 -22.377 -15.953  0.00  0.00    +0.176 C 
ENDROOT
BRANCH   1   3
ATOM      2  O   UNL     1      36.836 -20.873 -16.135  0.00  0.00    -0.275 OA
ATOM      3  N   UNL     1      35.666 -22.756 -15.439  0.00  0.00    -0.297 N 
ATOM      4  C   UNL     1      36.797 -21.964 -15.575  0.00  0.00    +0.223 C 
ATOM      5  H   UNL     1      35.750 -23.617 -14.968  0.00  0.00    +0.150 HD
BRANCH   4   6
ATOM      6  C   UNL     1      38.004 -22.618 -14.935  0.00  0.00    +0.087 C 
BRANCH   6  10
ATOM      7  N   UNL     1      37.017 -23.695 -11.422  0.00  0.00    -0.282 N 
ATOM      8  N   UNL     1      34.800 -23.157 -11.403  0.00  0.00    -0.331 N 
ATOM      9  N   UNL     1      35.824 -23.890  -9.421  0.00  0.00    -0.273 NA
ATOM     10  C   UNL     1      37.618 -23.560 -13.796  0.00  0.00    +0.029 C 
ATOM     11  C   UNL     1      38.723 -24.597 -13.548  0.00  0.00    +0.004 C 
ATOM     12  C   UNL     1      37.319 -22.771 -12.514  0.00  0.00    +0.094 C 
ATOM     13  C   UNL     1      38.369 -25.497 -12.365  0.00  0.00    +0.022 C 
ATOM     14  C   UNL     1      38.055 -24.677 -11.118  0.00  0.00    +0.093 C 
ATOM     15  C   UNL     1      35.883 -23.596 -10.689  0.00  0.00    +0.174 C 
ATOM     16  H   UNL     1      34.893 -22.947 -12.360  0.00  0.00    +0.145 HD
ATOM     17  H   UNL     1      33.927 -23.053 -10.958  0.00  0.00    +0.145 HD
ATOM     18  H   UNL     1      36.631 -24.201  -8.950  0.00  0.00    +0.189 HD
ENDBRANCH   6  10
ENDBRANCH   4   6
ENDBRANCH   1   3
BRANCH   1  20
ATOM     19  O   UNL     1      33.330 -23.010 -13.866  0.00  0.00    -0.248 OA
ATOM     20  C   UNL     1      33.229 -22.885 -15.083  0.00  0.00    +0.335 C 
BRANCH  20  21
ATOM     21  O   UNL     1      32.121 -23.190 -15.814  0.00  0.00    -0.443 OA
ATOM     22  C   UNL     1      30.936 -22.462 -15.478  0.00  0.00    +0.256 C 
ENDBRANCH  20  21
ENDBRANCH   1  20
BRANCH   1  23
ATOM     23  C   UNL     1      34.207 -22.799 -17.421  0.00  0.00    +0.057 C 
BRANCH  23  24
ATOM     24  C   UNL     1      34.305 -21.666 -18.418  0.00  0.00    -0.020 C 
ATOM     25  C   UNL     1      33.161 -20.958 -18.786  0.00  0.00    -0.004 C 
ATOM     26  C   UNL     1      35.542 -21.328 -18.969  0.00  0.00    -0.004 C 
ATOM     27  C   UNL     1      33.252 -19.914 -19.706  0.00  0.00    +0.008 C 
ATOM     28  C   UNL     1      35.633 -20.283 -19.889  0.00  0.00    +0.008 C 
ATOM     29  C   UNL     1      34.489 -19.576 -20.257  0.00  0.00    +0.042 C 
BRANCH  29  30
ATOM     30  C   UNL     1      34.582 -18.506 -21.200  0.00  0.00    -0.060 C 
ATOM     31  C   UNL     1      34.661 -17.607 -21.991  0.00  0.00    -0.060 C 
BRANCH  31  32
ATOM     32  C   UNL     1      34.755 -16.535 -22.935  0.00  0.00    +0.042 C 
ATOM     33  C   UNL     1      35.020 -15.239 -22.494  0.00  0.00    +0.008 C 
ATOM     34  C   UNL     1      34.580 -16.787 -24.296  0.00  0.00    +0.008 C 
ATOM     35  C   UNL     1      35.112 -14.194 -23.414  0.00  0.00    +0.001 C 
ATOM     36  C   UNL     1      34.672 -15.742 -25.216  0.00  0.00    +0.001 C 
ATOM     37  C   UNL     1      34.938 -14.446 -24.774  0.00  0.00    +0.000 C 
ENDBRANCH  31  32
ENDBRANCH  29  30
ENDBRANCH  23  24
ENDBRANCH   1  23
TORSDOF 9
ENDMDL
MODEL 2
REMARK VINA RESULT:     -11.2      2.644      5.179
REMARK  Name = 5288250
REMARK  9 active torsions:
REMARK  status: ('A' for Active; 'I' for Inactive)
REMARK    1  A    between atoms: C_1  and  N_3
REMARK    2  A    between atoms: C_1  and  C_20
REMARK    3  A    between atoms: C_1  and  C_23
REMARK    4  A    between atoms: C_4  and  C_6
REMARK    5  A    between atoms: C_6  and  C_10
REMARK    6  A    between atoms: C_20  and  O_21
REMARK    7  A    between atoms: C_23  and  C_24
REMARK    8  A    between atoms: C_29  and  C_30
REMARK    9  A    between atoms: C_31  and  C_32
REMARK                            x       y       z     vdW  Elec       q    Type
REMARK                         _______ _______ _______ _____ _____    ______ ____
ROOT
ATOM      1  C   UNL     1      35.652 -24.146 -15.145  0.00  0.00    +0.176 C 
ENDROOT
BRANCH   1   3
ATOM      2  O   UNL     1      35.391 -22.906 -12.543  0.00  0.00    -0.275 OA
ATOM      3  N   UNL     1      34.455 -24.040 -14.343  0.00  0.00    -0.297 N 
ATOM      4  C   UNL     1      34.427 -23.424 -13.100  0.00  0.00    +0.223 C 
ATOM      5  H   UNL     1      33.619 -24.423 -14.695  0.00  0.00    +0.150 HD
BRANCH   4   6
ATOM      6  C   UNL     1      33.037 -23.462 -12.500  0.00  0.00    +0.087 C 
BRANCH   6  10
ATOM      7  N   UNL     1      30.186 -22.753 -14.918  0.00  0.00    -0.282 N 
ATOM      8  N   UNL     1      31.318 -21.850 -16.681  0.00  0.00    -0.331 N 
ATOM      9  N   UNL     1      28.970 -21.859 -16.703  0.00  0.00    -0.273 NA
ATOM     10  C   UNL     1      31.962 -23.746 -13.547  0.00  0.00    +0.029 C 
ATOM     11  C   UNL     1      30.945 -24.770 -13.021  0.00  0.00    +0.004 C 
ATOM     12  C   UNL     1      31.254 -22.450 -13.967  0.00  0.00    +0.094 C 
ATOM     13  C   UNL     1      29.831 -25.005 -14.039  0.00  0.00    +0.022 C 
ATOM     14  C   UNL     1      29.170 -23.692 -14.450  0.00  0.00    +0.093 C 
ATOM     15  C   UNL     1      30.101 -22.143 -16.123  0.00  0.00    +0.174 C 
ATOM     16  H   UNL     1      32.147 -22.083 -16.206  0.00  0.00    +0.145 HD
ATOM     17  H   UNL     1      31.362 -21.405 -17.559  0.00  0.00    +0.145 HD
ATOM     18  H   UNL     1      28.120 -22.089 -16.262  0.00  0.00    +0.189 HD
ENDBRANCH   6  10
ENDBRANCH   4   6
ENDBRANCH   1   3
BRANCH   1  20
ATOM     19  O   UNL     1      36.456 -26.425 -15.178  0.00  0.00    -0.248 OA
ATOM     20  C   UNL     1      36.546 -25.296 -14.703  0.00  0.00    +0.335 C 
BRANCH  20  21
ATOM     21  O   UNL     1      37.422 -24.923 -13.729  0.00  0.00    -0.443 OA
ATOM     22  C   UNL     1      37.553 -25.830 -12.630  0.00  0.00    +0.256 C 
ENDBRANCH  20  21
ENDBRANCH   1  20
BRANCH   1  23
ATOM     23  C   UNL     1      36.412 -22.812 -15.193  0.00  0.00    +0.057 C 
BRANCH  23  24
ATOM     24  C   UNL     1      36.163 -21.989 -16.437  0.00  0.00    -0.020 C 
ATOM     25  C   UNL     1      37.173 -21.175 -16.949  0.00  0.00    -0.004 C 
ATOM     26  C   UNL     1      34.923 -22.044 -17.073  0.00  0.00    -0.004 C 
ATOM     27  C   UNL     1      36.943 -20.415 -18.096  0.00  0.00    +0.008 C 
ATOM     28  C   UNL     1      34.693 -21.285 -18.221  0.00  0.00    +0.008 C 
ATOM     29  C   UNL     1      35.703 -20.471 -18.732  0.00  0.00    +0.042 C 
BRANCH  29  30
ATOM     30  C   UNL     1      35.467 -19.692 -19.907  0.00  0.00    -0.060 C 
ATOM     31  C   UNL     1      35.271 -19.038 -20.895  0.00  0.00    -0.060 C 
BRANCH  31  32
ATOM     32  C   UNL     1      35.036 -18.259 -22.072  0.00  0.00    +0.042 C 
ATOM     33  C   UNL     1      35.428 -16.922 -22.112  0.00  0.00    +0.008 C 
ATOM     34  C   UNL     1      34.413 -18.838 -23.178  0.00  0.00    +0.008 C 
ATOM     35  C   UNL     1      35.200 -16.161 -23.260  0.00  0.00    +0.001 C 
ATOM     36  C   UNL     1      34.184 -18.077 -24.325  0.00  0.00    +0.001 C 
ATOM     37  C   UNL     1      34.577 -16.739 -24.365  0.00  0.00    +0.000 C 
ENDBRANCH  31  32
ENDBRANCH  29  30
ENDBRANCH  23  24
ENDBRANCH   1  23
TORSDOF 9
ENDMDL
MODEL 3
REMARK VINA RESULT:     -11.1      1.810      2.870
REMARK  Name = 5288250
REMARK  9 active torsions:
REMARK  status: ('A' for Active; 'I' for Inactive)
REMARK    1  A    between atoms: C_1  and  N_3
REMARK    2  A    between atoms: C_1  and  C_20
REMARK    3  A    between atoms: C_1  and  C_23
REMARK    4  A    between atoms: C_4  and  C_6
REMARK    5  A    between atoms: C_6  and  C_10
REMARK    6  A    between atoms: C_20  and  O_21
REMARK    7  A    between atoms: C_23  and  C_24
REMARK    8  A    between atoms: C_29  and  C_30
REMARK    9  A    between atoms: C_31  and  C_32
REMARK                            x       y       z     vdW  Elec       q    Type
REMARK                         _______ _______ _______ _____ _____    ______ ____
ROOT
ATOM      1  C   UNL     1      33.140 -22.277 -15.065  0.00  0.00    +0.176 C 
ENDROOT
BRANCH   1   3
ATOM      2  O   UNL     1      33.192 -24.709 -13.497  0.00  0.00    -0.275 OA
ATOM      3  N   UNL     1      33.817 -22.492 -13.807  0.00  0.00    -0.297 N 
ATOM      4  C   UNL     1      33.785 -23.701 -13.126  0.00  0.00    +0.223 C 
ATOM      5  H   UNL     1      34.327 -21.747 -13.416  0.00  0.00    +0.150 HD
BRANCH   4   6
ATOM      6  C   UNL     1      34.587 -23.628 -11.843  0.00  0.00    +0.087 C 
BRANCH   6  10
ATOM      7  N   UNL     1      38.029 -23.873 -13.446  0.00  0.00    -0.282 N 
ATOM      8  N   UNL     1      37.698 -22.713 -15.382  0.00  0.00    -0.331 N 
ATOM      9  N   UNL     1      39.731 -23.839 -15.048  0.00  0.00    -0.273 NA
ATOM     10  C   UNL     1      36.059 -23.310 -12.097  0.00  0.00    +0.029 C 
ATOM     11  C   UNL     1      36.893 -23.544 -10.829  0.00  0.00    +0.004 C 
ATOM     12  C   UNL     1      36.604 -24.145 -13.264  0.00  0.00    +0.094 C 
ATOM     13  C   UNL     1      38.376 -23.292 -11.098  0.00  0.00    +0.022 C 
ATOM     14  C   UNL     1      38.873 -24.120 -12.279  0.00  0.00    +0.093 C 
ATOM     15  C   UNL     1      38.543 -23.495 -14.639  0.00  0.00    +0.174 C 
ATOM     16  H   UNL     1      36.808 -22.479 -15.032  0.00  0.00    +0.145 HD
ATOM     17  H   UNL     1      37.980 -22.386 -16.267  0.00  0.00    +0.145 HD
ATOM     18  H   UNL     1      40.302 -24.403 -14.477  0.00  0.00    +0.189 HD
ENDBRANCH   6  10
ENDBRANCH   4   6
ENDBRANCH   1   3
BRANCH   1  20
ATOM     19  O   UNL     1      31.372 -23.775 -15.750  0.00  0.00    -0.248 OA
ATOM     20  C   UNL     1      31.718 -22.821 -15.060  0.00  0.00    +0.335 C 
BRANCH  20  21
ATOM     21  O   UNL     1      30.902 -22.117 -14.226  0.00  0.00    -0.443 OA
ATOM     22  C   UNL     1      29.508 -22.153 -14.547  0.00  0.00    +0.256 C 
ENDBRANCH  20  21
ENDBRANCH   1  20
BRANCH   1  23
ATOM     23  C   UNL     1      33.961 -22.826 -16.242  0.00  0.00    +0.057 C 
BRANCH  23  24
ATOM     24  C   UNL     1      34.097 -21.878 -17.413  0.00  0.00    -0.020 C 
ATOM     25  C   UNL     1      35.362 -21.507 -17.868  0.00  0.00    -0.004 C 
ATOM     26  C   UNL     1      32.956 -21.376 -18.040  0.00  0.00    -0.004 C 
ATOM     27  C   UNL     1      35.487 -20.632 -18.947  0.00  0.00    +0.008 C 
ATOM     28  C   UNL     1      33.081 -20.503 -19.120  0.00  0.00    +0.008 C 
ATOM     29  C   UNL     1      34.346 -20.131 -19.574  0.00  0.00    +0.042 C 
BRANCH  29  30
ATOM     30  C   UNL     1      34.474 -19.235 -20.679  0.00  0.00    -0.060 C 
ATOM     31  C   UNL     1      34.581 -18.480 -21.607  0.00  0.00    -0.060 C 
BRANCH  31  32
ATOM     32  C   UNL     1      34.710 -17.582 -22.714  0.00  0.00    +0.042 C 
ATOM     33  C   UNL     1      35.299 -16.331 -22.532  0.00  0.00    +0.008 C 
ATOM     34  C   UNL     1      34.246 -17.958 -23.975  0.00  0.00    +0.008 C 
ATOM     35  C   UNL     1      35.425 -15.455 -23.610  0.00  0.00    +0.001 C 
ATOM     36  C   UNL     1      34.372 -17.082 -25.053  0.00  0.00    +0.001 C 
ATOM     37  C   UNL     1      34.961 -15.830 -24.870  0.00  0.00    +0.000 C 
ENDBRANCH  31  32
ENDBRANCH  29  30
ENDBRANCH  23  24
ENDBRANCH   1  23
TORSDOF 9
ENDMDL
MODEL 4
REMARK VINA RESULT:     -10.8      1.873      2.833
REMARK  Name = 5288250
REMARK  9 active torsions:
REMARK  status: ('A' for Active; 'I' for Inactive)
REMARK    1  A    between atoms: C_1  and  N_3
REMARK    2  A    between atoms: C_1  and  C_20
REMARK    3  A    between atoms: C_1  and  C_23
REMARK    4  A    between atoms: C_4  and  C_6
REMARK    5  A    between atoms: C_6  and  C_10
REMARK    6  A    between atoms: C_20  and  O_21
REMARK    7  A    between atoms: C_23  and  C_24
REMARK    8  A    between atoms: C_29  and  C_30
REMARK    9  A    between atoms: C_31  and  C_32
REMARK                            x       y       z     vdW  Elec       q    Type
REMARK                         _______ _______ _______ _____ _____    ______ ____
ROOT
ATOM      1  C   UNL     1      33.635 -22.446 -14.957  0.00  0.00    +0.176 C 
ENDROOT
BRANCH   1   3
ATOM      2  O   UNL     1      36.339 -21.470 -14.620  0.00  0.00    -0.275 OA
ATOM      3  N   UNL     1      34.520 -22.690 -13.842  0.00  0.00    -0.297 N 
ATOM      4  C   UNL     1      35.807 -22.177 -13.769  0.00  0.00    +0.223 C 
ATOM      5  H   UNL     1      34.194 -23.247 -13.098  0.00  0.00    +0.150 HD
BRANCH   4   6
ATOM      6  C   UNL     1      36.492 -22.597 -12.485  0.00  0.00    +0.087 C 
BRANCH   6  10
ATOM      7  N   UNL     1      38.956 -24.881 -14.272  0.00  0.00    -0.282 N 
ATOM      8  N   UNL     1      40.889 -23.687 -14.069  0.00  0.00    -0.331 N 
ATOM      9  N   UNL     1      40.868 -25.631 -15.387  0.00  0.00    -0.273 NA
ATOM     10  C   UNL     1      37.436 -23.779 -12.692  0.00  0.00    +0.029 C 
ATOM     11  C   UNL     1      36.687 -25.110 -12.527  0.00  0.00    +0.004 C 
ATOM     12  C   UNL     1      38.109 -23.706 -14.069  0.00  0.00    +0.094 C 
ATOM     13  C   UNL     1      37.613 -26.294 -12.800  0.00  0.00    +0.022 C 
ATOM     14  C   UNL     1      38.281 -26.172 -14.165  0.00  0.00    +0.093 C 
ATOM     15  C   UNL     1      40.261 -24.776 -14.613  0.00  0.00    +0.174 C 
ATOM     16  H   UNL     1      40.389 -23.069 -13.490  0.00  0.00    +0.145 HD
ATOM     17  H   UNL     1      41.842 -23.524 -14.258  0.00  0.00    +0.145 HD
ATOM     18  H   UNL     1      40.373 -26.399 -15.755  0.00  0.00    +0.189 HD
ENDBRANCH   6  10
ENDBRANCH   4   6
ENDBRANCH   1   3
BRANCH   1  20
ATOM     19  O   UNL     1      31.509 -23.414 -15.572  0.00  0.00    -0.248 OA
ATOM     20  C   UNL     1      32.218 -22.936 -14.693  0.00  0.00    +0.335 C 
BRANCH  20  21
ATOM     21  O   UNL     1      31.848 -22.762 -13.393  0.00  0.00    -0.443 OA
ATOM     22  C   UNL     1      30.790 -23.607 -12.931  0.00  0.00    +0.256 C 
ENDBRANCH  20  21
ENDBRANCH   1  20
BRANCH   1  23
ATOM     23  C   UNL     1      34.209 -23.020 -16.262  0.00  0.00    +0.057 C 
BRANCH  23  24
ATOM     24  C   UNL     1      34.312 -22.026 -17.398  0.00  0.00    -0.020 C 
ATOM     25  C   UNL     1      33.157 -21.565 -18.029  0.00  0.00    -0.004 C 
ATOM     26  C   UNL     1      35.563 -21.570 -17.813  0.00  0.00    -0.004 C 
ATOM     27  C   UNL     1      33.253 -20.649 -19.076  0.00  0.00    +0.008 C 
ATOM     28  C   UNL     1      35.659 -20.654 -18.860  0.00  0.00    +0.008 C 
ATOM     29  C   UNL     1      34.504 -20.193 -19.492  0.00  0.00    +0.042 C 
BRANCH  29  30
ATOM     30  C   UNL     1      34.602 -19.255 -20.565  0.00  0.00    -0.060 C 
ATOM     31  C   UNL     1      34.683 -18.466 -21.466  0.00  0.00    -0.060 C 
BRANCH  31  32
ATOM     32  C   UNL     1      34.782 -17.526 -22.541  0.00  0.00    +0.042 C 
ATOM     33  C   UNL     1      34.360 -17.884 -23.821  0.00  0.00    +0.008 C 
ATOM     34  C   UNL     1      35.300 -16.252 -22.307  0.00  0.00    +0.008 C 
ATOM     35  C   UNL     1      34.456 -16.968 -24.869  0.00  0.00    +0.001 C 
ATOM     36  C   UNL     1      35.395 -15.336 -23.356  0.00  0.00    +0.001 C 
ATOM     37  C   UNL     1      34.974 -15.695 -24.636  0.00  0.00    +0.000 C 
ENDBRANCH  31  32
ENDBRANCH  29  30
ENDBRANCH  23  24
ENDBRANCH   1  23
TORSDOF 9
ENDMDL
MODEL 5
REMARK VINA RESULT:     -10.8      1.378      2.187
REMARK  Name = 5288250
REMARK  9 active torsions:
REMARK  status: ('A' for Active; 'I' for Inactive)
REMARK    1  A    between atoms: C_1  and  N_3
REMARK    2  A    between atoms: C_1  and  C_20
REMARK    3  A    between atoms: C_1  and  C_23
REMARK    4  A    between atoms: C_4  and  C_6
REMARK    5  A    between atoms: C_6  and  C_10
REMARK    6  A    between atoms: C_20  and  O_21
REMARK    7  A    between atoms: C_23  and  C_24
REMARK    8  A    between atoms: C_29  and  C_30
REMARK    9  A    between atoms: C_31  and  C_32
REMARK                            x       y       z     vdW  Elec       q    Type
REMARK                         _______ _______ _______ _____ _____    ______ ____
ROOT
ATOM      1  C   UNL     1      35.470 -21.624 -17.456  0.00  0.00    +0.176 C 
ENDROOT
BRANCH   1   3
ATOM      2  O   UNL     1      37.643 -20.232 -16.146  0.00  0.00    -0.275 OA
ATOM      3  N   UNL     1      36.458 -22.187 -16.566  0.00  0.00    -0.297 N 
ATOM      4  C   UNL     1      37.468 -21.436 -15.982  0.00  0.00    +0.223 C 
ATOM      5  H   UNL     1      36.411 -23.150 -16.362  0.00  0.00    +0.150 HD
BRANCH   4   6
ATOM      6  C   UNL     1      38.347 -22.295 -15.096  0.00  0.00    +0.087 C 
BRANCH   6  10
ATOM      7  N   UNL     1      36.841 -24.156 -12.139  0.00  0.00    -0.282 N 
ATOM      8  N   UNL     1      35.055 -22.827 -11.645  0.00  0.00    -0.331 N 
ATOM      9  N   UNL     1      35.587 -24.617 -10.221  0.00  0.00    -0.273 NA
ATOM     10  C   UNL     1      37.550 -23.362 -14.350  0.00  0.00    +0.029 C 
ATOM     11  C   UNL     1      38.108 -24.763 -14.644  0.00  0.00    +0.004 C 
ATOM     12  C   UNL     1      37.552 -23.088 -12.839  0.00  0.00    +0.094 C 
ATOM     13  C   UNL     1      37.356 -25.827 -13.846  0.00  0.00    +0.022 C 
ATOM     14  C   UNL     1      37.358 -25.506 -12.354  0.00  0.00    +0.093 C 
ATOM     15  C   UNL     1      35.822 -23.904 -11.286  0.00  0.00    +0.174 C 
ATOM     16  H   UNL     1      35.270 -22.318 -12.459  0.00  0.00    +0.145 HD
ATOM     17  H   UNL     1      34.287 -22.562 -11.087  0.00  0.00    +0.145 HD
ATOM     18  H   UNL     1      36.168 -25.382 -10.004  0.00  0.00    +0.189 HD
ENDBRANCH   6  10
ENDBRANCH   4   6
ENDBRANCH   1   3
BRANCH   1  20
ATOM     19  O   UNL     1      33.637 -22.920 -18.351  0.00  0.00    -0.248 OA
ATOM     20  C   UNL     1      34.137 -22.357 -17.382  0.00  0.00    +0.335 C 
BRANCH  20  21
ATOM     21  O   UNL     1      33.581 -22.290 -16.140  0.00  0.00    -0.443 OA
ATOM     22  C   UNL     1      32.198 -22.649 -16.059  0.00  0.00    +0.256 C 
ENDBRANCH  20  21
ENDBRANCH   1  20
BRANCH   1  23
ATOM     23  C   UNL     1      36.000 -21.537 -18.895  0.00  0.00    +0.057 C 
BRANCH  23  24
ATOM     24  C   UNL     1      35.722 -20.224 -19.592  0.00  0.00    -0.020 C 
ATOM     25  C   UNL     1      34.419 -19.892 -19.962  0.00  0.00    -0.004 C 
ATOM     26  C   UNL     1      36.770 -19.345 -19.864  0.00  0.00    -0.004 C 
ATOM     27  C   UNL     1      34.164 -18.681 -20.605  0.00  0.00    +0.008 C 
ATOM     28  C   UNL     1      36.515 -18.133 -20.507  0.00  0.00    +0.008 C 
ATOM     29  C   UNL     1      35.212 -17.801 -20.877  0.00  0.00    +0.042 C 
BRANCH  29  30
ATOM     30  C   UNL     1      34.950 -16.561 -21.537  0.00  0.00    -0.060 C 
ATOM     31  C   UNL     1      34.731 -15.519 -22.092  0.00  0.00    -0.060 C 
BRANCH  31  32
ATOM     32  C   UNL     1      34.468 -14.277 -22.754  0.00  0.00    +0.042 C 
ATOM     33  C   UNL     1      34.033 -14.272 -24.078  0.00  0.00    +0.008 C 
ATOM     34  C   UNL     1      34.650 -13.073 -22.073  0.00  0.00    +0.008 C 
ATOM     35  C   UNL     1      33.776 -13.062 -24.724  0.00  0.00    +0.001 C 
ATOM     36  C   UNL     1      34.394 -11.863 -22.719  0.00  0.00    +0.001 C 
ATOM     37  C   UNL     1      33.958 -11.858 -24.044  0.00  0.00    +0.000 C 
ENDBRANCH  31  32
ENDBRANCH  29  30
ENDBRANCH  23  24
ENDBRANCH   1  23
TORSDOF 9
ENDMDL
MODEL 6
REMARK VINA RESULT:     -10.5      1.957      3.340
REMARK  Name = 5288250
REMARK  9 active torsions:
REMARK  status: ('A' for Active; 'I' for Inactive)
REMARK    1  A    between atoms: C_1  and  N_3
REMARK    2  A    between atoms: C_1  and  C_20
REMARK    3  A    between atoms: C_1  and  C_23
REMARK    4  A    between atoms: C_4  and  C_6
REMARK    5  A    between atoms: C_6  and  C_10
REMARK    6  A    between atoms: C_20  and  O_21
REMARK    7  A    between atoms: C_23  and  C_24
REMARK    8  A    between atoms: C_29  and  C_30
REMARK    9  A    between atoms: C_31  and  C_32
REMARK                            x       y       z     vdW  Elec       q    Type
REMARK                         _______ _______ _______ _____ _____    ______ ____
ROOT
ATOM      1  C   UNL     1      35.300 -20.593 -18.590  0.00  0.00    +0.176 C 
ENDROOT
BRANCH   1   3
ATOM      2  O   UNL     1      37.422 -19.755 -16.808  0.00  0.00    -0.275 OA
ATOM      3  N   UNL     1      36.058 -21.422 -17.681  0.00  0.00    -0.297 N 
ATOM      4  C   UNL     1      37.062 -20.927 -16.861  0.00  0.00    +0.223 C 
ATOM      5  H   UNL     1      35.851 -22.384 -17.641  0.00  0.00    +0.150 HD
BRANCH   4   6
ATOM      6  C   UNL     1      37.673 -22.027 -16.019  0.00  0.00    +0.087 C 
BRANCH   6  10
ATOM      7  N   UNL     1      36.891 -23.447 -12.576  0.00  0.00    -0.282 N 
ATOM      8  N   UNL     1      38.177 -22.112 -11.247  0.00  0.00    -0.331 N 
ATOM      9  N   UNL     1      37.059 -23.947 -10.299  0.00  0.00    -0.273 NA
ATOM     10  C   UNL     1      36.890 -22.275 -14.732  0.00  0.00    +0.029 C 
ATOM     11  C   UNL     1      35.520 -22.899 -15.039  0.00  0.00    +0.004 C 
ATOM     12  C   UNL     1      37.686 -23.169 -13.771  0.00  0.00    +0.094 C 
ATOM     13  C   UNL     1      34.761 -23.210 -13.750  0.00  0.00    +0.022 C 
ATOM     14  C   UNL     1      35.595 -24.078 -12.812  0.00  0.00    +0.093 C 
ATOM     15  C   UNL     1      37.359 -23.208 -11.329  0.00  0.00    +0.174 C 
ATOM     16  H   UNL     1      38.375 -21.583 -12.052  0.00  0.00    +0.145 HD
ATOM     17  H   UNL     1      38.568 -21.855 -10.380  0.00  0.00    +0.145 HD
ATOM     18  H   UNL     1      36.466 -24.726 -10.409  0.00  0.00    +0.189 HD
ENDBRANCH   6  10
ENDBRANCH   4   6
ENDBRANCH   1   3
BRANCH   1  20
ATOM     19  O   UNL     1      33.075 -20.541 -19.529  0.00  0.00    -0.248 OA
ATOM     20  C   UNL     1      33.883 -21.108 -18.801  0.00  0.00    +0.335 C 
BRANCH  20  21
ATOM     21  O   UNL     1      33.634 -22.239 -18.082  0.00  0.00    -0.443 OA
ATOM     22  C   UNL     1      32.590 -22.138 -17.109  0.00  0.00    +0.256 C 
ENDBRANCH  20  21
ENDBRANCH   1  20
BRANCH   1  23
ATOM     23  C   UNL     1      36.045 -20.396 -19.918  0.00  0.00    +0.057 C 
BRANCH  23  24
ATOM     24  C   UNL     1      35.736 -19.096 -20.628  0.00  0.00    -0.020 C 
ATOM     25  C   UNL     1      35.918 -17.881 -19.970  0.00  0.00    -0.004 C 
ATOM     26  C   UNL     1      35.270 -19.114 -21.943  0.00  0.00    -0.004 C 
ATOM     27  C   UNL     1      35.632 -16.683 -20.625  0.00  0.00    +0.008 C 
ATOM     28  C   UNL     1      34.985 -17.917 -22.598  0.00  0.00    +0.008 C 
ATOM     29  C   UNL     1      35.166 -16.701 -21.939  0.00  0.00    +0.042 C 
BRANCH  29  30
ATOM     30  C   UNL     1      34.873 -15.473 -22.610  0.00  0.00    -0.060 C 
ATOM     31  C   UNL     1      34.628 -14.442 -23.175  0.00  0.00    -0.060 C 
BRANCH  31  32
ATOM     32  C   UNL     1      34.335 -13.214 -23.847  0.00  0.00    +0.042 C 
ATOM     33  C   UNL     1      34.394 -12.007 -23.152  0.00  0.00    +0.008 C 
ATOM     34  C   UNL     1      33.988 -13.224 -25.199  0.00  0.00    +0.008 C 
ATOM     35  C   UNL     1      34.108 -10.809 -23.806  0.00  0.00    +0.001 C 
ATOM     36  C   UNL     1      33.702 -12.026 -25.854  0.00  0.00    +0.001 C 
ATOM     37  C   UNL     1      33.762 -10.819 -25.157  0.00  0.00    +0.000 C 
ENDBRANCH  31  32
ENDBRANCH  29  30
ENDBRANCH  23  24
ENDBRANCH   1  23
TORSDOF 9
ENDMDL
MODEL 7
REMARK VINA RESULT:     -10.3      8.874     14.861
REMARK  Name = 5288250
REMARK  9 active torsions:
REMARK  status: ('A' for Active; 'I' for Inactive)
REMARK    1  A    between atoms: C_1  and  N_3
REMARK    2  A    between atoms: C_1  and  C_20
REMARK    3  A    between atoms: C_1  and  C_23
REMARK    4  A    between atoms: C_4  and  C_6
REMARK    5  A    between atoms: C_6  and  C_10
REMARK    6  A    between atoms: C_20  and  O_21
REMARK    7  A    between atoms: C_23  and  C_24
REMARK    8  A    between atoms: C_29  and  C_30
REMARK    9  A    between atoms: C_31  and  C_32
REMARK                            x       y       z     vdW  Elec       q    Type
REMARK                         _______ _______ _______ _____ _____    ______ ____
ROOT
ATOM      1  C   UNL     1      34.369 -10.199 -24.222  0.00  0.00    +0.176 C 
ENDROOT
BRANCH   1   3
ATOM      2  O   UNL     1      32.743  -9.975 -21.838  0.00  0.00    -0.275 OA
ATOM      3  N   UNL     1      33.331  -9.229 -23.959  0.00  0.00    -0.297 N 
ATOM      4  C   UNL     1      32.601  -9.201 -22.780  0.00  0.00    +0.223 C 
ATOM      5  H   UNL     1      33.132  -8.557 -24.650  0.00  0.00    +0.150 HD
BRANCH   4   6
ATOM      6  C   UNL     1      31.588  -8.075 -22.789  0.00  0.00    +0.087 C 
BRANCH   6  10
ATOM      7  N   UNL     1      32.126  -5.377 -20.160  0.00  0.00    -0.282 N 
ATOM      8  N   UNL     1      33.616  -6.406 -18.773  0.00  0.00    -0.331 N 
ATOM      9  N   UNL     1      32.714  -4.327 -18.157  0.00  0.00    -0.273 NA
ATOM     10  C   UNL     1      32.137  -6.795 -22.163  0.00  0.00    +0.029 C 
ATOM     11  C   UNL     1      31.750  -5.568 -23.001  0.00  0.00    +0.004 C 
ATOM     12  C   UNL     1      31.643  -6.640 -20.718  0.00  0.00    +0.094 C 
ATOM     13  C   UNL     1      32.240  -4.280 -22.341  0.00  0.00    +0.022 C 
ATOM     14  C   UNL     1      31.750  -4.175 -20.900  0.00  0.00    +0.093 C 
ATOM     15  C   UNL     1      32.810  -5.321 -18.994  0.00  0.00    +0.174 C 
ATOM     16  H   UNL     1      33.656  -7.133 -19.434  0.00  0.00    +0.145 HD
ATOM     17  H   UNL     1      34.156  -6.458 -17.950  0.00  0.00    +0.145 HD
ATOM     18  H   UNL     1      32.120  -3.568 -18.360  0.00  0.00    +0.189 HD
ENDBRANCH   6  10
ENDBRANCH   4   6
ENDBRANCH   1   3
BRANCH   1  20
ATOM     19  O   UNL     1      35.643  -9.893 -26.252  0.00  0.00    -0.248 OA
ATOM     20  C   UNL     1      35.500  -9.624 -25.063  0.00  0.00    +0.335 C 
BRANCH  20  21
ATOM     21  O   UNL     1      36.319  -8.811 -24.339  0.00  0.00    -0.443 OA
ATOM     22  C   UNL     1      35.741  -7.577 -23.902  0.00  0.00    +0.256 C 
ENDBRANCH  20  21
ENDBRANCH   1  20
BRANCH   1  23
ATOM     23  C   UNL     1      33.793 -11.484 -24.833  0.00  0.00    +0.057 C 
BRANCH  23  24
ATOM     24  C   UNL     1      34.105 -12.747 -24.061  0.00  0.00    -0.020 C 
ATOM     25  C   UNL     1      34.526 -12.667 -22.734  0.00  0.00    -0.004 C 
ATOM     26  C   UNL     1      33.970 -13.991 -24.676  0.00  0.00    -0.004 C 
ATOM     27  C   UNL     1      34.814 -13.831 -22.022  0.00  0.00    +0.008 C 
ATOM     28  C   UNL     1      34.257 -15.156 -23.964  0.00  0.00    +0.008 C 
ATOM     29  C   UNL     1      34.679 -15.076 -22.637  0.00  0.00    +0.042 C 
BRANCH  29  30
ATOM     30  C   UNL     1      34.974 -16.268 -21.907  0.00  0.00    -0.060 C 
ATOM     31  C   UNL     1      35.221 -17.270 -21.293  0.00  0.00    -0.060 C 
BRANCH  31  32
ATOM     32  C   UNL     1      35.516 -18.465 -20.563  0.00  0.00    +0.042 C 
ATOM     33  C   UNL     1      34.486 -19.329 -20.194  0.00  0.00    +0.008 C 
ATOM     34  C   UNL     1      36.835 -18.764 -20.218  0.00  0.00    +0.008 C 
ATOM     35  C   UNL     1      34.772 -20.494 -19.482  0.00  0.00    +0.001 C 
ATOM     36  C   UNL     1      37.121 -19.929 -19.506  0.00  0.00    +0.001 C 
ATOM     37  C   UNL     1      36.089 -20.793 -19.138  0.00  0.00    +0.000 C 
ENDBRANCH  31  32
ENDBRANCH  29  30
ENDBRANCH  23  24
ENDBRANCH   1  23
TORSDOF 9
ENDMDL
MODEL 8
REMARK VINA RESULT:     -10.3      5.066     11.782
REMARK  Name = 5288250
REMARK  9 active torsions:
REMARK  status: ('A' for Active; 'I' for Inactive)
REMARK    1  A    between atoms: C_1  and  N_3
REMARK    2  A    between atoms: C_1  and  C_20
REMARK    3  A    between atoms: C_1  and  C_23
REMARK    4  A    between atoms: C_4  and  C_6
REMARK    5  A    between atoms: C_6  and  C_10
REMARK    6  A    between atoms: C_20  and  O_21
REMARK    7  A    between atoms: C_23  and  C_24
REMARK    8  A    between atoms: C_29  and  C_30
REMARK    9  A    between atoms: C_31  and  C_32
REMARK                            x       y       z     vdW  Elec       q    Type
REMARK                         _______ _______ _______ _____ _____    ______ ____
ROOT
ATOM      1  C   UNL     1      34.919 -18.686 -21.284  0.00  0.00    +0.176 C 
ENDROOT
BRANCH   1   3
ATOM      2  O   UNL     1      36.475 -16.317 -21.871  0.00  0.00    -0.275 OA
ATOM      3  N   UNL     1      34.688 -17.345 -20.798  0.00  0.00    -0.297 N 
ATOM      4  C   UNL     1      35.493 -16.267 -21.137  0.00  0.00    +0.223 C 
ATOM      5  H   UNL     1      33.922 -17.189 -20.199  0.00  0.00    +0.150 HD
BRANCH   4   6
ATOM      6  C   UNL     1      35.004 -14.992 -20.482  0.00  0.00    +0.087 C 
BRANCH   6  10
ATOM      7  N   UNL     1      33.916 -13.050 -23.568  0.00  0.00    -0.282 N 
ATOM      8  N   UNL     1      33.461 -14.750 -25.020  0.00  0.00    -0.331 N 
ATOM      9  N   UNL     1      33.405 -12.532 -25.789  0.00  0.00    -0.273 NA
ATOM     10  C   UNL     1      34.089 -14.183 -21.398  0.00  0.00    +0.029 C 
ATOM     11  C   UNL     1      33.644 -12.882 -20.714  0.00  0.00    +0.004 C 
ATOM     12  C   UNL     1      34.783 -13.881 -22.734  0.00  0.00    +0.094 C 
ATOM     13  C   UNL     1      32.784 -12.038 -21.653  0.00  0.00    +0.022 C 
ATOM     14  C   UNL     1      33.497 -11.781 -22.977  0.00  0.00    +0.093 C 
ATOM     15  C   UNL     1      33.587 -13.399 -24.833  0.00  0.00    +0.174 C 
ATOM     16  H   UNL     1      33.608 -15.367 -24.268  0.00  0.00    +0.145 HD
ATOM     17  H   UNL     1      33.224 -15.104 -25.908  0.00  0.00    +0.145 HD
ATOM     18  H   UNL     1      33.507 -11.569 -25.606  0.00  0.00    +0.189 HD
ENDBRANCH   6  10
ENDBRANCH   4   6
ENDBRANCH   1   3
BRANCH   1  20
ATOM     19  O   UNL     1      35.645 -19.474 -23.450  0.00  0.00    -0.248 OA
ATOM     20  C   UNL     1      34.877 -18.768 -22.804  0.00  0.00    +0.335 C 
BRANCH  20  21
ATOM     21  O   UNL     1      33.914 -17.964 -23.336  0.00  0.00    -0.443 OA
ATOM     22  C   UNL     1      33.741 -18.057 -24.753  0.00  0.00    +0.256 C 
ENDBRANCH  20  21
ENDBRANCH   1  20
BRANCH   1  23
ATOM     23  C   UNL     1      33.962 -19.692 -20.627  0.00  0.00    +0.057 C 
BRANCH  23  24
ATOM     24  C   UNL     1      34.517 -20.383 -19.401  0.00  0.00    -0.020 C 
ATOM     25  C   UNL     1      33.668 -21.103 -18.561  0.00  0.00    -0.004 C 
ATOM     26  C   UNL     1      35.880 -20.302 -19.112  0.00  0.00    -0.004 C 
ATOM     27  C   UNL     1      34.180 -21.740 -17.431  0.00  0.00    +0.008 C 
ATOM     28  C   UNL     1      36.392 -20.940 -17.983  0.00  0.00    +0.008 C 
ATOM     29  C   UNL     1      35.543 -21.659 -17.142  0.00  0.00    +0.042 C 
BRANCH  29  30
ATOM     30  C   UNL     1      36.067 -22.311 -15.984  0.00  0.00    -0.060 C 
ATOM     31  C   UNL     1      36.507 -22.858 -15.010  0.00  0.00    -0.060 C 
BRANCH  31  32
ATOM     32  C   UNL     1      37.032 -23.511 -13.849  0.00  0.00    +0.042 C 
ATOM     33  C   UNL     1      36.250 -23.625 -12.701  0.00  0.00    +0.008 C 
ATOM     34  C   UNL     1      38.326 -24.033 -13.867  0.00  0.00    +0.008 C 
ATOM     35  C   UNL     1      36.760 -24.262 -11.569  0.00  0.00    +0.001 C 
ATOM     36  C   UNL     1      38.836 -24.669 -12.736  0.00  0.00    +0.001 C 
ATOM     37  C   UNL     1      38.053 -24.783 -11.587  0.00  0.00    +0.000 C 
ENDBRANCH  31  32
ENDBRANCH  29  30
ENDBRANCH  23  24
ENDBRANCH   1  23
TORSDOF 9
ENDMDL
MODEL 9
REMARK VINA RESULT:     -10.3      5.275      9.103
REMARK  Name = 5288250
REMARK  9 active torsions:
REMARK  status: ('A' for Active; 'I' for Inactive)
REMARK    1  A    between atoms: C_1  and  N_3
REMARK    2  A    between atoms: C_1  and  C_20
REMARK    3  A    between atoms: C_1  and  C_23
REMARK    4  A    between atoms: C_4  and  C_6
REMARK    5  A    between atoms: C_6  and  C_10
REMARK    6  A    between atoms: C_20  and  O_21
REMARK    7  A    between atoms: C_23  and  C_24
REMARK    8  A    between atoms: C_29  and  C_30
REMARK    9  A    between atoms: C_31  and  C_32
REMARK                            x       y       z     vdW  Elec       q    Type
REMARK                         _______ _______ _______ _____ _____    ______ ____
ROOT
ATOM      1  C   UNL     1      34.311 -16.541 -23.573  0.00  0.00    +0.176 C 
ENDROOT
BRANCH   1   3
ATOM      2  O   UNL     1      35.224 -16.654 -20.829  0.00  0.00    -0.275 OA
ATOM      3  N   UNL     1      34.978 -17.643 -22.918  0.00  0.00    -0.297 N 
ATOM      4  C   UNL     1      35.380 -17.604 -21.591  0.00  0.00    +0.223 C 
ATOM      5  H   UNL     1      35.154 -18.460 -23.438  0.00  0.00    +0.150 HD
BRANCH   4   6
ATOM      6  C   UNL     1      36.046 -18.901 -21.183  0.00  0.00    +0.087 C 
BRANCH   6  10
ATOM      7  N   UNL     1      35.733 -21.174 -18.147  0.00  0.00    -0.282 N 
ATOM      8  N   UNL     1      37.268 -20.244 -16.740  0.00  0.00    -0.331 N 
ATOM      9  N   UNL     1      36.223 -22.258 -16.135  0.00  0.00    -0.273 NA
ATOM     10  C   UNL     1      35.457 -19.476 -19.896  0.00  0.00    +0.029 C 
ATOM     11  C   UNL     1      34.029 -19.990 -20.133  0.00  0.00    +0.004 C 
ATOM     12  C   UNL     1      36.348 -20.595 -19.340  0.00  0.00    +0.094 C 
ATOM     13  C   UNL     1      33.462 -20.627 -18.865  0.00  0.00    +0.022 C 
ATOM     14  C   UNL     1      34.388 -21.715 -18.329  0.00  0.00    +0.093 C 
ATOM     15  C   UNL     1      36.396 -21.275 -16.972  0.00  0.00    +0.174 C 
ATOM     16  H   UNL     1      37.365 -19.522 -17.402  0.00  0.00    +0.145 HD
ATOM     17  H   UNL     1      37.798 -20.226 -15.910  0.00  0.00    +0.145 HD
ATOM     18  H   UNL     1      35.584 -22.977 -16.347  0.00  0.00    +0.189 HD
ENDBRANCH   6  10
ENDBRANCH   4   6
ENDBRANCH   1   3
BRANCH   1  20
ATOM     19  O   UNL     1      33.344 -16.208 -25.762  0.00  0.00    -0.248 OA
ATOM     20  C   UNL     1      33.572 -16.974 -24.831  0.00  0.00    +0.335 C 
BRANCH  20  21
ATOM     21  O   UNL     1      33.194 -18.282 -24.781  0.00  0.00    -0.443 OA
ATOM     22  C   UNL     1      32.087 -18.641 -25.615  0.00  0.00    +0.256 C 
ENDBRANCH  20  21
ENDBRANCH   1  20
BRANCH   1  23
ATOM     23  C   UNL     1      35.282 -15.382 -23.846  0.00  0.00    +0.057 C 
BRANCH  23  24
ATOM     24  C   UNL     1      34.767 -14.018 -23.444  0.00  0.00    -0.020 C 
ATOM     25  C   UNL     1      34.746 -13.648 -22.099  0.00  0.00    -0.004 C 
ATOM     26  C   UNL     1      34.314 -13.129 -24.419  0.00  0.00    -0.004 C 
ATOM     27  C   UNL     1      34.271 -12.391 -21.729  0.00  0.00    +0.008 C 
ATOM     28  C   UNL     1      33.839 -11.871 -24.049  0.00  0.00    +0.008 C 
ATOM     29  C   UNL     1      33.818 -11.502 -22.704  0.00  0.00    +0.042 C 
BRANCH  29  30
ATOM     30  C   UNL     1      33.330 -10.213 -22.324  0.00  0.00    -0.060 C 
ATOM     31  C   UNL     1      32.920  -9.130 -22.007  0.00  0.00    -0.060 C 
BRANCH  31  32
ATOM     32  C   UNL     1      32.431  -7.839 -21.628  0.00  0.00    +0.042 C 
ATOM     33  C   UNL     1      31.705  -7.074 -22.539  0.00  0.00    +0.008 C 
ATOM     34  C   UNL     1      32.683  -7.348 -20.347  0.00  0.00    +0.008 C 
ATOM     35  C   UNL     1      31.228  -5.816 -22.170  0.00  0.00    +0.001 C 
ATOM     36  C   UNL     1      32.205  -6.090 -19.978  0.00  0.00    +0.001 C 
ATOM     37  C   UNL     1      31.479  -5.324 -20.890  0.00  0.00    +0.000 C 
ENDBRANCH  31  32
ENDBRANCH  29  30
ENDBRANCH  23  24
ENDBRANCH   1  23
TORSDOF 9
ENDMDL
