MODEL 1
REMARK VINA RESULT:     -11.6      0.000      0.000
REMARK  Name = 16741245
REMARK  7 active torsions:
REMARK  status: ('A' for Active; 'I' for Inactive)
REMARK    1  A    between atoms: C_2  and  S_20
REMARK    2  A    between atoms: C_3  and  N_9
REMARK    3  A    between atoms: C_10  and  C_12
REMARK    4  A    between atoms: C_12  and  C_17
REMARK    5  A    between atoms: C_12  and  O_18
REMARK    6  A    between atoms: S_20  and  C_23
REMARK    7  A    between atoms: C_26  and  C_31
REMARK                            x       y       z     vdW  Elec       q    Type
REMARK                         _______ _______ _______ _____ _____    ______ ____
ROOT
ATOM      1 CL   UNL     1      33.691 -13.689 -23.900  0.00  0.00    -0.081 Cl
ATOM      2  C   UNL     1      35.461 -16.397 -21.560  0.00  0.00    +0.111 C 
ATOM      3  C   UNL     1      34.142 -13.981 -21.223  0.00  0.00    +0.061 C 
ATOM      4  C   UNL     1      34.959 -15.716 -22.669  0.00  0.00    +0.031 C 
ATOM      5  C   UNL     1      35.298 -15.863 -20.281  0.00  0.00    +0.020 C 
ATOM      6  C   UNL     1      34.297 -14.500 -22.499  0.00  0.00    +0.072 C 
ATOM      7  C   UNL     1      34.636 -14.647 -20.112  0.00  0.00    +0.017 C 
ENDROOT
BRANCH   3   9
ATOM      8  O   UNL     1      31.552 -13.395 -19.848  0.00  0.00    -0.272 OA
ATOM      9  N   UNL     1      33.475 -12.749 -21.017  0.00  0.00    -0.281 N 
ATOM     10  C   UNL     1      32.264 -12.537 -20.367  0.00  0.00    +0.259 C 
ATOM     11  H   UNL     1      33.920 -11.949 -21.378  0.00  0.00    +0.155 HD
BRANCH  10  12
ATOM     12  C   UNL     1      31.854 -11.054 -20.342  0.00  0.00    +0.245 C 
ATOM     13  C   UNL     1      32.726 -10.218 -21.280  0.00  0.00    +0.048 C 
BRANCH  12  17
ATOM     14  F   UNL     1      31.885 -11.470 -17.995  0.00  0.00    -0.167 F 
ATOM     15  F   UNL     1      30.755  -9.746 -18.696  0.00  0.00    -0.167 F 
ATOM     16  F   UNL     1      32.935  -9.699 -18.718  0.00  0.00    -0.167 F 
ATOM     17  C   UNL     1      31.860 -10.493 -18.927  0.00  0.00    +0.427 C 
ENDBRANCH  12  17
BRANCH  12  18
ATOM     18  O   UNL     1      30.507 -10.980 -20.810  0.00  0.00    -0.372 OA
ATOM     19  H   UNL     1      29.976 -10.464 -20.183  0.00  0.00    +0.211 HD
ENDBRANCH  12  18
ENDBRANCH  10  12
ENDBRANCH   3   9
BRANCH   2  20
ATOM     20  S   UNL     1      36.290 -17.918 -21.771  0.00  0.00    +0.027 S 
ATOM     21  O   UNL     1      37.690 -17.754 -21.402  0.00  0.00    -0.164 OA
ATOM     22  O   UNL     1      35.945 -18.392 -23.104  0.00  0.00    -0.164 OA
BRANCH  20  23
ATOM     23  C   UNL     1      35.640 -19.080 -20.600  0.00  0.00    +0.110 C 
ATOM     24  C   UNL     1      34.270 -19.207 -20.472  0.00  0.00    +0.019 C 
ATOM     25  C   UNL     1      36.518 -19.829 -19.840  0.00  0.00    +0.019 C 
ATOM     26  C   UNL     1      34.626 -20.886 -18.772  0.00  0.00    +0.054 C 
ATOM     27  C   UNL     1      33.758 -20.119 -19.549  0.00  0.00    +0.006 C 
ATOM     28  C   UNL     1      36.006 -20.742 -18.918  0.00  0.00    +0.006 C 
BRANCH  26  31
ATOM     29  O   UNL     1      32.987 -22.334 -18.067  0.00  0.00    -0.270 OA
ATOM     30  N   UNL     1      34.839 -22.130 -16.655  0.00  0.00    -0.273 N 
ATOM     31  C   UNL     1      34.092 -21.838 -17.811  0.00  0.00    +0.249 C 
ATOM     32  C   UNL     1      36.141 -21.520 -16.394  0.00  0.00    +0.115 C 
ATOM     33  C   UNL     1      34.364 -23.059 -15.639  0.00  0.00    +0.115 C 
ENDBRANCH  26  31
ENDBRANCH  20  23
ENDBRANCH   2  20
TORSDOF 7
ENDMDL
MODEL 2
REMARK VINA RESULT:     -11.0      2.591      4.002
REMARK  Name = 16741245
REMARK  7 active torsions:
REMARK  status: ('A' for Active; 'I' for Inactive)
REMARK    1  A    between atoms: C_2  and  S_20
REMARK    2  A    between atoms: C_3  and  N_9
REMARK    3  A    between atoms: C_10  and  C_12
REMARK    4  A    between atoms: C_12  and  C_17
REMARK    5  A    between atoms: C_12  and  O_18
REMARK    6  A    between atoms: S_20  and  C_23
REMARK    7  A    between atoms: C_26  and  C_31
REMARK                            x       y       z     vdW  Elec       q    Type
REMARK                         _______ _______ _______ _____ _____    ______ ____
ROOT
ATOM      1 CL   UNL     1      33.057 -12.217 -20.413  0.00  0.00    -0.081 Cl
ATOM      2  C   UNL     1      33.963 -13.727 -23.996  0.00  0.00    +0.111 C 
ATOM      3  C   UNL     1      33.646 -11.208 -22.881  0.00  0.00    +0.061 C 
ATOM      4  C   UNL     1      33.630 -13.598 -22.648  0.00  0.00    +0.031 C 
ATOM      5  C   UNL     1      34.138 -12.588 -24.783  0.00  0.00    +0.020 C 
ATOM      6  C   UNL     1      33.470 -12.331 -22.087  0.00  0.00    +0.072 C 
ATOM      7  C   UNL     1      33.977 -11.321 -24.222  0.00  0.00    +0.017 C 
ENDROOT
BRANCH   3   9
ATOM      8  O   UNL     1      31.202  -9.819 -21.860  0.00  0.00    -0.272 OA
ATOM      9  N   UNL     1      33.491  -9.908 -22.342  0.00  0.00    -0.281 N 
ATOM     10  C   UNL     1      32.323  -9.312 -21.882  0.00  0.00    +0.259 C 
ATOM     11  H   UNL     1      34.308  -9.361 -22.287  0.00  0.00    +0.155 HD
BRANCH  10  12
ATOM     12  C   UNL     1      32.548  -7.879 -21.366  0.00  0.00    +0.245 C 
ATOM     13  C   UNL     1      33.789  -7.248 -21.997  0.00  0.00    +0.048 C 
BRANCH  12  17
ATOM     14  F   UNL     1      32.637  -9.069 -19.301  0.00  0.00    -0.167 F 
ATOM     15  F   UNL     1      31.532  -7.193 -19.335  0.00  0.00    -0.167 F 
ATOM     16  F   UNL     1      33.711  -7.173 -19.419  0.00  0.00    -0.167 F 
ATOM     17  C   UNL     1      32.610  -7.833 -19.846  0.00  0.00    +0.427 C 
ENDBRANCH  12  17
BRANCH  12  18
ATOM     18  O   UNL     1      31.413  -7.107 -21.757  0.00  0.00    -0.372 OA
ATOM     19  H   UNL     1      31.242  -7.241 -22.702  0.00  0.00    +0.211 HD
ENDBRANCH  12  18
ENDBRANCH  10  12
ENDBRANCH   3   9
BRANCH   2  20
ATOM     20  S   UNL     1      34.164 -15.312 -24.699  0.00  0.00    +0.027 S 
ATOM     21  O   UNL     1      35.269 -15.277 -25.648  0.00  0.00    -0.164 OA
ATOM     22  O   UNL     1      32.843 -15.734 -25.144  0.00  0.00    -0.164 OA
BRANCH  20  23
ATOM     23  C   UNL     1      34.688 -16.429 -23.426  0.00  0.00    +0.110 C 
ATOM     24  C   UNL     1      34.525 -17.787 -23.618  0.00  0.00    +0.019 C 
ATOM     25  C   UNL     1      35.244 -15.915 -22.270  0.00  0.00    +0.019 C 
ATOM     26  C   UNL     1      35.500 -18.170 -21.441  0.00  0.00    +0.054 C 
ATOM     27  C   UNL     1      34.935 -18.666 -22.615  0.00  0.00    +0.006 C 
ATOM     28  C   UNL     1      35.655 -16.795 -21.268  0.00  0.00    +0.006 C 
BRANCH  26  31
ATOM     29  O   UNL     1      37.142 -19.131 -20.152  0.00  0.00    -0.270 OA
ATOM     30  N   UNL     1      34.963 -19.871 -19.740  0.00  0.00    -0.273 N 
ATOM     31  C   UNL     1      35.929 -19.086 -20.396  0.00  0.00    +0.249 C 
ATOM     32  C   UNL     1      33.541 -19.785 -20.062  0.00  0.00    +0.115 C 
ATOM     33  C   UNL     1      35.317 -20.823 -18.696  0.00  0.00    +0.115 C 
ENDBRANCH  26  31
ENDBRANCH  20  23
ENDBRANCH   2  20
TORSDOF 7
ENDMDL
MODEL 3
REMARK VINA RESULT:     -10.9      2.932      4.377
REMARK  Name = 16741245
REMARK  7 active torsions:
REMARK  status: ('A' for Active; 'I' for Inactive)
REMARK    1  A    between atoms: C_2  and  S_20
REMARK    2  A    between atoms: C_3  and  N_9
REMARK    3  A    between atoms: C_10  and  C_12
REMARK    4  A    between atoms: C_12  and  C_17
REMARK    5  A    between atoms: C_12  and  O_18
REMARK    6  A    between atoms: S_20  and  C_23
REMARK    7  A    between atoms: C_26  and  C_31
REMARK                            x       y       z     vdW  Elec       q    Type
REMARK                         _______ _______ _______ _____ _____    ______ ____
ROOT
ATOM      1 CL   UNL     1      32.261 -12.592 -20.466  0.00  0.00    -0.081 Cl
ATOM      2  C   UNL     1      33.890 -13.786 -23.910  0.00  0.00    +0.111 C 
ATOM      3  C   UNL     1      33.251 -11.374 -22.701  0.00  0.00    +0.061 C 
ATOM      4  C   UNL     1      33.306 -13.774 -22.644  0.00  0.00    +0.031 C 
ATOM      5  C   UNL     1      34.154 -12.584 -24.568  0.00  0.00    +0.020 C 
ATOM      6  C   UNL     1      32.984 -12.561 -22.036  0.00  0.00    +0.072 C 
ATOM      7  C   UNL     1      33.831 -11.371 -23.960  0.00  0.00    +0.017 C 
ENDROOT
BRANCH   3   9
ATOM      8  O   UNL     1      32.758  -8.709 -23.965  0.00  0.00    -0.272 OA
ATOM      9  N   UNL     1      32.936 -10.126 -22.111  0.00  0.00    -0.281 N 
ATOM     10  C   UNL     1      32.717  -8.913 -22.753  0.00  0.00    +0.259 C 
ATOM     11  H   UNL     1      32.864 -10.117 -21.129  0.00  0.00    +0.155 HD
BRANCH  10  12
ATOM     12  C   UNL     1      32.398  -7.770 -21.774  0.00  0.00    +0.245 C 
ATOM     13  C   UNL     1      31.271  -6.882 -22.301  0.00  0.00    +0.048 C 
BRANCH  12  17
ATOM     14  F   UNL     1      34.725  -7.380 -22.119  0.00  0.00    -0.167 F 
ATOM     15  F   UNL     1      33.934  -7.042 -20.119  0.00  0.00    -0.167 F 
ATOM     16  F   UNL     1      33.461  -5.646 -21.725  0.00  0.00    -0.167 F 
ATOM     17  C   UNL     1      33.640  -6.955 -21.437  0.00  0.00    +0.427 C 
ENDBRANCH  12  17
BRANCH  12  18
ATOM     18  O   UNL     1      31.955  -8.368 -20.556  0.00  0.00    -0.372 OA
ATOM     19  H   UNL     1      32.499  -8.045 -19.821  0.00  0.00    +0.211 HD
ENDBRANCH  12  18
ENDBRANCH  10  12
ENDBRANCH   3   9
BRANCH   2  20
ATOM     20  S   UNL     1      34.295 -15.304 -24.672  0.00  0.00    +0.027 S 
ATOM     21  O   UNL     1      35.484 -15.124 -25.494  0.00  0.00    -0.164 OA
ATOM     22  O   UNL     1      33.066 -15.799 -25.278  0.00  0.00    -0.164 OA
BRANCH  20  23
ATOM     23  C   UNL     1      34.777 -16.454 -23.412  0.00  0.00    +0.110 C 
ATOM     24  C   UNL     1      35.348 -15.973 -22.249  0.00  0.00    +0.019 C 
ATOM     25  C   UNL     1      34.573 -17.804 -23.623  0.00  0.00    +0.019 C 
ATOM     26  C   UNL     1      35.533 -18.245 -21.450  0.00  0.00    +0.054 C 
ATOM     27  C   UNL     1      35.730 -16.878 -21.259  0.00  0.00    +0.006 C 
ATOM     28  C   UNL     1      34.954 -18.708 -22.631  0.00  0.00    +0.006 C 
BRANCH  26  31
ATOM     29  O   UNL     1      37.142 -19.295 -20.189  0.00  0.00    -0.270 OA
ATOM     30  N   UNL     1      34.935 -19.926 -19.750  0.00  0.00    -0.273 N 
ATOM     31  C   UNL     1      35.930 -19.188 -20.416  0.00  0.00    +0.249 C 
ATOM     32  C   UNL     1      33.514 -19.767 -20.051  0.00  0.00    +0.115 C 
ATOM     33  C   UNL     1      35.254 -20.901 -18.716  0.00  0.00    +0.115 C 
ENDBRANCH  26  31
ENDBRANCH  20  23
ENDBRANCH   2  20
TORSDOF 7
ENDMDL
MODEL 4
REMARK VINA RESULT:     -10.4      4.926      9.504
REMARK  Name = 16741245
REMARK  7 active torsions:
REMARK  status: ('A' for Active; 'I' for Inactive)
REMARK    1  A    between atoms: C_2  and  S_20
REMARK    2  A    between atoms: C_3  and  N_9
REMARK    3  A    between atoms: C_10  and  C_12
REMARK    4  A    between atoms: C_12  and  C_17
REMARK    5  A    between atoms: C_12  and  O_18
REMARK    6  A    between atoms: S_20  and  C_23
REMARK    7  A    between atoms: C_26  and  C_31
REMARK                            x       y       z     vdW  Elec       q    Type
REMARK                         _______ _______ _______ _____ _____    ______ ____
ROOT
ATOM      1 CL   UNL     1      32.790 -20.835 -18.779  0.00  0.00    -0.081 Cl
ATOM      2  C   UNL     1      36.026 -19.217 -20.467  0.00  0.00    +0.111 C 
ATOM      3  C   UNL     1      35.483 -20.899 -18.331  0.00  0.00    +0.061 C 
ATOM      4  C   UNL     1      34.709 -19.573 -20.178  0.00  0.00    +0.031 C 
ATOM      5  C   UNL     1      37.070 -19.707 -19.682  0.00  0.00    +0.020 C 
ATOM      6  C   UNL     1      34.436 -20.419 -19.102  0.00  0.00    +0.072 C 
ATOM      7  C   UNL     1      36.797 -20.552 -18.607  0.00  0.00    +0.017 C 
ENDROOT
BRANCH   3   9
ATOM      8  O   UNL     1      36.886 -21.117 -15.699  0.00  0.00    -0.272 OA
ATOM      9  N   UNL     1      35.239 -21.759 -17.233  0.00  0.00    -0.281 N 
ATOM     10  C   UNL     1      35.930 -21.816 -16.028  0.00  0.00    +0.259 C 
ATOM     11  H   UNL     1      34.493 -22.392 -17.336  0.00  0.00    +0.155 HD
BRANCH  10  12
ATOM     12  C   UNL     1      35.372 -22.886 -15.072  0.00  0.00    +0.245 C 
ATOM     13  C   UNL     1      34.222 -22.336 -14.229  0.00  0.00    +0.048 C 
BRANCH  12  17
ATOM     14  F   UNL     1      37.577 -23.779 -14.911  0.00  0.00    -0.167 F 
ATOM     15  F   UNL     1      36.048 -24.635 -13.619  0.00  0.00    -0.167 F 
ATOM     16  F   UNL     1      36.824 -22.639 -13.210  0.00  0.00    -0.167 F 
ATOM     17  C   UNL     1      36.467 -23.486 -14.201  0.00  0.00    +0.427 C 
ENDBRANCH  12  17
BRANCH  12  18
ATOM     18  O   UNL     1      34.859 -23.946 -15.879  0.00  0.00    -0.372 OA
ATOM     19  H   UNL     1      35.142 -23.818 -16.799  0.00  0.00    +0.211 HD
ENDBRANCH  12  18
ENDBRANCH  10  12
ENDBRANCH   3   9
BRANCH   2  20
ATOM     20  S   UNL     1      36.369 -18.159 -21.813  0.00  0.00    +0.027 S 
ATOM     21  O   UNL     1      35.749 -18.699 -23.015  0.00  0.00    -0.164 OA
ATOM     22  O   UNL     1      37.805 -17.915 -21.787  0.00  0.00    -0.164 OA
BRANCH  20  23
ATOM     23  C   UNL     1      35.554 -16.610 -21.532  0.00  0.00    +0.110 C 
ATOM     24  C   UNL     1      35.123 -15.873 -22.618  0.00  0.00    +0.019 C 
ATOM     25  C   UNL     1      35.368 -16.175 -20.233  0.00  0.00    +0.019 C 
ATOM     26  C   UNL     1      34.285 -14.195 -21.095  0.00  0.00    +0.054 C 
ATOM     27  C   UNL     1      34.484 -14.653 -22.398  0.00  0.00    +0.006 C 
ATOM     28  C   UNL     1      34.727 -14.956 -20.013  0.00  0.00    +0.006 C 
BRANCH  26  31
ATOM     29  O   UNL     1      34.012 -11.954 -21.526  0.00  0.00    -0.270 OA
ATOM     30  N   UNL     1      32.584 -12.861 -19.913  0.00  0.00    -0.273 N 
ATOM     31  C   UNL     1      33.616 -12.924 -20.866  0.00  0.00    +0.249 C 
ATOM     32  C   UNL     1      32.150 -14.033 -19.156  0.00  0.00    +0.115 C 
ATOM     33  C   UNL     1      31.878 -11.622 -19.615  0.00  0.00    +0.115 C 
ENDBRANCH  26  31
ENDBRANCH  20  23
ENDBRANCH   2  20
TORSDOF 7
ENDMDL
MODEL 5
REMARK VINA RESULT:     -10.1      6.330     10.802
REMARK  Name = 16741245
REMARK  7 active torsions:
REMARK  status: ('A' for Active; 'I' for Inactive)
REMARK    1  A    between atoms: C_2  and  S_20
REMARK    2  A    between atoms: C_3  and  N_9
REMARK    3  A    between atoms: C_10  and  C_12
REMARK    4  A    between atoms: C_12  and  C_17
REMARK    5  A    between atoms: C_12  and  O_18
REMARK    6  A    between atoms: S_20  and  C_23
REMARK    7  A    between atoms: C_26  and  C_31
REMARK                            x       y       z     vdW  Elec       q    Type
REMARK                         _______ _______ _______ _____ _____    ______ ____
ROOT
ATOM      1 CL   UNL     1      33.441 -23.658 -13.603  0.00  0.00    -0.081 Cl
ATOM      2  C   UNL     1      34.559 -22.217 -17.155  0.00  0.00    +0.111 C 
ATOM      3  C   UNL     1      35.625 -22.357 -14.599  0.00  0.00    +0.061 C 
ATOM      4  C   UNL     1      33.835 -22.826 -16.130  0.00  0.00    +0.031 C 
ATOM      5  C   UNL     1      35.820 -21.680 -16.894  0.00  0.00    +0.020 C 
ATOM      6  C   UNL     1      34.371 -22.895 -14.844  0.00  0.00    +0.072 C 
ATOM      7  C   UNL     1      36.355 -21.749 -15.609  0.00  0.00    +0.017 C 
ENDROOT
BRANCH   3   9
ATOM      8  O   UNL     1      38.312 -23.327 -13.715  0.00  0.00    -0.272 OA
ATOM      9  N   UNL     1      36.197 -22.412 -13.305  0.00  0.00    -0.281 N 
ATOM     10  C   UNL     1      37.459 -22.877 -12.953  0.00  0.00    +0.259 C 
ATOM     11  H   UNL     1      35.635 -22.082 -12.568  0.00  0.00    +0.155 HD
BRANCH  10  12
ATOM     12  C   UNL     1      37.728 -22.780 -11.440  0.00  0.00    +0.245 C 
ATOM     13  C   UNL     1      39.078 -23.397 -11.073  0.00  0.00    +0.048 C 
BRANCH  12  17
ATOM     14  F   UNL     1      36.753 -23.183  -9.302  0.00  0.00    -0.167 F 
ATOM     15  F   UNL     1      36.528 -24.729 -10.818  0.00  0.00    -0.167 F 
ATOM     16  F   UNL     1      35.399 -22.871 -10.984  0.00  0.00    -0.167 F 
ATOM     17  C   UNL     1      36.596 -23.390 -10.627  0.00  0.00    +0.427 C 
ENDBRANCH  12  17
BRANCH  12  18
ATOM     18  O   UNL     1      37.773 -21.392 -11.108  0.00  0.00    -0.372 OA
ATOM     19  H   UNL     1      36.869 -21.048 -11.033  0.00  0.00    +0.211 HD
ENDBRANCH  12  18
ENDBRANCH  10  12
ENDBRANCH   3   9
BRANCH   2  20
ATOM     20  S   UNL     1      33.889 -22.130 -18.765  0.00  0.00    +0.027 S 
ATOM     21  O   UNL     1      32.435 -22.120 -18.676  0.00  0.00    -0.164 OA
ATOM     22  O   UNL     1      34.559 -23.162 -19.544  0.00  0.00    -0.164 OA
BRANCH  20  23
ATOM     23  C   UNL     1      34.317 -20.559 -19.467  0.00  0.00    +0.110 C 
ATOM     24  C   UNL     1      33.306 -19.686 -19.821  0.00  0.00    +0.019 C 
ATOM     25  C   UNL     1      35.651 -20.245 -19.645  0.00  0.00    +0.019 C 
ATOM     26  C   UNL     1      34.982 -18.113 -20.564  0.00  0.00    +0.054 C 
ATOM     27  C   UNL     1      33.642 -18.452 -20.376  0.00  0.00    +0.006 C 
ATOM     28  C   UNL     1      35.986 -19.009 -20.199  0.00  0.00    +0.006 C 
BRANCH  26  31
ATOM     29  O   UNL     1      35.675 -15.933 -20.354  0.00  0.00    -0.270 OA
ATOM     30  N   UNL     1      35.250 -16.657 -22.535  0.00  0.00    -0.273 N 
ATOM     31  C   UNL     1      35.332 -16.825 -21.141  0.00  0.00    +0.249 C 
ATOM     32  C   UNL     1      34.839 -17.740 -23.426  0.00  0.00    +0.115 C 
ATOM     33  C   UNL     1      35.568 -15.394 -23.184  0.00  0.00    +0.115 C 
ENDBRANCH  26  31
ENDBRANCH  20  23
ENDBRANCH   2  20
TORSDOF 7
ENDMDL
MODEL 6
REMARK VINA RESULT:     -10.1      4.583      9.264
REMARK  Name = 16741245
REMARK  7 active torsions:
REMARK  status: ('A' for Active; 'I' for Inactive)
REMARK    1  A    between atoms: C_2  and  S_20
REMARK    2  A    between atoms: C_3  and  N_9
REMARK    3  A    between atoms: C_10  and  C_12
REMARK    4  A    between atoms: C_12  and  C_17
REMARK    5  A    between atoms: C_12  and  O_18
REMARK    6  A    between atoms: S_20  and  C_23
REMARK    7  A    between atoms: C_26  and  C_31
REMARK                            x       y       z     vdW  Elec       q    Type
REMARK                         _______ _______ _______ _____ _____    ______ ____
ROOT
ATOM      1 CL   UNL     1      36.334 -21.219 -17.604  0.00  0.00    -0.081 Cl
ATOM      2  C   UNL     1      35.148 -19.173 -20.822  0.00  0.00    +0.111 C 
ATOM      3  C   UNL     1      33.942 -20.522 -18.720  0.00  0.00    +0.061 C 
ATOM      4  C   UNL     1      35.932 -19.790 -19.847  0.00  0.00    +0.031 C 
ATOM      5  C   UNL     1      33.757 -19.235 -20.738  0.00  0.00    +0.020 C 
ATOM      6  C   UNL     1      35.325 -20.469 -18.790  0.00  0.00    +0.072 C 
ATOM      7  C   UNL     1      33.150 -19.914 -19.683  0.00  0.00    +0.017 C 
ENDROOT
BRANCH   3   9
ATOM      8  O   UNL     1      33.903 -23.433 -18.034  0.00  0.00    -0.272 OA
ATOM      9  N   UNL     1      33.295 -21.203 -17.661  0.00  0.00    -0.281 N 
ATOM     10  C   UNL     1      33.313 -22.566 -17.391  0.00  0.00    +0.259 C 
ATOM     11  H   UNL     1      32.771 -20.645 -17.043  0.00  0.00    +0.155 HD
BRANCH  10  12
ATOM     12  C   UNL     1      32.486 -22.938 -16.146  0.00  0.00    +0.245 C 
ATOM     13  C   UNL     1      31.171 -22.160 -16.098  0.00  0.00    +0.048 C 
BRANCH  12  17
ATOM     14  F   UNL     1      34.505 -22.222 -15.100  0.00  0.00    -0.167 F 
ATOM     15  F   UNL     1      33.485 -23.945 -14.246  0.00  0.00    -0.167 F 
ATOM     16  F   UNL     1      32.645 -21.950 -13.993  0.00  0.00    -0.167 F 
ATOM     17  C   UNL     1      33.288 -22.758 -14.865  0.00  0.00    +0.427 C 
ENDBRANCH  12  17
BRANCH  12  18
ATOM     18  O   UNL     1      32.173 -24.327 -16.247  0.00  0.00    -0.372 OA
ATOM     19  H   UNL     1      31.217 -24.451 -16.134  0.00  0.00    +0.211 HD
ENDBRANCH  12  18
ENDBRANCH  10  12
ENDBRANCH   3   9
BRANCH   2  20
ATOM     20  S   UNL     1      35.906 -18.322 -22.144  0.00  0.00    +0.027 S 
ATOM     21  O   UNL     1      35.434 -18.881 -23.404  0.00  0.00    -0.164 OA
ATOM     22  O   UNL     1      37.333 -18.301 -21.853  0.00  0.00    -0.164 OA
BRANCH  20  23
ATOM     23  C   UNL     1      35.328 -16.647 -22.140  0.00  0.00    +0.110 C 
ATOM     24  C   UNL     1      34.902 -16.082 -23.326  0.00  0.00    +0.019 C 
ATOM     25  C   UNL     1      35.318 -15.943 -20.950  0.00  0.00    +0.019 C 
ATOM     26  C   UNL     1      34.430 -14.034 -22.135  0.00  0.00    +0.054 C 
ATOM     27  C   UNL     1      34.449 -14.763 -23.324  0.00  0.00    +0.006 C 
ATOM     28  C   UNL     1      34.863 -14.625 -20.948  0.00  0.00    +0.006 C 
BRANCH  26  31
ATOM     29  O   UNL     1      34.497 -11.878 -22.924  0.00  0.00    -0.270 OA
ATOM     30  N   UNL     1      32.935 -12.293 -21.235  0.00  0.00    -0.273 N 
ATOM     31  C   UNL     1      33.955 -12.660 -22.132  0.00  0.00    +0.249 C 
ATOM     32  C   UNL     1      32.325 -13.251 -20.316  0.00  0.00    +0.115 C 
ATOM     33  C   UNL     1      32.420 -10.933 -21.162  0.00  0.00    +0.115 C 
ENDBRANCH  26  31
ENDBRANCH  20  23
ENDBRANCH   2  20
TORSDOF 7
ENDMDL
MODEL 7
REMARK VINA RESULT:     -10.1      5.489      9.382
REMARK  Name = 16741245
REMARK  7 active torsions:
REMARK  status: ('A' for Active; 'I' for Inactive)
REMARK    1  A    between atoms: C_2  and  S_20
REMARK    2  A    between atoms: C_3  and  N_9
REMARK    3  A    between atoms: C_10  and  C_12
REMARK    4  A    between atoms: C_12  and  C_17
REMARK    5  A    between atoms: C_12  and  O_18
REMARK    6  A    between atoms: S_20  and  C_23
REMARK    7  A    between atoms: C_26  and  C_31
REMARK                            x       y       z     vdW  Elec       q    Type
REMARK                         _______ _______ _______ _____ _____    ______ ____
ROOT
ATOM      1 CL   UNL     1      34.657 -23.387 -15.197  0.00  0.00    -0.081 Cl
ATOM      2  C   UNL     1      35.301 -21.005 -18.336  0.00  0.00    +0.111 C 
ATOM      3  C   UNL     1      33.107 -22.099 -17.040  0.00  0.00    +0.061 C 
ATOM      4  C   UNL     1      35.486 -21.825 -17.223  0.00  0.00    +0.031 C 
ATOM      5  C   UNL     1      34.011 -20.735 -18.796  0.00  0.00    +0.020 C 
ATOM      6  C   UNL     1      34.383 -22.376 -16.572  0.00  0.00    +0.072 C 
ATOM      7  C   UNL     1      32.909 -21.286 -18.145  0.00  0.00    +0.017 C 
ENDROOT
BRANCH   3   9
ATOM      8  O   UNL     1      32.078 -21.702 -14.260  0.00  0.00    -0.272 OA
ATOM      9  N   UNL     1      31.967 -22.643 -16.400  0.00  0.00    -0.281 N 
ATOM     10  C   UNL     1      31.537 -22.421 -15.097  0.00  0.00    +0.259 C 
ATOM     11  H   UNL     1      31.414 -23.250 -16.943  0.00  0.00    +0.155 HD
BRANCH  10  12
ATOM     12  C   UNL     1      30.247 -23.191 -14.757  0.00  0.00    +0.245 C 
ATOM     13  C   UNL     1      30.200 -24.542 -15.469  0.00  0.00    +0.048 C 
BRANCH  12  17
ATOM     14  F   UNL     1      27.874 -23.095 -14.962  0.00  0.00    -0.167 F 
ATOM     15  F   UNL     1      29.051 -21.843 -16.299  0.00  0.00    -0.167 F 
ATOM     16  F   UNL     1      28.891 -21.327 -14.187  0.00  0.00    -0.167 F 
ATOM     17  C   UNL     1      29.005 -22.362 -15.050  0.00  0.00    +0.427 C 
ENDBRANCH  12  17
BRANCH  12  18
ATOM     18  O   UNL     1      30.260 -23.434 -13.350  0.00  0.00    -0.372 OA
ATOM     19  H   UNL     1      29.651 -24.160 -13.143  0.00  0.00    +0.211 HD
ENDBRANCH  12  18
ENDBRANCH  10  12
ENDBRANCH   3   9
BRANCH   2  20
ATOM     20  S   UNL     1      36.681 -20.315 -19.152  0.00  0.00    +0.027 S 
ATOM     21  O   UNL     1      37.432 -21.380 -19.804  0.00  0.00    -0.164 OA
ATOM     22  O   UNL     1      37.343 -19.454 -18.182  0.00  0.00    -0.164 OA
BRANCH  20  23
ATOM     23  C   UNL     1      36.097 -19.290 -20.475  0.00  0.00    +0.110 C 
ATOM     24  C   UNL     1      34.814 -19.478 -20.952  0.00  0.00    +0.019 C 
ATOM     25  C   UNL     1      36.938 -18.327 -21.000  0.00  0.00    +0.019 C 
ATOM     26  C   UNL     1      35.186 -17.695 -22.539  0.00  0.00    +0.054 C 
ATOM     27  C   UNL     1      34.355 -18.673 -21.995  0.00  0.00    +0.006 C 
ATOM     28  C   UNL     1      36.478 -17.521 -22.041  0.00  0.00    +0.006 C 
BRANCH  26  31
ATOM     29  O   UNL     1      34.447 -17.416 -24.697  0.00  0.00    -0.270 OA
ATOM     30  N   UNL     1      34.579 -15.470 -23.408  0.00  0.00    -0.273 N 
ATOM     31  C   UNL     1      34.707 -16.854 -23.624  0.00  0.00    +0.249 C 
ATOM     32  C   UNL     1      34.898 -14.850 -22.125  0.00  0.00    +0.115 C 
ATOM     33  C   UNL     1      34.121 -14.562 -24.451  0.00  0.00    +0.115 C 
ENDBRANCH  26  31
ENDBRANCH  20  23
ENDBRANCH   2  20
TORSDOF 7
ENDMDL
MODEL 8
REMARK VINA RESULT:     -10.0      4.429      9.299
REMARK  Name = 16741245
REMARK  7 active torsions:
REMARK  status: ('A' for Active; 'I' for Inactive)
REMARK    1  A    between atoms: C_2  and  S_20
REMARK    2  A    between atoms: C_3  and  N_9
REMARK    3  A    between atoms: C_10  and  C_12
REMARK    4  A    between atoms: C_12  and  C_17
REMARK    5  A    between atoms: C_12  and  O_18
REMARK    6  A    between atoms: S_20  and  C_23
REMARK    7  A    between atoms: C_26  and  C_31
REMARK                            x       y       z     vdW  Elec       q    Type
REMARK                         _______ _______ _______ _____ _____    ______ ____
ROOT
ATOM      1 CL   UNL     1      32.818 -20.849 -18.658  0.00  0.00    -0.081 Cl
ATOM      2  C   UNL     1      36.014 -19.252 -20.441  0.00  0.00    +0.111 C 
ATOM      3  C   UNL     1      35.518 -20.881 -18.253  0.00  0.00    +0.061 C 
ATOM      4  C   UNL     1      34.704 -19.610 -20.121  0.00  0.00    +0.031 C 
ATOM      5  C   UNL     1      37.074 -19.714 -19.661  0.00  0.00    +0.020 C 
ATOM      6  C   UNL     1      34.455 -20.429 -19.020  0.00  0.00    +0.072 C 
ATOM      7  C   UNL     1      36.825 -20.533 -18.560  0.00  0.00    +0.017 C 
ENDROOT
BRANCH   3   9
ATOM      8  O   UNL     1      37.012 -21.071 -15.669  0.00  0.00    -0.272 OA
ATOM      9  N   UNL     1      35.299 -21.714 -17.130  0.00  0.00    -0.281 N 
ATOM     10  C   UNL     1      36.032 -21.759 -15.949  0.00  0.00    +0.259 C 
ATOM     11  H   UNL     1      34.539 -22.336 -17.192  0.00  0.00    +0.155 HD
BRANCH  10  12
ATOM     12  C   UNL     1      35.490 -22.799 -14.952  0.00  0.00    +0.245 C 
ATOM     13  C   UNL     1      36.331 -24.076 -14.966  0.00  0.00    +0.048 C 
BRANCH  12  17
ATOM     14  F   UNL     1      33.781 -23.477 -16.469  0.00  0.00    -0.167 F 
ATOM     15  F   UNL     1      33.255 -22.005 -14.953  0.00  0.00    -0.167 F 
ATOM     16  F   UNL     1      33.576 -24.085 -14.384  0.00  0.00    -0.167 F 
ATOM     17  C   UNL     1      34.018 -23.097 -15.195  0.00  0.00    +0.427 C 
ENDBRANCH  12  17
BRANCH  12  18
ATOM     18  O   UNL     1      35.586 -22.224 -13.649  0.00  0.00    -0.372 OA
ATOM     19  H   UNL     1      34.959 -21.487 -13.574  0.00  0.00    +0.211 HD
ENDBRANCH  12  18
ENDBRANCH  10  12
ENDBRANCH   3   9
BRANCH   2  20
ATOM     20  S   UNL     1      36.326 -18.227 -21.819  0.00  0.00    +0.027 S 
ATOM     21  O   UNL     1      35.661 -18.785 -22.990  0.00  0.00    -0.164 OA
ATOM     22  O   UNL     1      37.765 -18.002 -21.845  0.00  0.00    -0.164 OA
BRANCH  20  23
ATOM     23  C   UNL     1      35.539 -16.662 -21.546  0.00  0.00    +0.110 C 
ATOM     24  C   UNL     1      35.352 -16.224 -20.250  0.00  0.00    +0.019 C 
ATOM     25  C   UNL     1      35.128 -15.918 -22.636  0.00  0.00    +0.019 C 
ATOM     26  C   UNL     1      34.309 -14.226 -21.120  0.00  0.00    +0.054 C 
ATOM     27  C   UNL     1      34.731 -14.994 -20.034  0.00  0.00    +0.006 C 
ATOM     28  C   UNL     1      34.508 -14.688 -22.420  0.00  0.00    +0.006 C 
BRANCH  26  31
ATOM     29  O   UNL     1      34.073 -11.983 -21.561  0.00  0.00    -0.270 OA
ATOM     30  N   UNL     1      32.634 -12.856 -19.940  0.00  0.00    -0.273 N 
ATOM     31  C   UNL     1      33.662 -12.943 -20.895  0.00  0.00    +0.249 C 
ATOM     32  C   UNL     1      32.182 -14.016 -19.175  0.00  0.00    +0.115 C 
ATOM     33  C   UNL     1      31.951 -11.604 -19.647  0.00  0.00    +0.115 C 
ENDBRANCH  26  31
ENDBRANCH  20  23
ENDBRANCH   2  20
TORSDOF 7
ENDMDL
MODEL 9
REMARK VINA RESULT:      -9.7      4.322      6.538
REMARK  Name = 16741245
REMARK  7 active torsions:
REMARK  status: ('A' for Active; 'I' for Inactive)
REMARK    1  A    between atoms: C_2  and  S_20
REMARK    2  A    between atoms: C_3  and  N_9
REMARK    3  A    between atoms: C_10  and  C_12
REMARK    4  A    between atoms: C_12  and  C_17
REMARK    5  A    between atoms: C_12  and  O_18
REMARK    6  A    between atoms: S_20  and  C_23
REMARK    7  A    between atoms: C_26  and  C_31
REMARK                            x       y       z     vdW  Elec       q    Type
REMARK                         _______ _______ _______ _____ _____    ______ ____
ROOT
ATOM      1 CL   UNL     1      37.192 -19.332 -19.897  0.00  0.00    -0.081 Cl
ATOM      2  C   UNL     1      33.874 -21.179 -18.666  0.00  0.00    +0.111 C 
ATOM      3  C   UNL     1      34.505 -18.913 -20.134  0.00  0.00    +0.061 C 
ATOM      4  C   UNL     1      35.208 -20.847 -18.897  0.00  0.00    +0.031 C 
ATOM      5  C   UNL     1      32.856 -20.372 -19.175  0.00  0.00    +0.020 C 
ATOM      6  C   UNL     1      35.526 -19.707 -19.635  0.00  0.00    +0.072 C 
ATOM      7  C   UNL     1      33.174 -19.232 -19.912  0.00  0.00    +0.017 C 
ENDROOT
BRANCH   3   9
ATOM      8  O   UNL     1      34.989 -18.581 -23.066  0.00  0.00    -0.272 OA
ATOM      9  N   UNL     1      34.793 -17.750 -20.887  0.00  0.00    -0.281 N 
ATOM     10  C   UNL     1      35.011 -17.656 -22.257  0.00  0.00    +0.259 C 
ATOM     11  H   UNL     1      34.847 -16.908 -20.381  0.00  0.00    +0.155 HD
BRANCH  10  12
ATOM     12  C   UNL     1      35.300 -16.215 -22.717  0.00  0.00    +0.245 C 
ATOM     13  C   UNL     1      34.898 -15.198 -21.648  0.00  0.00    +0.048 C 
BRANCH  12  17
ATOM     14  F   UNL     1      35.547 -15.621 -25.012  0.00  0.00    -0.167 F 
ATOM     15  F   UNL     1      33.809 -14.846 -23.953  0.00  0.00    -0.167 F 
ATOM     16  F   UNL     1      33.903 -16.957 -24.489  0.00  0.00    -0.167 F 
ATOM     17  C   UNL     1      34.640 -15.910 -24.054  0.00  0.00    +0.427 C 
ENDBRANCH  12  17
BRANCH  12  18
ATOM     18  O   UNL     1      36.709 -16.111 -22.918  0.00  0.00    -0.372 OA
ATOM     19  H   UNL     1      36.883 -15.575 -23.707  0.00  0.00    +0.211 HD
ENDBRANCH  12  18
ENDBRANCH  10  12
ENDBRANCH   3   9
BRANCH   2  20
ATOM     20  S   UNL     1      33.476 -22.607 -17.743  0.00  0.00    +0.027 S 
ATOM     21  O   UNL     1      33.819 -23.789 -18.521  0.00  0.00    -0.164 OA
ATOM     22  O   UNL     1      32.110 -22.423 -17.272  0.00  0.00    -0.164 OA
BRANCH  20  23
ATOM     23  C   UNL     1      34.534 -22.670 -16.322  0.00  0.00    +0.110 C 
ATOM     24  C   UNL     1      35.716 -21.954 -16.334  0.00  0.00    +0.019 C 
ATOM     25  C   UNL     1      34.153 -23.435 -15.235  0.00  0.00    +0.019 C 
ATOM     26  C   UNL     1      36.185 -22.771 -14.109  0.00  0.00    +0.054 C 
ATOM     27  C   UNL     1      36.550 -22.006 -15.217  0.00  0.00    +0.006 C 
ATOM     28  C   UNL     1      34.987 -23.484 -14.118  0.00  0.00    +0.006 C 
BRANCH  26  31
ATOM     29  O   UNL     1      36.778 -22.065 -12.005  0.00  0.00    -0.270 OA
ATOM     30  N   UNL     1      38.150 -23.703 -12.951  0.00  0.00    -0.273 N 
ATOM     31  C   UNL     1      37.054 -22.822 -12.944  0.00  0.00    +0.249 C 
ATOM     32  C   UNL     1      38.438 -24.579 -14.084  0.00  0.00    +0.115 C 
ATOM     33  C   UNL     1      39.074 -23.800 -11.829  0.00  0.00    +0.115 C 
ENDBRANCH  26  31
ENDBRANCH  20  23
ENDBRANCH   2  20
TORSDOF 7
ENDMDL
