MODEL 1
REMARK VINA RESULT:     -11.5      0.000      0.000
REMARK  Name = 9801640
REMARK  6 active torsions:
REMARK  status: ('A' for Active; 'I' for Inactive)
REMARK    1  A    between atoms: C_1  and  C_2
REMARK    2  A    between atoms: C_1  and  C_16
REMARK    3  A    between atoms: C_2  and  N_3
REMARK    4  A    between atoms: C_7  and  C_11
REMARK    5  A    between atoms: C_16  and  C_17
REMARK    6  A    between atoms: C_17  and  N_21
REMARK                            x       y       z     vdW  Elec       q    Type
REMARK                         _______ _______ _______ _____ _____    ______ ____
ROOT
ATOM      1  C   UNL     1      33.797 -15.016 -24.507  0.00  0.00    -0.021 C 
ENDROOT
BRANCH   1   2
ATOM      2  C   UNL     1      35.292 -15.226 -24.270  0.00  0.00    -0.077 C 
BRANCH   2   3
ATOM      3  N   UNL     1      35.506 -16.304 -23.307  0.00  0.00    +0.390 N 
ATOM      4  C   UNL     1      35.296 -15.837 -21.933  0.00  0.00    -0.072 C 
ATOM      5  C   UNL     1      34.633 -17.451 -23.605  0.00  0.00    -0.051 C 
ATOM      6  C   UNL     1      35.689 -16.941 -20.940  0.00  0.00    +0.005 C 
ATOM      7  C   UNL     1      35.099 -18.289 -21.293  0.00  0.00    -0.013 C 
ATOM      8  C   UNL     1      34.614 -18.503 -22.530  0.00  0.00    -0.052 C 
ATOM      9  H   UNL     1      36.475 -16.610 -23.389  0.00  0.00    -0.079 HD
BRANCH   7  11
ATOM     10  N   UNL     1      36.279 -19.663 -19.707  0.00  0.00    -0.244 NA
ATOM     11  C   UNL     1      35.082 -19.343 -20.250  0.00  0.00    +0.077 C 
ATOM     12  C   UNL     1      33.883 -19.939 -19.885  0.00  0.00    +0.019 C 
ATOM     13  C   UNL     1      33.916 -20.923 -18.903  0.00  0.00    +0.003 C 
ATOM     14  C   UNL     1      36.272 -20.625 -18.756  0.00  0.00    +0.099 C 
ATOM     15  C   UNL     1      35.129 -21.278 -18.323  0.00  0.00    +0.021 C 
ENDBRANCH   7  11
ENDBRANCH   2   3
ENDBRANCH   1   2
BRANCH   1  16
ATOM     16  C   UNL     1      33.440 -13.526 -24.492  0.00  0.00    +0.020 C 
BRANCH  16  17
ATOM     17  C   UNL     1      34.361 -12.711 -23.590  0.00  0.00    +0.099 C 
BRANCH  17  21
ATOM     18 CL   UNL     1      35.170  -9.935 -24.108  0.00  0.00    -0.062 Cl
ATOM     19  O   UNL     1      31.748  -9.466 -22.176  0.00  0.00    -0.448 OA
ATOM     20  O   UNL     1      32.534 -13.397 -21.631  0.00  0.00    -0.269 OA
ATOM     21  N   UNL     1      33.631 -11.705 -22.806  0.00  0.00    -0.244 N 
ATOM     22  C   UNL     1      32.811 -12.203 -21.769  0.00  0.00    +0.256 C 
ATOM     23  C   UNL     1      33.789 -10.360 -23.136  0.00  0.00    +0.151 C 
ATOM     24  C   UNL     1      32.314 -11.304 -20.701  0.00  0.00    +0.088 C 
ATOM     25  C   UNL     1      31.808 -10.029 -20.933  0.00  0.00    +0.150 C 
ATOM     26  C   UNL     1      32.942  -9.368 -22.833  0.00  0.00    +0.206 C 
ATOM     27  C   UNL     1      32.302 -11.809 -19.390  0.00  0.00    +0.008 C 
ATOM     28  C   UNL     1      31.274  -9.273 -19.883  0.00  0.00    +0.038 C 
ATOM     29  C   UNL     1      31.790 -11.047 -18.337  0.00  0.00    +0.000 C 
ATOM     30  C   UNL     1      31.272  -9.780 -18.586  0.00  0.00    +0.003 C 
ENDBRANCH  17  21
ENDBRANCH  16  17
ENDBRANCH   1  16
TORSDOF 6
ENDMDL
MODEL 2
REMARK VINA RESULT:     -11.3      2.588      3.686
REMARK  Name = 9801640
REMARK  6 active torsions:
REMARK  status: ('A' for Active; 'I' for Inactive)
REMARK    1  A    between atoms: C_1  and  C_2
REMARK    2  A    between atoms: C_1  and  C_16
REMARK    3  A    between atoms: C_2  and  N_3
REMARK    4  A    between atoms: C_7  and  C_11
REMARK    5  A    between atoms: C_16  and  C_17
REMARK    6  A    between atoms: C_17  and  N_21
REMARK                            x       y       z     vdW  Elec       q    Type
REMARK                         _______ _______ _______ _____ _____    ______ ____
ROOT
ATOM      1  C   UNL     1      33.308 -12.660 -22.488  0.00  0.00    -0.021 C 
ENDROOT
BRANCH   1   2
ATOM      2  C   UNL     1      34.580 -13.434 -22.834  0.00  0.00    -0.077 C 
BRANCH   2   3
ATOM      3  N   UNL     1      34.541 -14.766 -22.235  0.00  0.00    +0.390 N 
ATOM      4  C   UNL     1      35.393 -15.704 -22.973  0.00  0.00    -0.072 C 
ATOM      5  C   UNL     1      34.934 -14.713 -20.818  0.00  0.00    -0.051 C 
ATOM      6  C   UNL     1      35.202 -17.126 -22.424  0.00  0.00    +0.005 C 
ATOM      7  C   UNL     1      35.277 -17.191 -20.915  0.00  0.00    -0.013 C 
ATOM      8  C   UNL     1      35.153 -16.063 -20.191  0.00  0.00    -0.052 C 
ATOM      9  H   UNL     1      33.581 -15.107 -22.288  0.00  0.00    -0.079 HD
BRANCH   7  11
ATOM     10  N   UNL     1      36.748 -18.804 -19.901  0.00  0.00    -0.244 NA
ATOM     11  C   UNL     1      35.481 -18.514 -20.277  0.00  0.00    +0.077 C 
ATOM     12  C   UNL     1      34.406 -19.372 -20.098  0.00  0.00    +0.019 C 
ATOM     13  C   UNL     1      34.646 -20.602 -19.496  0.00  0.00    +0.003 C 
ATOM     14  C   UNL     1      36.943 -20.010 -19.320  0.00  0.00    +0.099 C 
ATOM     15  C   UNL     1      35.936 -20.935 -19.097  0.00  0.00    +0.021 C 
ENDBRANCH   7  11
ENDBRANCH   2   3
ENDBRANCH   1   2
BRANCH   1  16
ATOM     16  C   UNL     1      33.596 -11.162 -22.346  0.00  0.00    +0.020 C 
BRANCH  16  17
ATOM     17  C   UNL     1      32.325 -10.321 -22.312  0.00  0.00    +0.099 C 
BRANCH  17  21
ATOM     18 CL   UNL     1      30.832 -11.067 -19.895  0.00  0.00    -0.062 Cl
ATOM     19  O   UNL     1      33.005  -8.011 -18.629  0.00  0.00    -0.448 OA
ATOM     20  O   UNL     1      33.495  -7.837 -22.642  0.00  0.00    -0.269 OA
ATOM     21  N   UNL     1      32.348  -9.313 -21.242  0.00  0.00    -0.244 N 
ATOM     22  C   UNL     1      32.886  -8.053 -21.591  0.00  0.00    +0.256 C 
ATOM     23  C   UNL     1      31.856  -9.662 -19.986  0.00  0.00    +0.151 C 
ATOM     24  C   UNL     1      32.646  -6.867 -20.735  0.00  0.00    +0.088 C 
ATOM     25  C   UNL     1      32.726  -6.883 -19.346  0.00  0.00    +0.150 C 
ATOM     26  C   UNL     1      32.151  -9.059 -18.827  0.00  0.00    +0.206 C 
ATOM     27  C   UNL     1      32.386  -5.648 -21.384  0.00  0.00    +0.008 C 
ATOM     28  C   UNL     1      32.574  -5.702 -18.610  0.00  0.00    +0.038 C 
ATOM     29  C   UNL     1      32.213  -4.473 -20.650  0.00  0.00    +0.000 C 
ATOM     30  C   UNL     1      32.311  -4.500 -19.262  0.00  0.00    +0.003 C 
ENDBRANCH  17  21
ENDBRANCH  16  17
ENDBRANCH   1  16
TORSDOF 6
ENDMDL
MODEL 3
REMARK VINA RESULT:     -11.1      1.631      2.160
REMARK  Name = 9801640
REMARK  6 active torsions:
REMARK  status: ('A' for Active; 'I' for Inactive)
REMARK    1  A    between atoms: C_1  and  C_2
REMARK    2  A    between atoms: C_1  and  C_16
REMARK    3  A    between atoms: C_2  and  N_3
REMARK    4  A    between atoms: C_7  and  C_11
REMARK    5  A    between atoms: C_16  and  C_17
REMARK    6  A    between atoms: C_17  and  N_21
REMARK                            x       y       z     vdW  Elec       q    Type
REMARK                         _______ _______ _______ _____ _____    ______ ____
ROOT
ATOM      1  C   UNL     1      34.107 -13.530 -22.889  0.00  0.00    -0.021 C 
ENDROOT
BRANCH   1   2
ATOM      2  C   UNL     1      35.246 -14.355 -23.486  0.00  0.00    -0.077 C 
BRANCH   2   3
ATOM      3  N   UNL     1      35.536 -15.508 -22.637  0.00  0.00    +0.390 N 
ATOM      4  C   UNL     1      34.933 -15.353 -21.310  0.00  0.00    -0.072 C 
ATOM      5  C   UNL     1      35.077 -16.753 -23.274  0.00  0.00    -0.051 C 
ATOM      6  C   UNL     1      35.392 -16.496 -20.391  0.00  0.00    +0.005 C 
ATOM      7  C   UNL     1      35.265 -17.858 -21.035  0.00  0.00    -0.013 C 
ATOM      8  C   UNL     1      35.118 -17.955 -22.370  0.00  0.00    -0.052 C 
ATOM      9  H   UNL     1      36.547 -15.563 -22.517  0.00  0.00    -0.079 HD
BRANCH   7  11
ATOM     10  N   UNL     1      36.529 -19.382 -19.665  0.00  0.00    -0.244 NA
ATOM     11  C   UNL     1      35.314 -19.056 -20.163  0.00  0.00    +0.077 C 
ATOM     12  C   UNL     1      34.154 -19.771 -19.899  0.00  0.00    +0.019 C 
ATOM     13  C   UNL     1      34.249 -20.888 -19.076  0.00  0.00    +0.003 C 
ATOM     14  C   UNL     1      36.582 -20.474 -18.870  0.00  0.00    +0.099 C 
ATOM     15  C   UNL     1      35.483 -21.253 -18.547  0.00  0.00    +0.021 C 
ENDBRANCH   7  11
ENDBRANCH   2   3
ENDBRANCH   1   2
BRANCH   1  16
ATOM     16  C   UNL     1      34.485 -12.048 -22.805  0.00  0.00    +0.020 C 
BRANCH  16  17
ATOM     17  C   UNL     1      33.585 -11.163 -23.662  0.00  0.00    +0.099 C 
BRANCH  17  21
ATOM     18 CL   UNL     1      35.696  -9.356 -24.614  0.00  0.00    -0.062 Cl
ATOM     19  O   UNL     1      33.044  -6.831 -23.112  0.00  0.00    -0.448 OA
ATOM     20  O   UNL     1      31.707 -10.409 -21.777  0.00  0.00    -0.269 OA
ATOM     21  N   UNL     1      33.494  -9.789 -23.146  0.00  0.00    -0.244 N 
ATOM     22  C   UNL     1      32.556  -9.578 -22.111  0.00  0.00    +0.256 C 
ATOM     23  C   UNL     1      34.314  -8.812 -23.705  0.00  0.00    +0.151 C 
ATOM     24  C   UNL     1      32.614  -8.355 -21.276  0.00  0.00    +0.088 C 
ATOM     25  C   UNL     1      32.831  -7.078 -21.785  0.00  0.00    +0.150 C 
ATOM     26  C   UNL     1      34.104  -7.490 -23.669  0.00  0.00    +0.206 C 
ATOM     27  C   UNL     1      32.372  -8.502 -19.900  0.00  0.00    +0.008 C 
ATOM     28  C   UNL     1      32.785  -5.959 -20.946  0.00  0.00    +0.038 C 
ATOM     29  C   UNL     1      32.346  -7.389 -19.058  0.00  0.00    +0.000 C 
ATOM     30  C   UNL     1      32.549  -6.116 -19.583  0.00  0.00    +0.003 C 
ENDBRANCH  17  21
ENDBRANCH  16  17
ENDBRANCH   1  16
TORSDOF 6
ENDMDL
MODEL 4
REMARK VINA RESULT:     -11.0      5.997     11.310
REMARK  Name = 9801640
REMARK  6 active torsions:
REMARK  status: ('A' for Active; 'I' for Inactive)
REMARK    1  A    between atoms: C_1  and  C_2
REMARK    2  A    between atoms: C_1  and  C_16
REMARK    3  A    between atoms: C_2  and  N_3
REMARK    4  A    between atoms: C_7  and  C_11
REMARK    5  A    between atoms: C_16  and  C_17
REMARK    6  A    between atoms: C_17  and  N_21
REMARK                            x       y       z     vdW  Elec       q    Type
REMARK                         _______ _______ _______ _____ _____    ______ ____
ROOT
ATOM      1  C   UNL     1      37.066 -20.883 -16.686  0.00  0.00    -0.021 C 
ENDROOT
BRANCH   1   2
ATOM      2  C   UNL     1      36.196 -21.285 -17.876  0.00  0.00    -0.077 C 
BRANCH   2   3
ATOM      3  N   UNL     1      35.943 -20.128 -18.733  0.00  0.00    +0.390 N 
ATOM      4  C   UNL     1      37.061 -19.895 -19.652  0.00  0.00    -0.072 C 
ATOM      5  C   UNL     1      34.685 -20.296 -19.477  0.00  0.00    -0.051 C 
ATOM      6  C   UNL     1      36.842 -18.582 -20.418  0.00  0.00    +0.005 C 
ATOM      7  C   UNL     1      35.452 -18.465 -21.003  0.00  0.00    -0.013 C 
ATOM      8  C   UNL     1      34.469 -19.269 -20.556  0.00  0.00    -0.052 C 
ATOM      9  H   UNL     1      35.854 -19.308 -18.133  0.00  0.00    -0.079 HD
BRANCH   7  11
ATOM     10  N   UNL     1      35.501 -16.170 -21.729  0.00  0.00    -0.244 NA
ATOM     11  C   UNL     1      35.217 -17.451 -22.059  0.00  0.00    +0.077 C 
ATOM     12  C   UNL     1      34.731 -17.840 -23.300  0.00  0.00    +0.019 C 
ATOM     13  C   UNL     1      34.525 -16.854 -24.258  0.00  0.00    +0.003 C 
ATOM     14  C   UNL     1      35.287 -15.239 -22.686  0.00  0.00    +0.099 C 
ATOM     15  C   UNL     1      34.806 -15.526 -23.953  0.00  0.00    +0.021 C 
ENDBRANCH   7  11
ENDBRANCH   2   3
ENDBRANCH   1   2
BRANCH   1  16
ATOM     16  C   UNL     1      36.643 -21.630 -15.417  0.00  0.00    +0.020 C 
BRANCH  16  17
ATOM     17  C   UNL     1      35.914 -22.935 -15.720  0.00  0.00    +0.099 C 
BRANCH  17  21
ATOM     18 CL   UNL     1      36.574 -24.485 -13.313  0.00  0.00    -0.062 Cl
ATOM     19  O   UNL     1      33.042 -22.958 -12.387  0.00  0.00    -0.448 OA
ATOM     20  O   UNL     1      33.332 -22.165 -16.343  0.00  0.00    -0.269 OA
ATOM     21  N   UNL     1      34.781 -23.168 -14.812  0.00  0.00    -0.244 N 
ATOM     22  C   UNL     1      33.507 -22.817 -15.311  0.00  0.00    +0.256 C 
ATOM     23  C   UNL     1      35.037 -23.701 -13.551  0.00  0.00    +0.151 C 
ATOM     24  C   UNL     1      32.275 -23.320 -14.657  0.00  0.00    +0.088 C 
ATOM     25  C   UNL     1      32.088 -23.357 -13.279  0.00  0.00    +0.150 C 
ATOM     26  C   UNL     1      34.240 -23.609 -12.478  0.00  0.00    +0.206 C 
ATOM     27  C   UNL     1      31.220 -23.721 -15.494  0.00  0.00    +0.008 C 
ATOM     28  C   UNL     1      30.863 -23.763 -12.737  0.00  0.00    +0.038 C 
ATOM     29  C   UNL     1      30.005 -24.146 -14.955  0.00  0.00    +0.000 C 
ATOM     30  C   UNL     1      29.825 -24.163 -13.575  0.00  0.00    +0.003 C 
ENDBRANCH  17  21
ENDBRANCH  16  17
ENDBRANCH   1  16
TORSDOF 6
ENDMDL
MODEL 5
REMARK VINA RESULT:     -11.0      6.782     12.513
REMARK  Name = 9801640
REMARK  6 active torsions:
REMARK  status: ('A' for Active; 'I' for Inactive)
REMARK    1  A    between atoms: C_1  and  C_2
REMARK    2  A    between atoms: C_1  and  C_16
REMARK    3  A    between atoms: C_2  and  N_3
REMARK    4  A    between atoms: C_7  and  C_11
REMARK    5  A    between atoms: C_16  and  C_17
REMARK    6  A    between atoms: C_17  and  N_21
REMARK                            x       y       z     vdW  Elec       q    Type
REMARK                         _______ _______ _______ _____ _____    ______ ____
ROOT
ATOM      1  C   UNL     1      32.799 -22.527 -16.626  0.00  0.00    -0.021 C 
ENDROOT
BRANCH   1   2
ATOM      2  C   UNL     1      34.028 -22.925 -17.443  0.00  0.00    -0.077 C 
BRANCH   2   3
ATOM      3  N   UNL     1      34.238 -21.980 -18.537  0.00  0.00    +0.390 N 
ATOM      4  C   UNL     1      33.193 -20.951 -18.556  0.00  0.00    -0.072 C 
ATOM      5  C   UNL     1      35.571 -21.365 -18.447  0.00  0.00    -0.051 C 
ATOM      6  C   UNL     1      33.344 -20.076 -19.809  0.00  0.00    +0.005 C 
ATOM      7  C   UNL     1      34.763 -19.602 -20.030  0.00  0.00    -0.013 C 
ATOM      8  C   UNL     1      35.779 -20.209 -19.389  0.00  0.00    -0.052 C 
ATOM      9  H   UNL     1      34.182 -22.498 -19.414  0.00  0.00    -0.079 HD
BRANCH   7  11
ATOM     10  N   UNL     1      35.354 -17.297 -20.399  0.00  0.00    -0.244 NA
ATOM     11  C   UNL     1      34.989 -18.471 -20.963  0.00  0.00    +0.077 C 
ATOM     12  C   UNL     1      34.824 -18.654 -22.329  0.00  0.00    +0.019 C 
ATOM     13  C   UNL     1      35.047 -17.565 -23.164  0.00  0.00    +0.003 C 
ATOM     14  C   UNL     1      35.560 -16.261 -21.243  0.00  0.00    +0.099 C 
ATOM     15  C   UNL     1      35.422 -16.342 -22.619  0.00  0.00    +0.021 C 
ENDBRANCH   7  11
ENDBRANCH   2   3
ENDBRANCH   1   2
BRANCH   1  16
ATOM     16  C   UNL     1      33.107 -22.539 -15.126  0.00  0.00    +0.020 C 
BRANCH  16  17
ATOM     17  C   UNL     1      33.311 -23.947 -14.579  0.00  0.00    +0.099 C 
BRANCH  17  21
ATOM     18 CL   UNL     1      33.219 -22.455 -12.051  0.00  0.00    -0.062 Cl
ATOM     19  O   UNL     1      36.315 -24.856 -11.496  0.00  0.00    -0.448 OA
ATOM     20  O   UNL     1      35.573 -25.278 -15.451  0.00  0.00    -0.269 OA
ATOM     21  N   UNL     1      34.524 -24.060 -13.757  0.00  0.00    -0.244 N 
ATOM     22  C   UNL     1      35.635 -24.676 -14.375  0.00  0.00    +0.256 C 
ATOM     23  C   UNL     1      34.494 -23.571 -12.453  0.00  0.00    +0.151 C 
ATOM     24  C   UNL     1      36.994 -24.535 -13.800  0.00  0.00    +0.088 C 
ATOM     25  C   UNL     1      37.276 -24.641 -12.442  0.00  0.00    +0.150 C 
ATOM     26  C   UNL     1      35.313 -23.928 -11.455  0.00  0.00    +0.206 C 
ATOM     27  C   UNL     1      38.057 -24.346 -14.700  0.00  0.00    +0.008 C 
ATOM     28  C   UNL     1      38.597 -24.584 -11.982  0.00  0.00    +0.038 C 
ATOM     29  C   UNL     1      39.373 -24.268 -14.241  0.00  0.00    +0.000 C 
ATOM     30  C   UNL     1      39.643 -24.391 -12.881  0.00  0.00    +0.003 C 
ENDBRANCH  17  21
ENDBRANCH  16  17
ENDBRANCH   1  16
TORSDOF 6
ENDMDL
MODEL 6
REMARK VINA RESULT:     -10.9      6.114     11.570
REMARK  Name = 9801640
REMARK  6 active torsions:
REMARK  status: ('A' for Active; 'I' for Inactive)
REMARK    1  A    between atoms: C_1  and  C_2
REMARK    2  A    between atoms: C_1  and  C_16
REMARK    3  A    between atoms: C_2  and  N_3
REMARK    4  A    between atoms: C_7  and  C_11
REMARK    5  A    between atoms: C_16  and  C_17
REMARK    6  A    between atoms: C_17  and  N_21
REMARK                            x       y       z     vdW  Elec       q    Type
REMARK                         _______ _______ _______ _____ _____    ______ ____
ROOT
ATOM      1  C   UNL     1      34.760 -21.990 -18.419  0.00  0.00    -0.021 C 
ENDROOT
BRANCH   1   2
ATOM      2  C   UNL     1      35.987 -21.108 -18.646  0.00  0.00    -0.077 C 
BRANCH   2   3
ATOM      3  N   UNL     1      35.799 -20.272 -19.829  0.00  0.00    +0.390 N 
ATOM      4  C   UNL     1      34.434 -19.741 -19.891  0.00  0.00    -0.072 C 
ATOM      5  C   UNL     1      36.783 -19.178 -19.856  0.00  0.00    -0.051 C 
ATOM      6  C   UNL     1      34.219 -19.008 -21.224  0.00  0.00    +0.005 C 
ATOM      7  C   UNL     1      35.334 -18.040 -21.551  0.00  0.00    -0.013 C 
ATOM      8  C   UNL     1      36.512 -18.134 -20.906  0.00  0.00    -0.052 C 
ATOM      9  H   UNL     1      35.946 -20.855 -20.652  0.00  0.00    -0.079 HD
BRANCH   7  11
ATOM     10  N   UNL     1      34.597 -17.461 -23.768  0.00  0.00    -0.244 NA
ATOM     11  C   UNL     1      35.090 -17.012 -22.591  0.00  0.00    +0.077 C 
ATOM     12  C   UNL     1      35.367 -15.678 -22.328  0.00  0.00    +0.019 C 
ATOM     13  C   UNL     1      35.122 -14.749 -23.334  0.00  0.00    +0.003 C 
ATOM     14  C   UNL     1      34.373 -16.529 -24.723  0.00  0.00    +0.099 C 
ATOM     15  C   UNL     1      34.616 -15.175 -24.557  0.00  0.00    +0.021 C 
ENDBRANCH   7  11
ENDBRANCH   2   3
ENDBRANCH   1   2
BRANCH   1  16
ATOM     16  C   UNL     1      34.220 -21.828 -16.995  0.00  0.00    +0.020 C 
BRANCH  16  17
ATOM     17  C   UNL     1      33.797 -23.155 -16.373  0.00  0.00    +0.099 C 
BRANCH  17  21
ATOM     18 CL   UNL     1      31.613 -22.199 -14.658  0.00  0.00    -0.062 Cl
ATOM     19  O   UNL     1      33.929 -24.109 -12.081  0.00  0.00    -0.448 OA
ATOM     20  O   UNL     1      36.266 -23.902 -15.376  0.00  0.00    -0.269 OA
ATOM     21  N   UNL     1      34.079 -23.216 -14.932  0.00  0.00    -0.244 N 
ATOM     22  C   UNL     1      35.414 -23.510 -14.575  0.00  0.00    +0.256 C 
ATOM     23  C   UNL     1      33.034 -22.991 -14.038  0.00  0.00    +0.151 C 
ATOM     24  C   UNL     1      35.902 -23.254 -13.198  0.00  0.00    +0.088 C 
ATOM     25  C   UNL     1      35.180 -23.564 -12.050  0.00  0.00    +0.150 C 
ATOM     26  C   UNL     1      32.989 -23.386 -12.760  0.00  0.00    +0.206 C 
ATOM     27  C   UNL     1      37.196 -22.725 -13.063  0.00  0.00    +0.008 C 
ATOM     28  C   UNL     1      35.743 -23.374 -10.782  0.00  0.00    +0.038 C 
ATOM     29  C   UNL     1      37.751 -22.516 -11.799  0.00  0.00    +0.000 C 
ATOM     30  C   UNL     1      37.025 -22.844 -10.658  0.00  0.00    +0.003 C 
ENDBRANCH  17  21
ENDBRANCH  16  17
ENDBRANCH   1  16
TORSDOF 6
ENDMDL
MODEL 7
REMARK VINA RESULT:     -10.9      1.679      2.683
REMARK  Name = 9801640
REMARK  6 active torsions:
REMARK  status: ('A' for Active; 'I' for Inactive)
REMARK    1  A    between atoms: C_1  and  C_2
REMARK    2  A    between atoms: C_1  and  C_16
REMARK    3  A    between atoms: C_2  and  N_3
REMARK    4  A    between atoms: C_7  and  C_11
REMARK    5  A    between atoms: C_16  and  C_17
REMARK    6  A    between atoms: C_17  and  N_21
REMARK                            x       y       z     vdW  Elec       q    Type
REMARK                         _______ _______ _______ _____ _____    ______ ____
ROOT
ATOM      1  C   UNL     1      33.963 -14.717 -23.971  0.00  0.00    -0.021 C 
ENDROOT
BRANCH   1   2
ATOM      2  C   UNL     1      35.442 -14.894 -23.627  0.00  0.00    -0.077 C 
BRANCH   2   3
ATOM      3  N   UNL     1      35.620 -16.033 -22.728  0.00  0.00    +0.390 N 
ATOM      4  C   UNL     1      35.146 -15.720 -21.377  0.00  0.00    -0.072 C 
ATOM      5  C   UNL     1      34.938 -17.225 -23.256  0.00  0.00    -0.051 C 
ATOM      6  C   UNL     1      35.498 -16.870 -20.421  0.00  0.00    +0.005 C 
ATOM      7  C   UNL     1      35.125 -18.229 -20.970  0.00  0.00    -0.013 C 
ATOM      8  C   UNL     1      34.867 -18.371 -22.283  0.00  0.00    -0.052 C 
ATOM      9  H   UNL     1      36.618 -16.234 -22.671  0.00  0.00    -0.079 HD
BRANCH   7  11
ATOM     10  N   UNL     1      36.233 -19.752 -19.471  0.00  0.00    -0.244 NA
ATOM     11  C   UNL     1      35.060 -19.374 -20.030  0.00  0.00    +0.077 C 
ATOM     12  C   UNL     1      33.845 -19.991 -19.768  0.00  0.00    +0.019 C 
ATOM     13  C   UNL     1      33.835 -21.061 -18.880  0.00  0.00    +0.003 C 
ATOM     14  C   UNL     1      36.183 -20.797 -18.613  0.00  0.00    +0.099 C 
ATOM     15  C   UNL     1      35.022 -21.477 -18.287  0.00  0.00    +0.021 C 
ENDBRANCH   7  11
ENDBRANCH   2   3
ENDBRANCH   1   2
BRANCH   1  16
ATOM     16  C   UNL     1      33.527 -13.259 -23.796  0.00  0.00    +0.020 C 
BRANCH  16  17
ATOM     17  C   UNL     1      34.243 -12.567 -22.641  0.00  0.00    +0.099 C 
BRANCH  17  21
ATOM     18 CL   UNL     1      32.087 -13.048 -20.705  0.00  0.00    -0.062 Cl
ATOM     19  O   UNL     1      32.641  -9.142 -20.391  0.00  0.00    -0.448 OA
ATOM     20  O   UNL     1      34.770 -10.069 -23.704  0.00  0.00    -0.269 OA
ATOM     21  N   UNL     1      33.542 -11.355 -22.192  0.00  0.00    -0.244 N 
ATOM     22  C   UNL     1      33.840 -10.170 -22.899  0.00  0.00    +0.256 C 
ATOM     23  C   UNL     1      32.657 -11.456 -21.120  0.00  0.00    +0.151 C 
ATOM     24  C   UNL     1      32.961  -8.981 -22.788  0.00  0.00    +0.088 C 
ATOM     25  C   UNL     1      32.428  -8.520 -21.588  0.00  0.00    +0.150 C 
ATOM     26  C   UNL     1      32.254 -10.451 -20.332  0.00  0.00    +0.206 C 
ATOM     27  C   UNL     1      32.712  -8.253 -23.964  0.00  0.00    +0.008 C 
ATOM     28  C   UNL     1      31.678  -7.339 -21.549  0.00  0.00    +0.038 C 
ATOM     29  C   UNL     1      31.946  -7.087 -23.930  0.00  0.00    +0.000 C 
ATOM     30  C   UNL     1      31.432  -6.628 -22.721  0.00  0.00    +0.003 C 
ENDBRANCH  17  21
ENDBRANCH  16  17
ENDBRANCH   1  16
TORSDOF 6
ENDMDL
MODEL 8
REMARK VINA RESULT:     -10.9      3.926      9.775
REMARK  Name = 9801640
REMARK  6 active torsions:
REMARK  status: ('A' for Active; 'I' for Inactive)
REMARK    1  A    between atoms: C_1  and  C_2
REMARK    2  A    between atoms: C_1  and  C_16
REMARK    3  A    between atoms: C_2  and  N_3
REMARK    4  A    between atoms: C_7  and  C_11
REMARK    5  A    between atoms: C_16  and  C_17
REMARK    6  A    between atoms: C_17  and  N_21
REMARK                            x       y       z     vdW  Elec       q    Type
REMARK                         _______ _______ _______ _____ _____    ______ ____
ROOT
ATOM      1  C   UNL     1      36.375 -17.388 -21.762  0.00  0.00    -0.021 C 
ENDROOT
BRANCH   1   2
ATOM      2  C   UNL     1      35.372 -17.092 -22.876  0.00  0.00    -0.077 C 
BRANCH   2   3
ATOM      3  N   UNL     1      35.237 -15.650 -23.067  0.00  0.00    +0.390 N 
ATOM      4  C   UNL     1      34.135 -15.338 -23.982  0.00  0.00    -0.072 C 
ATOM      5  C   UNL     1      35.049 -14.969 -21.776  0.00  0.00    -0.051 C 
ATOM      6  C   UNL     1      34.123 -13.834 -24.292  0.00  0.00    +0.005 C 
ATOM      7  C   UNL     1      34.235 -12.975 -23.053  0.00  0.00    -0.013 C 
ATOM      8  C   UNL     1      34.663 -13.519 -21.899  0.00  0.00    -0.052 C 
ATOM      9  H   UNL     1      36.100 -15.307 -23.488  0.00  0.00    -0.079 HD
BRANCH   7  11
ATOM     10  N   UNL     1      33.063 -11.061 -22.182  0.00  0.00    -0.244 NA
ATOM     11  C   UNL     1      33.870 -11.541 -23.156  0.00  0.00    +0.077 C 
ATOM     12  C   UNL     1      34.351 -10.775 -24.208  0.00  0.00    +0.019 C 
ATOM     13  C   UNL     1      33.981  -9.436 -24.263  0.00  0.00    +0.003 C 
ATOM     14  C   UNL     1      32.724  -9.754 -22.269  0.00  0.00    +0.099 C 
ATOM     15  C   UNL     1      33.152  -8.908 -23.279  0.00  0.00    +0.021 C 
ENDBRANCH   7  11
ENDBRANCH   2   3
ENDBRANCH   1   2
BRANCH   1  16
ATOM     16  C   UNL     1      35.691 -18.061 -20.568  0.00  0.00    +0.020 C 
BRANCH  16  17
ATOM     17  C   UNL     1      35.304 -19.508 -20.852  0.00  0.00    +0.099 C 
BRANCH  17  21
ATOM     18 CL   UNL     1      32.537 -19.442 -19.866  0.00  0.00    -0.062 Cl
ATOM     19  O   UNL     1      34.086 -22.454 -17.820  0.00  0.00    -0.448 OA
ATOM     20  O   UNL     1      37.358 -20.735 -19.466  0.00  0.00    -0.269 OA
ATOM     21  N   UNL     1      35.073 -20.280 -19.622  0.00  0.00    -0.244 N 
ATOM     22  C   UNL     1      36.230 -20.759 -18.967  0.00  0.00    +0.256 C 
ATOM     23  C   UNL     1      33.762 -20.486 -19.201  0.00  0.00    +0.151 C 
ATOM     24  C   UNL     1      36.162 -21.230 -17.563  0.00  0.00    +0.088 C 
ATOM     25  C   UNL     1      35.146 -22.039 -17.065  0.00  0.00    +0.150 C 
ATOM     26  C   UNL     1      33.339 -21.458 -18.382  0.00  0.00    +0.206 C 
ATOM     27  C   UNL     1      37.228 -20.883 -16.716  0.00  0.00    +0.008 C 
ATOM     28  C   UNL     1      35.196 -22.517 -15.750  0.00  0.00    +0.038 C 
ATOM     29  C   UNL     1      37.268 -21.341 -15.398  0.00  0.00    +0.000 C 
ATOM     30  C   UNL     1      36.253 -22.163 -14.916  0.00  0.00    +0.003 C 
ENDBRANCH  17  21
ENDBRANCH  16  17
ENDBRANCH   1  16
TORSDOF 6
ENDMDL
MODEL 9
REMARK VINA RESULT:     -10.1      5.766     11.724
REMARK  Name = 9801640
REMARK  6 active torsions:
REMARK  status: ('A' for Active; 'I' for Inactive)
REMARK    1  A    between atoms: C_1  and  C_2
REMARK    2  A    between atoms: C_1  and  C_16
REMARK    3  A    between atoms: C_2  and  N_3
REMARK    4  A    between atoms: C_7  and  C_11
REMARK    5  A    between atoms: C_16  and  C_17
REMARK    6  A    between atoms: C_17  and  N_21
REMARK                            x       y       z     vdW  Elec       q    Type
REMARK                         _______ _______ _______ _____ _____    ______ ____
ROOT
ATOM      1  C   UNL     1      35.453 -20.544 -18.789  0.00  0.00    -0.021 C 
ENDROOT
BRANCH   1   2
ATOM      2  C   UNL     1      36.161 -20.192 -20.096  0.00  0.00    -0.077 C 
BRANCH   2   3
ATOM      3  N   UNL     1      35.553 -19.009 -20.700  0.00  0.00    +0.390 N 
ATOM      4  C   UNL     1      36.419 -17.835 -20.555  0.00  0.00    -0.072 C 
ATOM      5  C   UNL     1      35.238 -19.250 -22.117  0.00  0.00    -0.051 C 
ATOM      6  C   UNL     1      35.684 -16.579 -21.048  0.00  0.00    +0.005 C 
ATOM      7  C   UNL     1      35.027 -16.771 -22.397  0.00  0.00    -0.013 C 
ATOM      8  C   UNL     1      34.832 -18.014 -22.874  0.00  0.00    -0.052 C 
ATOM      9  H   UNL     1      34.681 -18.817 -20.206  0.00  0.00    -0.079 HD
BRANCH   7  11
ATOM     10  N   UNL     1      34.341 -15.750 -24.466  0.00  0.00    -0.244 NA
ATOM     11  C   UNL     1      34.610 -15.566 -23.153  0.00  0.00    +0.077 C 
ATOM     12  C   UNL     1      34.515 -14.340 -22.510  0.00  0.00    +0.019 C 
ATOM     13  C   UNL     1      34.121 -13.238 -23.261  0.00  0.00    +0.003 C 
ATOM     14  C   UNL     1      33.961 -14.656 -25.164  0.00  0.00    +0.099 C 
ATOM     15  C   UNL     1      33.837 -13.390 -24.614  0.00  0.00    +0.021 C 
ENDBRANCH   7  11
ENDBRANCH   2   3
ENDBRANCH   1   2
BRANCH   1  16
ATOM     16  C   UNL     1      36.385 -21.311 -17.846  0.00  0.00    +0.020 C 
BRANCH  16  17
ATOM     17  C   UNL     1      36.040 -21.097 -16.376  0.00  0.00    +0.099 C 
BRANCH  17  21
ATOM     18 CL   UNL     1      33.462 -22.400 -15.846  0.00  0.00    -0.062 Cl
ATOM     19  O   UNL     1      36.048 -25.256 -14.942  0.00  0.00    -0.448 OA
ATOM     20  O   UNL     1      38.423 -22.001 -15.304  0.00  0.00    -0.269 OA
ATOM     21  N   UNL     1      36.131 -22.337 -15.592  0.00  0.00    -0.244 N 
ATOM     22  C   UNL     1      37.392 -22.615 -15.019  0.00  0.00    +0.256 C 
ATOM     23  C   UNL     1      34.995 -23.136 -15.475  0.00  0.00    +0.151 C 
ATOM     24  C   UNL     1      37.525 -23.619 -13.936  0.00  0.00    +0.088 C 
ATOM     25  C   UNL     1      36.888 -24.856 -13.943  0.00  0.00    +0.150 C 
ATOM     26  C   UNL     1      34.976 -24.440 -15.170  0.00  0.00    +0.206 C 
ATOM     27  C   UNL     1      38.398 -23.312 -12.879  0.00  0.00    +0.008 C 
ATOM     28  C   UNL     1      37.132 -25.788 -12.927  0.00  0.00    +0.038 C 
ATOM     29  C   UNL     1      38.625 -24.232 -11.854  0.00  0.00    +0.000 C 
ATOM     30  C   UNL     1      37.995 -25.472 -11.881  0.00  0.00    +0.003 C 
ENDBRANCH  17  21
ENDBRANCH  16  17
ENDBRANCH   1  16
TORSDOF 6
ENDMDL
