MODEL 1
REMARK VINA RESULT:     -11.6      0.000      0.000
REMARK  Name = 6419789
REMARK  3 active torsions:
REMARK  status: ('A' for Active; 'I' for Inactive)
REMARK    1  A    between atoms: N_4  and  C_13
REMARK    2  A    between atoms: C_5  and  C_19
REMARK    3  A    between atoms: C_22  and  N_25
REMARK                            x       y       z     vdW  Elec       q    Type
REMARK                         _______ _______ _______ _____ _____    ______ ____
ROOT
ATOM      1  N   UNL     1      36.130 -22.671 -13.822  0.00  0.00    -0.164 N 
ATOM      2  N   UNL     1      35.135 -22.279 -15.976  0.00  0.00    -0.374 NA
ATOM      3  N   UNL     1      35.794 -23.092 -12.575  0.00  0.00    -0.174 NA
ATOM      4  N   UNL     1      36.460 -21.510 -17.727  0.00  0.00    -0.288 N 
ATOM      5  C   UNL     1      33.960 -23.103 -13.926  0.00  0.00    +0.134 C 
ATOM      6  C   UNL     1      35.030 -22.666 -14.674  0.00  0.00    +0.194 C 
ATOM      7  C   UNL     1      34.488 -23.348 -12.653  0.00  0.00    +0.104 C 
ATOM      8  C   UNL     1      36.316 -21.905 -16.415  0.00  0.00    +0.186 C 
ATOM      9  C   UNL     1      37.381 -22.277 -14.277  0.00  0.00    +0.096 C 
ATOM     10  C   UNL     1      37.544 -21.887 -15.544  0.00  0.00    +0.066 C 
ATOM     11  H   UNL     1      37.337 -21.672 -18.144  0.00  0.00    +0.155 HD
ENDROOT
BRANCH   4  13
ATOM     12 CL   UNL     1      35.350 -18.255 -21.535  0.00  0.00    -0.082 Cl
ATOM     13  C   UNL     1      35.493 -20.904 -18.522  0.00  0.00    +0.051 C 
ATOM     14  C   UNL     1      35.856 -19.984 -19.520  0.00  0.00    +0.026 C 
ATOM     15  C   UNL     1      34.131 -21.200 -18.343  0.00  0.00    +0.015 C 
ATOM     16  C   UNL     1      34.885 -19.379 -20.317  0.00  0.00    +0.059 C 
ATOM     17  C   UNL     1      33.161 -20.593 -19.140  0.00  0.00    +0.002 C 
ATOM     18  C   UNL     1      33.537 -19.683 -20.127  0.00  0.00    +0.011 C 
ENDBRANCH   4  13
BRANCH   5  19
ATOM     19  C   UNL     1      32.627 -23.246 -14.428  0.00  0.00    -0.008 C 
ATOM     20  C   UNL     1      31.792 -24.248 -13.929  0.00  0.00    +0.011 C 
ATOM     21  C   UNL     1      32.155 -22.383 -15.420  0.00  0.00    -0.003 C 
ATOM     22  C   UNL     1      30.493 -24.387 -14.418  0.00  0.00    +0.041 C 
ATOM     23  C   UNL     1      30.856 -22.521 -15.910  0.00  0.00    +0.001 C 
ATOM     24  C   UNL     1      30.025 -23.523 -15.409  0.00  0.00    +0.014 C 
BRANCH  22  25
ATOM     25  N   UNL     1      29.652 -25.400 -13.912  0.00  0.00    -0.357 N 
ATOM     26  H   UNL     1      29.824 -26.342 -14.142  0.00  0.00    +0.142 HD
ATOM     27  H   UNL     1      28.893 -25.165 -13.332  0.00  0.00    +0.142 HD
ENDBRANCH  22  25
ENDBRANCH   5  19
TORSDOF 3
ENDMDL
MODEL 2
REMARK VINA RESULT:     -11.5      3.164      5.704
REMARK  Name = 6419789
REMARK  3 active torsions:
REMARK  status: ('A' for Active; 'I' for Inactive)
REMARK    1  A    between atoms: N_4  and  C_13
REMARK    2  A    between atoms: C_5  and  C_19
REMARK    3  A    between atoms: C_22  and  N_25
REMARK                            x       y       z     vdW  Elec       q    Type
REMARK                         _______ _______ _______ _____ _____    ______ ____
ROOT
ATOM      1  N   UNL     1      35.034 -21.520 -17.542  0.00  0.00    -0.164 N 
ATOM      2  N   UNL     1      35.565 -22.332 -15.343  0.00  0.00    -0.374 NA
ATOM      3  N   UNL     1      33.977 -21.405 -18.388  0.00  0.00    -0.174 NA
ATOM      4  N   UNL     1      37.747 -22.159 -14.554  0.00  0.00    -0.288 N 
ATOM      5  C   UNL     1      33.318 -22.386 -16.441  0.00  0.00    +0.134 C 
ATOM      6  C   UNL     1      34.665 -22.116 -16.341  0.00  0.00    +0.194 C 
ATOM      7  C   UNL     1      32.954 -21.929 -17.713  0.00  0.00    +0.104 C 
ATOM      8  C   UNL     1      36.810 -21.958 -15.542  0.00  0.00    +0.186 C 
ATOM      9  C   UNL     1      36.345 -21.123 -17.763  0.00  0.00    +0.096 C 
ATOM     10  C   UNL     1      37.272 -21.309 -16.820  0.00  0.00    +0.066 C 
ATOM     11  H   UNL     1      38.492 -21.516 -14.513  0.00  0.00    +0.155 HD
ENDROOT
BRANCH   4  13
ATOM     12 CL   UNL     1      35.840 -24.071 -10.192  0.00  0.00    -0.082 Cl
ATOM     13  C   UNL     1      37.751 -23.178 -13.607  0.00  0.00    +0.051 C 
ATOM     14  C   UNL     1      36.894 -23.127 -12.495  0.00  0.00    +0.026 C 
ATOM     15  C   UNL     1      38.611 -24.279 -13.744  0.00  0.00    +0.015 C 
ATOM     16  C   UNL     1      36.897 -24.151 -11.547  0.00  0.00    +0.059 C 
ATOM     17  C   UNL     1      38.615 -25.302 -12.795  0.00  0.00    +0.002 C 
ATOM     18  C   UNL     1      37.758 -25.238 -11.697  0.00  0.00    +0.011 C 
ENDBRANCH   4  13
BRANCH   5  19
ATOM     19  C   UNL     1      32.538 -23.004 -15.412  0.00  0.00    -0.008 C 
ATOM     20  C   UNL     1      31.158 -23.150 -15.568  0.00  0.00    +0.011 C 
ATOM     21  C   UNL     1      33.155 -23.465 -14.246  0.00  0.00    -0.003 C 
ATOM     22  C   UNL     1      30.398 -23.752 -14.564  0.00  0.00    +0.041 C 
ATOM     23  C   UNL     1      32.396 -24.067 -13.242  0.00  0.00    +0.001 C 
ATOM     24  C   UNL     1      31.018 -24.211 -13.401  0.00  0.00    +0.014 C 
BRANCH  22  25
ATOM     25  N   UNL     1      29.005 -23.897 -14.725  0.00  0.00    -0.357 N 
ATOM     26  H   UNL     1      28.440 -23.103 -14.863  0.00  0.00    +0.142 HD
ATOM     27  H   UNL     1      28.597 -24.793 -14.696  0.00  0.00    +0.142 HD
ENDBRANCH  22  25
ENDBRANCH   5  19
TORSDOF 3
ENDMDL
MODEL 3
REMARK VINA RESULT:     -11.0      2.479      5.932
REMARK  Name = 6419789
REMARK  3 active torsions:
REMARK  status: ('A' for Active; 'I' for Inactive)
REMARK    1  A    between atoms: N_4  and  C_13
REMARK    2  A    between atoms: C_5  and  C_19
REMARK    3  A    between atoms: C_22  and  N_25
REMARK                            x       y       z     vdW  Elec       q    Type
REMARK                         _______ _______ _______ _____ _____    ______ ____
ROOT
ATOM      1  N   UNL     1      36.703 -22.696 -13.800  0.00  0.00    -0.164 N 
ATOM      2  N   UNL     1      34.360 -22.532 -14.314  0.00  0.00    -0.374 NA
ATOM      3  N   UNL     1      37.917 -22.504 -14.379  0.00  0.00    -0.174 NA
ATOM      4  N   UNL     1      32.789 -23.066 -12.683  0.00  0.00    -0.288 N 
ATOM      5  C   UNL     1      36.258 -22.021 -15.862  0.00  0.00    +0.134 C 
ATOM      6  C   UNL     1      35.666 -22.409 -14.681  0.00  0.00    +0.194 C 
ATOM      7  C   UNL     1      37.634 -22.098 -15.616  0.00  0.00    +0.104 C 
ATOM      8  C   UNL     1      34.098 -22.933 -13.090  0.00  0.00    +0.186 C 
ATOM      9  C   UNL     1      36.437 -23.121 -12.506  0.00  0.00    +0.096 C 
ATOM     10  C   UNL     1      35.175 -23.260 -12.090  0.00  0.00    +0.066 C 
ATOM     11  H   UNL     1      32.606 -22.918 -11.727  0.00  0.00    +0.155 HD
ENDROOT
BRANCH   4  13
ATOM     12 CL   UNL     1      28.691 -21.478 -15.330  0.00  0.00    -0.082 Cl
ATOM     13  C   UNL     1      31.700 -23.390 -13.485  0.00  0.00    +0.051 C 
ATOM     14  C   UNL     1      30.833 -22.390 -13.957  0.00  0.00    +0.026 C 
ATOM     15  C   UNL     1      31.445 -24.725 -13.841  0.00  0.00    +0.015 C 
ATOM     16  C   UNL     1      29.741 -22.717 -14.762  0.00  0.00    +0.059 C 
ATOM     17  C   UNL     1      30.352 -25.050 -14.645  0.00  0.00    +0.002 C 
ATOM     18  C   UNL     1      29.501 -24.047 -15.106  0.00  0.00    +0.011 C 
ENDBRANCH   4  13
BRANCH   5  19
ATOM     19  C   UNL     1      35.540 -21.636 -17.040  0.00  0.00    -0.008 C 
ATOM     20  C   UNL     1      36.167 -20.875 -18.028  0.00  0.00    +0.011 C 
ATOM     21  C   UNL     1      34.207 -22.022 -17.205  0.00  0.00    -0.003 C 
ATOM     22  C   UNL     1      35.467 -20.500 -19.175  0.00  0.00    +0.041 C 
ATOM     23  C   UNL     1      33.506 -21.647 -18.351  0.00  0.00    +0.001 C 
ATOM     24  C   UNL     1      34.136 -20.887 -19.336  0.00  0.00    +0.014 C 
BRANCH  22  25
ATOM     25  N   UNL     1      36.103 -19.731 -20.171  0.00  0.00    -0.357 N 
ATOM     26  H   UNL     1      36.643 -20.174 -20.865  0.00  0.00    +0.142 HD
ATOM     27  H   UNL     1      36.007 -18.752 -20.172  0.00  0.00    +0.142 HD
ENDBRANCH  22  25
ENDBRANCH   5  19
TORSDOF 3
ENDMDL
MODEL 4
REMARK VINA RESULT:     -10.5      3.069      6.856
REMARK  Name = 6419789
REMARK  3 active torsions:
REMARK  status: ('A' for Active; 'I' for Inactive)
REMARK    1  A    between atoms: N_4  and  C_13
REMARK    2  A    between atoms: C_5  and  C_19
REMARK    3  A    between atoms: C_22  and  N_25
REMARK                            x       y       z     vdW  Elec       q    Type
REMARK                         _______ _______ _______ _____ _____    ______ ____
ROOT
ATOM      1  N   UNL     1      31.812 -23.145 -14.923  0.00  0.00    -0.164 N 
ATOM      2  N   UNL     1      34.126 -23.404 -14.324  0.00  0.00    -0.374 NA
ATOM      3  N   UNL     1      31.038 -22.603 -15.900  0.00  0.00    -0.174 NA
ATOM      4  N   UNL     1      34.683 -24.531 -12.366  0.00  0.00    -0.288 N 
ATOM      5  C   UNL     1      33.241 -22.248 -16.359  0.00  0.00    +0.134 C 
ATOM      6  C   UNL     1      33.165 -22.945 -15.174  0.00  0.00    +0.194 C 
ATOM      7  C   UNL     1      31.910 -22.069 -16.755  0.00  0.00    +0.104 C 
ATOM      8  C   UNL     1      33.739 -24.050 -13.247  0.00  0.00    +0.186 C 
ATOM      9  C   UNL     1      31.394 -23.824 -13.788  0.00  0.00    +0.096 C 
ATOM     10  C   UNL     1      32.291 -24.298 -12.919  0.00  0.00    +0.066 C 
ATOM     11  H   UNL     1      34.446 -25.344 -11.864  0.00  0.00    +0.155 HD
ENDROOT
BRANCH   4  13
ATOM     12 CL   UNL     1      39.757 -24.723 -13.104  0.00  0.00    -0.082 Cl
ATOM     13  C   UNL     1      35.937 -23.985 -12.114  0.00  0.00    +0.051 C 
ATOM     14  C   UNL     1      37.094 -24.558 -12.669  0.00  0.00    +0.026 C 
ATOM     15  C   UNL     1      36.073 -22.848 -11.300  0.00  0.00    +0.015 C 
ATOM     16  C   UNL     1      38.351 -24.008 -12.416  0.00  0.00    +0.059 C 
ATOM     17  C   UNL     1      37.330 -22.300 -11.047  0.00  0.00    +0.002 C 
ATOM     18  C   UNL     1      38.469 -22.879 -11.604  0.00  0.00    +0.011 C 
ENDBRANCH   4  13
BRANCH   5  19
ATOM     19  C   UNL     1      34.464 -21.836 -16.979  0.00  0.00    -0.008 C 
ATOM     20  C   UNL     1      35.640 -21.759 -16.232  0.00  0.00    +0.011 C 
ATOM     21  C   UNL     1      34.484 -21.510 -18.338  0.00  0.00    -0.003 C 
ATOM     22  C   UNL     1      36.831 -21.357 -16.837  0.00  0.00    +0.041 C 
ATOM     23  C   UNL     1      35.675 -21.108 -18.944  0.00  0.00    +0.001 C 
ATOM     24  C   UNL     1      36.848 -21.031 -18.194  0.00  0.00    +0.014 C 
BRANCH  22  25
ATOM     25  N   UNL     1      38.018 -21.279 -16.079  0.00  0.00    -0.357 N 
ATOM     26  H   UNL     1      38.682 -22.004 -16.130  0.00  0.00    +0.142 HD
ATOM     27  H   UNL     1      38.181 -20.502 -15.499  0.00  0.00    +0.142 HD
ENDBRANCH  22  25
ENDBRANCH   5  19
TORSDOF 3
ENDMDL
MODEL 5
REMARK VINA RESULT:     -10.4      2.898      5.788
REMARK  Name = 6419789
REMARK  3 active torsions:
REMARK  status: ('A' for Active; 'I' for Inactive)
REMARK    1  A    between atoms: N_4  and  C_13
REMARK    2  A    between atoms: C_5  and  C_19
REMARK    3  A    between atoms: C_22  and  N_25
REMARK                            x       y       z     vdW  Elec       q    Type
REMARK                         _______ _______ _______ _____ _____    ______ ____
ROOT
ATOM      1  N   UNL     1      36.248 -21.358 -17.327  0.00  0.00    -0.164 N 
ATOM      2  N   UNL     1      34.418 -22.456 -16.220  0.00  0.00    -0.374 NA
ATOM      3  N   UNL     1      37.574 -21.113 -17.163  0.00  0.00    -0.174 NA
ATOM      4  N   UNL     1      32.309 -22.439 -17.202  0.00  0.00    -0.288 N 
ATOM      5  C   UNL     1      36.779 -22.318 -15.402  0.00  0.00    +0.134 C 
ATOM      6  C   UNL     1      35.730 -22.094 -16.266  0.00  0.00    +0.194 C 
ATOM      7  C   UNL     1      37.879 -21.696 -16.003  0.00  0.00    +0.104 C 
ATOM      8  C   UNL     1      33.641 -22.089 -17.214  0.00  0.00    +0.186 C 
ATOM      9  C   UNL     1      35.436 -20.965 -18.381  0.00  0.00    +0.096 C 
ATOM     10  C   UNL     1      34.140 -21.292 -18.389  0.00  0.00    +0.066 C 
ATOM     11  H   UNL     1      31.877 -22.569 -18.077  0.00  0.00    +0.155 HD
ENDROOT
BRANCH   4  13
ATOM     12 CL   UNL     1      27.715 -21.929 -14.974  0.00  0.00    -0.082 Cl
ATOM     13  C   UNL     1      31.511 -22.628 -16.078  0.00  0.00    +0.051 C 
ATOM     14  C   UNL     1      30.163 -22.231 -16.080  0.00  0.00    +0.026 C 
ATOM     15  C   UNL     1      32.036 -23.220 -14.918  0.00  0.00    +0.015 C 
ATOM     16  C   UNL     1      29.364 -22.421 -14.953  0.00  0.00    +0.059 C 
ATOM     17  C   UNL     1      31.236 -23.409 -13.791  0.00  0.00    +0.002 C 
ATOM     18  C   UNL     1      29.900 -23.011 -13.808  0.00  0.00    +0.011 C 
ENDBRANCH   4  13
BRANCH   5  19
ATOM     19  C   UNL     1      36.674 -23.044 -14.173  0.00  0.00    -0.008 C 
ATOM     20  C   UNL     1      37.030 -24.394 -14.121  0.00  0.00    +0.011 C 
ATOM     21  C   UNL     1      36.213 -22.405 -13.019  0.00  0.00    -0.003 C 
ATOM     22  C   UNL     1      36.927 -25.101 -12.922  0.00  0.00    +0.041 C 
ATOM     23  C   UNL     1      36.110 -23.112 -11.820  0.00  0.00    +0.001 C 
ATOM     24  C   UNL     1      36.466 -24.459 -11.772  0.00  0.00    +0.014 C 
BRANCH  22  25
ATOM     25  N   UNL     1      37.287 -26.464 -12.873  0.00  0.00    -0.357 N 
ATOM     26  H   UNL     1      37.685 -26.896 -13.663  0.00  0.00    +0.142 HD
ATOM     27  H   UNL     1      37.138 -26.982 -12.050  0.00  0.00    +0.142 HD
ENDBRANCH  22  25
ENDBRANCH   5  19
TORSDOF 3
ENDMDL
MODEL 6
REMARK VINA RESULT:     -10.3      1.141      1.533
REMARK  Name = 6419789
REMARK  3 active torsions:
REMARK  status: ('A' for Active; 'I' for Inactive)
REMARK    1  A    between atoms: N_4  and  C_13
REMARK    2  A    between atoms: C_5  and  C_19
REMARK    3  A    between atoms: C_22  and  N_25
REMARK                            x       y       z     vdW  Elec       q    Type
REMARK                         _______ _______ _______ _____ _____    ______ ____
ROOT
ATOM      1  N   UNL     1      36.358 -22.879 -13.410  0.00  0.00    -0.164 N 
ATOM      2  N   UNL     1      35.610 -22.411 -15.647  0.00  0.00    -0.374 NA
ATOM      3  N   UNL     1      35.872 -23.276 -12.206  0.00  0.00    -0.174 NA
ATOM      4  N   UNL     1      37.153 -21.738 -17.253  0.00  0.00    -0.288 N 
ATOM      5  C   UNL     1      34.183 -23.151 -13.730  0.00  0.00    +0.134 C 
ATOM      6  C   UNL     1      35.351 -22.792 -14.365  0.00  0.00    +0.194 C 
ATOM      7  C   UNL     1      34.564 -23.436 -12.413  0.00  0.00    +0.104 C 
ATOM      8  C   UNL     1      36.852 -22.124 -15.966  0.00  0.00    +0.186 C 
ATOM      9  C   UNL     1      37.673 -22.576 -13.737  0.00  0.00    +0.096 C 
ATOM     10  C   UNL     1      37.987 -22.197 -14.979  0.00  0.00    +0.066 C 
ATOM     11  H   UNL     1      38.052 -21.963 -17.585  0.00  0.00    +0.155 HD
ENDROOT
BRANCH   4  13
ATOM     12 CL   UNL     1      32.376 -20.757 -18.851  0.00  0.00    -0.082 Cl
ATOM     13  C   UNL     1      36.314 -21.061 -18.134  0.00  0.00    +0.051 C 
ATOM     14  C   UNL     1      34.920 -21.225 -18.067  0.00  0.00    +0.026 C 
ATOM     15  C   UNL     1      36.845 -20.200 -19.108  0.00  0.00    +0.015 C 
ATOM     16  C   UNL     1      34.081 -20.545 -18.949  0.00  0.00    +0.059 C 
ATOM     17  C   UNL     1      36.005 -19.521 -19.991  0.00  0.00    +0.002 C 
ATOM     18  C   UNL     1      34.623 -19.693 -19.912  0.00  0.00    +0.011 C 
ENDBRANCH   4  13
BRANCH   5  19
ATOM     19  C   UNL     1      32.899 -23.195 -14.360  0.00  0.00    -0.008 C 
ATOM     20  C   UNL     1      31.918 -24.075 -13.897  0.00  0.00    +0.011 C 
ATOM     21  C   UNL     1      32.621 -22.357 -15.443  0.00  0.00    -0.003 C 
ATOM     22  C   UNL     1      30.667 -24.118 -14.512  0.00  0.00    +0.041 C 
ATOM     23  C   UNL     1      31.369 -22.399 -16.058  0.00  0.00    +0.001 C 
ATOM     24  C   UNL     1      30.393 -23.280 -15.594  0.00  0.00    +0.014 C 
BRANCH  22  25
ATOM     25  N   UNL     1      29.679 -25.009 -14.043  0.00  0.00    -0.357 N 
ATOM     26  H   UNL     1      29.248 -24.850 -13.172  0.00  0.00    +0.142 HD
ATOM     27  H   UNL     1      29.423 -25.789 -14.585  0.00  0.00    +0.142 HD
ENDBRANCH  22  25
ENDBRANCH   5  19
TORSDOF 3
ENDMDL
MODEL 7
REMARK VINA RESULT:     -10.2      1.610      4.528
REMARK  Name = 6419789
REMARK  3 active torsions:
REMARK  status: ('A' for Active; 'I' for Inactive)
REMARK    1  A    between atoms: N_4  and  C_13
REMARK    2  A    between atoms: C_5  and  C_19
REMARK    3  A    between atoms: C_22  and  N_25
REMARK                            x       y       z     vdW  Elec       q    Type
REMARK                         _______ _______ _______ _____ _____    ______ ____
ROOT
ATOM      1  N   UNL     1      31.507 -23.834 -14.474  0.00  0.00    -0.164 N 
ATOM      2  N   UNL     1      32.985 -22.387 -15.700  0.00  0.00    -0.374 NA
ATOM      3  N   UNL     1      31.507 -24.655 -13.392  0.00  0.00    -0.174 NA
ATOM      4  N   UNL     1      32.187 -21.248 -17.565  0.00  0.00    -0.288 N 
ATOM      5  C   UNL     1      33.567 -23.725 -13.668  0.00  0.00    +0.134 C 
ATOM      6  C   UNL     1      32.754 -23.249 -14.671  0.00  0.00    +0.194 C 
ATOM      7  C   UNL     1      32.750 -24.579 -12.918  0.00  0.00    +0.104 C 
ATOM      8  C   UNL     1      31.990 -22.117 -16.515  0.00  0.00    +0.186 C 
ATOM      9  C   UNL     1      30.450 -23.556 -15.330  0.00  0.00    +0.096 C 
ATOM     10  C   UNL     1      30.619 -22.718 -16.357  0.00  0.00    +0.066 C 
ATOM     11  H   UNL     1      31.407 -20.725 -17.860  0.00  0.00    +0.155 HD
ENDROOT
BRANCH   4  13
ATOM     12 CL   UNL     1      34.632 -18.962 -21.454  0.00  0.00    -0.082 Cl
ATOM     13  C   UNL     1      33.377 -21.034 -18.253  0.00  0.00    +0.051 C 
ATOM     14  C   UNL     1      33.413 -20.201 -19.384  0.00  0.00    +0.026 C 
ATOM     15  C   UNL     1      34.568 -21.647 -17.830  0.00  0.00    +0.015 C 
ATOM     16  C   UNL     1      34.608 -19.986 -20.072  0.00  0.00    +0.059 C 
ATOM     17  C   UNL     1      35.762 -21.433 -18.519  0.00  0.00    +0.002 C 
ATOM     18  C   UNL     1      35.783 -20.603 -19.640  0.00  0.00    +0.011 C 
ENDBRANCH   4  13
BRANCH   5  19
ATOM     19  C   UNL     1      34.944 -23.368 -13.504  0.00  0.00    -0.008 C 
ATOM     20  C   UNL     1      35.461 -23.128 -12.229  0.00  0.00    +0.011 C 
ATOM     21  C   UNL     1      35.777 -23.259 -14.620  0.00  0.00    -0.003 C 
ATOM     22  C   UNL     1      36.803 -22.780 -12.070  0.00  0.00    +0.041 C 
ATOM     23  C   UNL     1      37.119 -22.910 -14.462  0.00  0.00    +0.001 C 
ATOM     24  C   UNL     1      37.631 -22.671 -13.187  0.00  0.00    +0.014 C 
BRANCH  22  25
ATOM     25  N   UNL     1      37.321 -22.537 -10.781  0.00  0.00    -0.357 N 
ATOM     26  H   UNL     1      37.711 -23.276 -10.261  0.00  0.00    +0.142 HD
ATOM     27  H   UNL     1      37.292 -21.629 -10.402  0.00  0.00    +0.142 HD
ENDBRANCH  22  25
ENDBRANCH   5  19
TORSDOF 3
ENDMDL
MODEL 8
REMARK VINA RESULT:     -10.2     10.032     14.177
REMARK  Name = 6419789
REMARK  3 active torsions:
REMARK  status: ('A' for Active; 'I' for Inactive)
REMARK    1  A    between atoms: N_4  and  C_13
REMARK    2  A    between atoms: C_5  and  C_19
REMARK    3  A    between atoms: C_22  and  N_25
REMARK                            x       y       z     vdW  Elec       q    Type
REMARK                         _______ _______ _______ _____ _____    ______ ____
ROOT
ATOM      1  N   UNL     1      32.240  -8.661 -21.079  0.00  0.00    -0.164 N 
ATOM      2  N   UNL     1      32.912 -10.847 -21.821  0.00  0.00    -0.374 NA
ATOM      3  N   UNL     1      32.337  -7.356 -21.444  0.00  0.00    -0.174 NA
ATOM      4  N   UNL     1      32.319 -12.715 -20.567  0.00  0.00    -0.288 N 
ATOM      5  C   UNL     1      33.404  -8.676 -22.963  0.00  0.00    +0.134 C 
ATOM      6  C   UNL     1      32.882  -9.495 -21.988  0.00  0.00    +0.194 C 
ATOM      7  C   UNL     1      33.038  -7.381 -22.578  0.00  0.00    +0.104 C 
ATOM      8  C   UNL     1      32.312 -11.352 -20.767  0.00  0.00    +0.186 C 
ATOM      9  C   UNL     1      31.604  -9.185 -19.962  0.00  0.00    +0.096 C 
ATOM     10  C   UNL     1      31.600 -10.504 -19.747  0.00  0.00    +0.066 C 
ATOM     11  H   UNL     1      31.546 -13.097 -20.092  0.00  0.00    +0.155 HD
ENDROOT
BRANCH   4  13
ATOM     12 CL   UNL     1      34.879 -14.961 -24.405  0.00  0.00    -0.082 Cl
ATOM     13  C   UNL     1      33.309 -13.607 -20.968  0.00  0.00    +0.051 C 
ATOM     14  C   UNL     1      33.575 -13.820 -22.331  0.00  0.00    +0.026 C 
ATOM     15  C   UNL     1      34.064 -14.312 -20.017  0.00  0.00    +0.015 C 
ATOM     16  C   UNL     1      34.568 -14.713 -22.731  0.00  0.00    +0.059 C 
ATOM     17  C   UNL     1      35.057 -15.206 -20.418  0.00  0.00    +0.002 C 
ATOM     18  C   UNL     1      35.310 -15.407 -21.774  0.00  0.00    +0.011 C 
ENDBRANCH   4  13
BRANCH   5  19
ATOM     19  C   UNL     1      34.148  -9.138 -24.096  0.00  0.00    -0.008 C 
ATOM     20  C   UNL     1      33.722 -10.263 -24.806  0.00  0.00    +0.011 C 
ATOM     21  C   UNL     1      35.305  -8.464 -24.496  0.00  0.00    -0.003 C 
ATOM     22  C   UNL     1      34.448 -10.712 -25.909  0.00  0.00    +0.041 C 
ATOM     23  C   UNL     1      36.031  -8.914 -25.599  0.00  0.00    +0.001 C 
ATOM     24  C   UNL     1      35.603 -10.037 -26.305  0.00  0.00    +0.014 C 
BRANCH  22  25
ATOM     25  N   UNL     1      34.015 -11.849 -26.623  0.00  0.00    -0.357 N 
ATOM     26  H   UNL     1      33.646 -11.748 -27.530  0.00  0.00    +0.142 HD
ATOM     27  H   UNL     1      34.082 -12.741 -26.214  0.00  0.00    +0.142 HD
ENDBRANCH  22  25
ENDBRANCH   5  19
TORSDOF 3
ENDMDL
MODEL 9
REMARK VINA RESULT:      -9.9      2.984      5.949
REMARK  Name = 6419789
REMARK  3 active torsions:
REMARK  status: ('A' for Active; 'I' for Inactive)
REMARK    1  A    between atoms: N_4  and  C_13
REMARK    2  A    between atoms: C_5  and  C_19
REMARK    3  A    between atoms: C_22  and  N_25
REMARK                            x       y       z     vdW  Elec       q    Type
REMARK                         _______ _______ _______ _____ _____    ______ ____
ROOT
ATOM      1  N   UNL     1      36.255 -21.278 -17.393  0.00  0.00    -0.164 N 
ATOM      2  N   UNL     1      34.458 -22.425 -16.282  0.00  0.00    -0.374 NA
ATOM      3  N   UNL     1      37.576 -21.000 -17.235  0.00  0.00    -0.174 NA
ATOM      4  N   UNL     1      32.345 -22.457 -17.254  0.00  0.00    -0.288 N 
ATOM      5  C   UNL     1      36.819 -22.232 -15.475  0.00  0.00    +0.134 C 
ATOM      6  C   UNL     1      35.761 -22.031 -16.333  0.00  0.00    +0.194 C 
ATOM      7  C   UNL     1      37.900 -21.580 -16.079  0.00  0.00    +0.104 C 
ATOM      8  C   UNL     1      33.668 -22.074 -17.271  0.00  0.00    +0.186 C 
ATOM      9  C   UNL     1      35.428 -20.901 -18.442  0.00  0.00    +0.096 C 
ATOM     10  C   UNL     1      34.141 -21.260 -18.445  0.00  0.00    +0.066 C 
ATOM     11  H   UNL     1      31.912 -22.594 -18.127  0.00  0.00    +0.155 HD
ENDROOT
BRANCH   4  13
ATOM     12 CL   UNL     1      31.825 -24.634 -12.637  0.00  0.00    -0.082 Cl
ATOM     13  C   UNL     1      31.557 -22.669 -16.127  0.00  0.00    +0.051 C 
ATOM     14  C   UNL     1      32.025 -23.457 -15.062  0.00  0.00    +0.026 C 
ATOM     15  C   UNL     1      30.277 -22.100 -16.031  0.00  0.00    +0.015 C 
ATOM     16  C   UNL     1      31.234 -23.668 -13.932  0.00  0.00    +0.059 C 
ATOM     17  C   UNL     1      29.486 -22.313 -14.902  0.00  0.00    +0.002 C 
ATOM     18  C   UNL     1      29.964 -23.096 -13.852  0.00  0.00    +0.011 C 
ENDBRANCH   4  13
BRANCH   5  19
ATOM     19  C   UNL     1      36.738 -22.965 -14.248  0.00  0.00    -0.008 C 
ATOM     20  C   UNL     1      37.017 -22.336 -13.033  0.00  0.00    +0.011 C 
ATOM     21  C   UNL     1      36.379 -24.316 -14.261  0.00  0.00    -0.003 C 
ATOM     22  C   UNL     1      36.938 -23.051 -11.838  0.00  0.00    +0.041 C 
ATOM     23  C   UNL     1      36.300 -25.032 -13.067  0.00  0.00    +0.001 C 
ATOM     24  C   UNL     1      36.580 -24.400 -11.855  0.00  0.00    +0.014 C 
BRANCH  22  25
ATOM     25  N   UNL     1      37.221 -22.413 -10.613  0.00  0.00    -0.357 N 
ATOM     26  H   UNL     1      38.075 -21.937 -10.492  0.00  0.00    +0.142 HD
ATOM     27  H   UNL     1      36.566 -22.444  -9.879  0.00  0.00    +0.142 HD
ENDBRANCH  22  25
ENDBRANCH   5  19
TORSDOF 3
ENDMDL
