MODEL 1
REMARK VINA RESULT:     -12.3      0.000      0.000
REMARK  Name = 60195662
REMARK  7 active torsions:
REMARK  status: ('A' for Active; 'I' for Inactive)
REMARK    1  A    between atoms: N_2  and  C_14
REMARK    2  A    between atoms: N_2  and  C_23
REMARK    3  A    between atoms: C_3  and  C_5
REMARK    4  A    between atoms: C_14  and  C_17
REMARK    5  A    between atoms: C_23  and  C_24
REMARK    6  A    between atoms: C_27  and  C_31
REMARK    7  A    between atoms: C_31  and  O_32
REMARK                            x       y       z     vdW  Elec       q    Type
REMARK                         _______ _______ _______ _____ _____    ______ ____
ROOT
ATOM      1  O   UNL     1      33.609 -23.277 -17.001  0.00  0.00    -0.270 OA
ATOM      2  N   UNL     1      35.054 -22.679 -15.263  0.00  0.00    -0.270 N 
ATOM      3  C   UNL     1      34.544 -22.585 -16.572  0.00  0.00    +0.251 C 
ENDROOT
BRANCH   3   5
ATOM      4  N   UNL     1      37.089 -20.402 -18.213  0.00  0.00    -0.248 NA
ATOM      5  C   UNL     1      35.144 -21.640 -17.497  0.00  0.00    +0.072 C 
ATOM      6  C   UNL     1      34.405 -21.070 -18.523  0.00  0.00    +0.003 C 
ATOM      7  C   UNL     1      35.008 -20.161 -19.403  0.00  0.00    -0.004 C 
ATOM      8  C   UNL     1      36.470 -21.275 -17.385  0.00  0.00    +0.103 C 
ATOM      9  C   UNL     1      36.369 -19.851 -19.208  0.00  0.00    +0.060 C 
ATOM     10  C   UNL     1      34.287 -19.566 -20.454  0.00  0.00    +0.053 C 
ATOM     11  C   UNL     1      36.966 -18.946 -20.082  0.00  0.00    +0.071 C 
ATOM     12  C   UNL     1      34.910 -18.665 -21.313  0.00  0.00    -0.026 C 
ATOM     13  C   UNL     1      36.251 -18.355 -21.127  0.00  0.00    -0.024 C 
ENDBRANCH   3   5
BRANCH   2  14
ATOM     14  C   UNL     1      34.512 -23.617 -14.282  0.00  0.00    +0.099 C 
ATOM     15  C   UNL     1      35.000 -25.033 -14.583  0.00  0.00    +0.026 C 
BRANCH  14  17
ATOM     16  F   UNL     1      28.887 -23.282 -13.991  0.00  0.00    -0.204 F 
ATOM     17  C   UNL     1      33.004 -23.527 -14.203  0.00  0.00    -0.004 C 
ATOM     18  C   UNL     1      32.239 -24.691 -14.123  0.00  0.00    -0.000 C 
ATOM     19  C   UNL     1      32.378 -22.280 -14.211  0.00  0.00    -0.000 C 
ATOM     20  C   UNL     1      30.848 -24.608 -14.051  0.00  0.00    +0.029 C 
ATOM     21  C   UNL     1      30.987 -22.197 -14.139  0.00  0.00    +0.029 C 
ATOM     22  C   UNL     1      30.222 -23.361 -14.060  0.00  0.00    +0.140 C 
ENDBRANCH  14  17
ENDBRANCH   2  14
BRANCH   2  23
ATOM     23  C   UNL     1      36.155 -21.848 -14.799  0.00  0.00    +0.121 C 
BRANCH  23  24
ATOM     24  C   UNL     1      37.083 -22.599 -13.888  0.00  0.00    -0.002 C 
ATOM     25  C   UNL     1      38.045 -23.455 -14.425  0.00  0.00    +0.004 C 
ATOM     26  C   UNL     1      36.983 -22.441 -12.506  0.00  0.00    -0.003 C 
ATOM     27  C   UNL     1      38.907 -24.152 -13.578  0.00  0.00    +0.075 C 
ATOM     28  C   UNL     1      37.845 -23.138 -11.660  0.00  0.00    -0.000 C 
ATOM     29  C   UNL     1      38.807 -23.994 -12.196  0.00  0.00    +0.006 C 
BRANCH  27  31
ATOM     30  O   UNL     1      40.999 -24.692 -14.606  0.00  0.00    -0.245 OA
ATOM     31  C   UNL     1      39.911 -25.044 -14.137  0.00  0.00    +0.338 C 
BRANCH  31  32
ATOM     32  O   UNL     1      39.530 -26.350 -14.094  0.00  0.00    -0.477 OA
ATOM     33  H   UNL     1      39.699 -26.912 -14.825  0.00  0.00    +0.295 HD
ENDBRANCH  31  32
ENDBRANCH  27  31
ENDBRANCH  23  24
ENDBRANCH   2  23
TORSDOF 7
ENDMDL
MODEL 2
REMARK VINA RESULT:     -12.0      2.882      6.443
REMARK  Name = 60195662
REMARK  7 active torsions:
REMARK  status: ('A' for Active; 'I' for Inactive)
REMARK    1  A    between atoms: N_2  and  C_14
REMARK    2  A    between atoms: N_2  and  C_23
REMARK    3  A    between atoms: C_3  and  C_5
REMARK    4  A    between atoms: C_14  and  C_17
REMARK    5  A    between atoms: C_23  and  C_24
REMARK    6  A    between atoms: C_27  and  C_31
REMARK    7  A    between atoms: C_31  and  O_32
REMARK                            x       y       z     vdW  Elec       q    Type
REMARK                         _______ _______ _______ _____ _____    ______ ____
ROOT
ATOM      1  O   UNL     1      35.877 -23.900 -15.612  0.00  0.00    -0.270 OA
ATOM      2  N   UNL     1      34.133 -23.067 -14.298  0.00  0.00    -0.270 N 
ATOM      3  C   UNL     1      34.881 -23.173 -15.486  0.00  0.00    +0.251 C 
ENDROOT
BRANCH   3   5
ATOM      4  N   UNL     1      32.748 -21.618 -18.124  0.00  0.00    -0.248 NA
ATOM      5  C   UNL     1      34.490 -22.382 -16.639  0.00  0.00    +0.072 C 
ATOM      6  C   UNL     1      35.422 -21.649 -17.358  0.00  0.00    +0.003 C 
ATOM      7  C   UNL     1      35.020 -20.893 -18.467  0.00  0.00    -0.004 C 
ATOM      8  C   UNL     1      33.177 -22.334 -17.060  0.00  0.00    +0.103 C 
ATOM      9  C   UNL     1      33.654 -20.906 -18.820  0.00  0.00    +0.060 C 
ATOM     10  C   UNL     1      35.939 -20.138 -19.216  0.00  0.00    +0.053 C 
ATOM     11  C   UNL     1      33.256 -20.156 -19.922  0.00  0.00    +0.071 C 
ATOM     12  C   UNL     1      35.512 -19.396 -20.315  0.00  0.00    -0.026 C 
ATOM     13  C   UNL     1      34.168 -19.405 -20.668  0.00  0.00    -0.024 C 
ENDBRANCH   3   5
BRANCH   2  14
ATOM     14  C   UNL     1      34.475 -23.820 -13.092  0.00  0.00    +0.099 C 
ATOM     15  C   UNL     1      33.790 -23.202 -11.875  0.00  0.00    +0.026 C 
BRANCH  14  17
ATOM     16  F   UNL     1      40.062 -24.257 -12.441  0.00  0.00    -0.204 F 
ATOM     17  C   UNL     1      35.973 -23.937 -12.918  0.00  0.00    -0.004 C 
ATOM     18  C   UNL     1      36.608 -25.159 -13.139  0.00  0.00    -0.000 C 
ATOM     19  C   UNL     1      36.721 -22.822 -12.536  0.00  0.00    -0.000 C 
ATOM     20  C   UNL     1      37.989 -25.268 -12.978  0.00  0.00    +0.029 C 
ATOM     21  C   UNL     1      38.102 -22.930 -12.375  0.00  0.00    +0.029 C 
ATOM     22  C   UNL     1      38.736 -24.153 -12.596  0.00  0.00    +0.140 C 
ENDBRANCH  14  17
ENDBRANCH   2  14
BRANCH   2  23
ATOM     23  C   UNL     1      32.969 -22.200 -14.191  0.00  0.00    +0.121 C 
BRANCH  23  24
ATOM     24  C   UNL     1      31.688 -22.945 -14.441  0.00  0.00    -0.002 C 
ATOM     25  C   UNL     1      30.681 -22.360 -15.208  0.00  0.00    +0.004 C 
ATOM     26  C   UNL     1      31.507 -24.220 -13.907  0.00  0.00    -0.003 C 
ATOM     27  C   UNL     1      29.491 -23.052 -15.441  0.00  0.00    +0.075 C 
ATOM     28  C   UNL     1      30.319 -24.912 -14.140  0.00  0.00    -0.000 C 
ATOM     29  C   UNL     1      29.311 -24.328 -14.907  0.00  0.00    +0.006 C 
BRANCH  27  31
ATOM     30  O   UNL     1      28.137 -21.246 -16.233  0.00  0.00    -0.245 OA
ATOM     31  C   UNL     1      28.441 -22.443 -16.241  0.00  0.00    +0.338 C 
BRANCH  31  32
ATOM     32  O   UNL     1      27.799 -23.346 -17.032  0.00  0.00    -0.477 OA
ATOM     33  H   UNL     1      28.222 -24.150 -17.265  0.00  0.00    +0.295 HD
ENDBRANCH  31  32
ENDBRANCH  27  31
ENDBRANCH  23  24
ENDBRANCH   2  23
TORSDOF 7
ENDMDL
MODEL 3
REMARK VINA RESULT:     -12.0      1.738      2.282
REMARK  Name = 60195662
REMARK  7 active torsions:
REMARK  status: ('A' for Active; 'I' for Inactive)
REMARK    1  A    between atoms: N_2  and  C_14
REMARK    2  A    between atoms: N_2  and  C_23
REMARK    3  A    between atoms: C_3  and  C_5
REMARK    4  A    between atoms: C_14  and  C_17
REMARK    5  A    between atoms: C_23  and  C_24
REMARK    6  A    between atoms: C_27  and  C_31
REMARK    7  A    between atoms: C_31  and  O_32
REMARK                            x       y       z     vdW  Elec       q    Type
REMARK                         _______ _______ _______ _____ _____    ______ ____
ROOT
ATOM      1  O   UNL     1      33.222 -23.156 -17.228  0.00  0.00    -0.270 OA
ATOM      2  N   UNL     1      34.550 -22.605 -15.384  0.00  0.00    -0.270 N 
ATOM      3  C   UNL     1      34.148 -22.499 -16.730  0.00  0.00    +0.251 C 
ENDROOT
BRANCH   3   5
ATOM      4  N   UNL     1      36.912 -20.467 -18.202  0.00  0.00    -0.248 NA
ATOM      5  C   UNL     1      34.856 -21.585 -17.608  0.00  0.00    +0.072 C 
ATOM      6  C   UNL     1      34.212 -20.959 -18.665  0.00  0.00    +0.003 C 
ATOM      7  C   UNL     1      34.918 -20.081 -19.499  0.00  0.00    -0.004 C 
ATOM      8  C   UNL     1      36.194 -21.307 -17.421  0.00  0.00    +0.103 C 
ATOM      9  C   UNL     1      36.284 -19.861 -19.227  0.00  0.00    +0.060 C 
ATOM     10  C   UNL     1      34.295 -19.431 -20.579  0.00  0.00    +0.053 C 
ATOM     11  C   UNL     1      36.984 -18.988 -20.056  0.00  0.00    +0.071 C 
ATOM     12  C   UNL     1      35.020 -18.563 -21.391  0.00  0.00    -0.026 C 
ATOM     13  C   UNL     1      36.367 -18.342 -21.129  0.00  0.00    -0.024 C 
ENDBRANCH   3   5
BRANCH   2  14
ATOM     14  C   UNL     1      33.895 -23.513 -14.445  0.00  0.00    +0.099 C 
ATOM     15  C   UNL     1      34.378 -24.944 -14.675  0.00  0.00    +0.026 C 
BRANCH  14  17
ATOM     16  F   UNL     1      28.277 -23.057 -14.700  0.00  0.00    -0.204 F 
ATOM     17  C   UNL     1      32.388 -23.391 -14.514  0.00  0.00    -0.004 C 
ATOM     18  C   UNL     1      31.785 -22.137 -14.413  0.00  0.00    -0.000 C 
ATOM     19  C   UNL     1      31.602 -24.532 -14.678  0.00  0.00    -0.000 C 
ATOM     20  C   UNL     1      30.396 -22.024 -14.476  0.00  0.00    +0.029 C 
ATOM     21  C   UNL     1      30.214 -24.419 -14.741  0.00  0.00    +0.029 C 
ATOM     22  C   UNL     1      29.610 -23.166 -14.640  0.00  0.00    +0.140 C 
ENDBRANCH  14  17
ENDBRANCH   2  14
BRANCH   2  23
ATOM     23  C   UNL     1      35.644 -21.815 -14.839  0.00  0.00    +0.121 C 
BRANCH  23  24
ATOM     24  C   UNL     1      36.487 -22.608 -13.882  0.00  0.00    -0.002 C 
ATOM     25  C   UNL     1      36.070 -22.778 -12.562  0.00  0.00    +0.004 C 
ATOM     26  C   UNL     1      37.686 -23.176 -14.313  0.00  0.00    -0.003 C 
ATOM     27  C   UNL     1      36.853 -23.515 -11.673  0.00  0.00    +0.075 C 
ATOM     28  C   UNL     1      38.468 -23.913 -13.424  0.00  0.00    -0.000 C 
ATOM     29  C   UNL     1      38.051 -24.083 -12.104  0.00  0.00    +0.006 C 
BRANCH  27  31
ATOM     30  O   UNL     1      36.762 -22.991  -9.340  0.00  0.00    -0.245 OA
ATOM     31  C   UNL     1      36.418 -23.693 -10.297  0.00  0.00    +0.338 C 
BRANCH  31  32
ATOM     32  O   UNL     1      35.564 -24.744 -10.152  0.00  0.00    -0.477 OA
ATOM     33  H   UNL     1      35.860 -25.616 -10.327  0.00  0.00    +0.295 HD
ENDBRANCH  31  32
ENDBRANCH  27  31
ENDBRANCH  23  24
ENDBRANCH   2  23
TORSDOF 7
ENDMDL
MODEL 4
REMARK VINA RESULT:     -11.5      2.849      6.119
REMARK  Name = 60195662
REMARK  7 active torsions:
REMARK  status: ('A' for Active; 'I' for Inactive)
REMARK    1  A    between atoms: N_2  and  C_14
REMARK    2  A    between atoms: N_2  and  C_23
REMARK    3  A    between atoms: C_3  and  C_5
REMARK    4  A    between atoms: C_14  and  C_17
REMARK    5  A    between atoms: C_23  and  C_24
REMARK    6  A    between atoms: C_27  and  C_31
REMARK    7  A    between atoms: C_31  and  O_32
REMARK                            x       y       z     vdW  Elec       q    Type
REMARK                         _______ _______ _______ _____ _____    ______ ____
ROOT
ATOM      1  O   UNL     1      37.309 -21.704 -14.821  0.00  0.00    -0.270 OA
ATOM      2  N   UNL     1      35.502 -23.179 -14.992  0.00  0.00    -0.270 N 
ATOM      3  C   UNL     1      36.324 -22.127 -15.444  0.00  0.00    +0.251 C 
ENDROOT
BRANCH   3   5
ATOM      4  N   UNL     1      36.766 -20.262 -18.647  0.00  0.00    -0.248 NA
ATOM      5  C   UNL     1      36.008 -21.476 -16.703  0.00  0.00    +0.072 C 
ATOM      6  C   UNL     1      34.707 -21.426 -17.181  0.00  0.00    +0.003 C 
ATOM      7  C   UNL     1      34.428 -20.792 -18.399  0.00  0.00    -0.004 C 
ATOM      8  C   UNL     1      36.992 -20.884 -17.466  0.00  0.00    +0.103 C 
ATOM      9  C   UNL     1      35.502 -20.216 -19.108  0.00  0.00    +0.060 C 
ATOM     10  C   UNL     1      33.121 -20.725 -18.911  0.00  0.00    +0.053 C 
ATOM     11  C   UNL     1      35.224 -19.585 -20.318  0.00  0.00    +0.071 C 
ATOM     12  C   UNL     1      32.872 -20.088 -20.124  0.00  0.00    -0.026 C 
ATOM     13  C   UNL     1      33.925 -19.518 -20.829  0.00  0.00    -0.024 C 
ENDBRANCH   3   5
BRANCH   2  14
ATOM     14  C   UNL     1      35.747 -23.871 -13.729  0.00  0.00    +0.099 C 
ATOM     15  C   UNL     1      35.445 -22.944 -12.554  0.00  0.00    +0.026 C 
BRANCH  14  17
ATOM     16  F   UNL     1      40.969 -25.999 -13.516  0.00  0.00    -0.204 F 
ATOM     17  C   UNL     1      37.148 -24.441 -13.672  0.00  0.00    -0.004 C 
ATOM     18  C   UNL     1      37.512 -25.484 -14.525  0.00  0.00    -0.000 C 
ATOM     19  C   UNL     1      38.075 -23.925 -12.766  0.00  0.00    -0.000 C 
ATOM     20  C   UNL     1      38.802 -26.010 -14.473  0.00  0.00    +0.029 C 
ATOM     21  C   UNL     1      39.366 -24.452 -12.714  0.00  0.00    +0.029 C 
ATOM     22  C   UNL     1      39.730 -25.494 -13.567  0.00  0.00    +0.140 C 
ENDBRANCH  14  17
ENDBRANCH   2  14
BRANCH   2  23
ATOM     23  C   UNL     1      34.353 -23.645 -15.755  0.00  0.00    +0.121 C 
BRANCH  23  24
ATOM     24  C   UNL     1      33.080 -23.558 -14.963  0.00  0.00    -0.002 C 
ATOM     25  C   UNL     1      32.009 -22.807 -15.447  0.00  0.00    +0.004 C 
ATOM     26  C   UNL     1      32.968 -24.229 -13.745  0.00  0.00    -0.003 C 
ATOM     27  C   UNL     1      30.825 -22.727 -14.711  0.00  0.00    +0.075 C 
ATOM     28  C   UNL     1      31.785 -24.148 -13.011  0.00  0.00    -0.000 C 
ATOM     29  C   UNL     1      30.713 -23.398 -13.494  0.00  0.00    +0.006 C 
BRANCH  27  31
ATOM     30  O   UNL     1      28.888 -21.336 -14.520  0.00  0.00    -0.245 OA
ATOM     31  C   UNL     1      29.708 -21.945 -15.216  0.00  0.00    +0.338 C 
BRANCH  31  32
ATOM     32  O   UNL     1      29.644 -21.944 -16.575  0.00  0.00    -0.477 OA
ATOM     33  H   UNL     1      28.839 -22.157 -17.007  0.00  0.00    +0.295 HD
ENDBRANCH  31  32
ENDBRANCH  27  31
ENDBRANCH  23  24
ENDBRANCH   2  23
TORSDOF 7
ENDMDL
MODEL 5
REMARK VINA RESULT:     -11.1      3.735      7.111
REMARK  Name = 60195662
REMARK  7 active torsions:
REMARK  status: ('A' for Active; 'I' for Inactive)
REMARK    1  A    between atoms: N_2  and  C_14
REMARK    2  A    between atoms: N_2  and  C_23
REMARK    3  A    between atoms: C_3  and  C_5
REMARK    4  A    between atoms: C_14  and  C_17
REMARK    5  A    between atoms: C_23  and  C_24
REMARK    6  A    between atoms: C_27  and  C_31
REMARK    7  A    between atoms: C_31  and  O_32
REMARK                            x       y       z     vdW  Elec       q    Type
REMARK                         _______ _______ _______ _____ _____    ______ ____
ROOT
ATOM      1  O   UNL     1      34.211 -22.881 -11.034  0.00  0.00    -0.270 OA
ATOM      2  N   UNL     1      35.617 -23.765 -12.680  0.00  0.00    -0.270 N 
ATOM      3  C   UNL     1      34.367 -23.377 -12.160  0.00  0.00    +0.251 C 
ENDROOT
BRANCH   3   5
ATOM      4  N   UNL     1      31.657 -25.090 -14.071  0.00  0.00    -0.248 NA
ATOM      5  C   UNL     1      33.176 -23.574 -12.966  0.00  0.00    +0.072 C 
ATOM      6  C   UNL     1      32.418 -22.498 -13.405  0.00  0.00    +0.003 C 
ATOM      7  C   UNL     1      31.272 -22.714 -14.182  0.00  0.00    -0.004 C 
ATOM      8  C   UNL     1      32.756 -24.838 -13.324  0.00  0.00    +0.103 C 
ATOM      9  C   UNL     1      30.924 -24.044 -14.496  0.00  0.00    +0.060 C 
ATOM     10  C   UNL     1      30.483 -21.646 -14.643  0.00  0.00    +0.053 C 
ATOM     11  C   UNL     1      29.786 -24.258 -15.269  0.00  0.00    +0.071 C 
ATOM     12  C   UNL     1      29.349 -21.889 -15.414  0.00  0.00    -0.026 C 
ATOM     13  C   UNL     1      29.000 -23.197 -15.727  0.00  0.00    -0.024 C 
ENDBRANCH   3   5
BRANCH   2  14
ATOM     14  C   UNL     1      36.857 -23.612 -11.921  0.00  0.00    +0.099 C 
ATOM     15  C   UNL     1      37.160 -22.132 -11.703  0.00  0.00    +0.026 C 
BRANCH  14  17
ATOM     16  F   UNL     1      41.133 -26.358 -14.376  0.00  0.00    -0.204 F 
ATOM     17  C   UNL     1      38.004 -24.348 -12.580  0.00  0.00    -0.004 C 
ATOM     18  C   UNL     1      37.818 -25.646 -13.057  0.00  0.00    -0.000 C 
ATOM     19  C   UNL     1      39.248 -23.729 -12.710  0.00  0.00    -0.000 C 
ATOM     20  C   UNL     1      38.874 -26.325 -13.664  0.00  0.00    +0.029 C 
ATOM     21  C   UNL     1      40.304 -24.408 -13.317  0.00  0.00    +0.029 C 
ATOM     22  C   UNL     1      40.118 -25.706 -13.794  0.00  0.00    +0.140 C 
ENDBRANCH  14  17
ENDBRANCH   2  14
BRANCH   2  23
ATOM     23  C   UNL     1      35.757 -24.345 -14.007  0.00  0.00    +0.121 C 
BRANCH  23  24
ATOM     24  C   UNL     1      35.756 -23.296 -15.082  0.00  0.00    -0.002 C 
ATOM     25  C   UNL     1      34.654 -23.165 -15.927  0.00  0.00    +0.004 C 
ATOM     26  C   UNL     1      36.856 -22.452 -15.234  0.00  0.00    -0.003 C 
ATOM     27  C   UNL     1      34.653 -22.190 -16.925  0.00  0.00    +0.075 C 
ATOM     28  C   UNL     1      36.854 -21.477 -16.232  0.00  0.00    -0.000 C 
ATOM     29  C   UNL     1      35.752 -21.346 -17.077  0.00  0.00    +0.006 C 
BRANCH  27  31
ATOM     30  O   UNL     1      32.351 -21.796 -17.443  0.00  0.00    -0.245 OA
ATOM     31  C   UNL     1      33.504 -22.053 -17.805  0.00  0.00    +0.338 C 
BRANCH  31  32
ATOM     32  O   UNL     1      33.825 -22.239 -19.115  0.00  0.00    -0.477 OA
ATOM     33  H   UNL     1      34.701 -22.472 -19.354  0.00  0.00    +0.295 HD
ENDBRANCH  31  32
ENDBRANCH  27  31
ENDBRANCH  23  24
ENDBRANCH   2  23
TORSDOF 7
ENDMDL
MODEL 6
REMARK VINA RESULT:     -11.1     10.957     15.514
REMARK  Name = 60195662
REMARK  7 active torsions:
REMARK  status: ('A' for Active; 'I' for Inactive)
REMARK    1  A    between atoms: N_2  and  C_14
REMARK    2  A    between atoms: N_2  and  C_23
REMARK    3  A    between atoms: C_3  and  C_5
REMARK    4  A    between atoms: C_14  and  C_17
REMARK    5  A    between atoms: C_23  and  C_24
REMARK    6  A    between atoms: C_27  and  C_31
REMARK    7  A    between atoms: C_31  and  O_32
REMARK                            x       y       z     vdW  Elec       q    Type
REMARK                         _______ _______ _______ _____ _____    ______ ____
ROOT
ATOM      1  O   UNL     1      30.686 -10.629 -21.770  0.00  0.00    -0.270 OA
ATOM      2  N   UNL     1      32.591  -9.315 -22.103  0.00  0.00    -0.270 N 
ATOM      3  C   UNL     1      31.920 -10.520 -21.818  0.00  0.00    +0.251 C 
ENDROOT
BRANCH   3   5
ATOM      4  N   UNL     1      33.710 -13.198 -19.932  0.00  0.00    -0.248 NA
ATOM      5  C   UNL     1      32.700 -11.715 -21.546  0.00  0.00    +0.072 C 
ATOM      6  C   UNL     1      33.180 -12.510 -22.576  0.00  0.00    +0.003 C 
ATOM      7  C   UNL     1      33.930 -13.659 -22.287  0.00  0.00    -0.004 C 
ATOM      8  C   UNL     1      32.991 -12.098 -20.253  0.00  0.00    +0.103 C 
ATOM      9  C   UNL     1      34.175 -13.969 -20.934  0.00  0.00    +0.060 C 
ATOM     10  C   UNL     1      34.430 -14.486 -23.307  0.00  0.00    +0.053 C 
ATOM     11  C   UNL     1      34.921 -15.109 -20.648  0.00  0.00    +0.071 C 
ATOM     12  C   UNL     1      35.173 -15.621 -22.993  0.00  0.00    -0.026 C 
ATOM     13  C   UNL     1      35.418 -15.933 -21.661  0.00  0.00    -0.024 C 
ENDBRANCH   3   5
BRANCH   2  14
ATOM     14  C   UNL     1      31.875  -8.070 -22.372  0.00  0.00    +0.099 C 
ATOM     15  C   UNL     1      32.272  -7.520 -23.740  0.00  0.00    +0.026 C 
BRANCH  14  17
ATOM     16  F   UNL     1      32.630  -4.316 -18.227  0.00  0.00    -0.204 F 
ATOM     17  C   UNL     1      32.078  -7.063 -21.260  0.00  0.00    -0.004 C 
ATOM     18  C   UNL     1      32.235  -7.499 -19.944  0.00  0.00    -0.000 C 
ATOM     19  C   UNL     1      32.107  -5.698 -21.551  0.00  0.00    -0.000 C 
ATOM     20  C   UNL     1      32.422  -6.571 -18.920  0.00  0.00    +0.029 C 
ATOM     21  C   UNL     1      32.294  -4.771 -20.526  0.00  0.00    +0.029 C 
ATOM     22  C   UNL     1      32.451  -5.207 -19.211  0.00  0.00    +0.140 C 
ENDBRANCH  14  17
ENDBRANCH   2  14
BRANCH   2  23
ATOM     23  C   UNL     1      34.043  -9.230 -22.149  0.00  0.00    +0.121 C 
BRANCH  23  24
ATOM     24  C   UNL     1      34.571  -9.368 -23.549  0.00  0.00    -0.002 C 
ATOM     25  C   UNL     1      34.094 -10.386 -24.375  0.00  0.00    +0.004 C 
ATOM     26  C   UNL     1      35.535  -8.479 -24.022  0.00  0.00    -0.003 C 
ATOM     27  C   UNL     1      34.583 -10.514 -25.676  0.00  0.00    +0.075 C 
ATOM     28  C   UNL     1      36.023  -8.607 -25.323  0.00  0.00    -0.000 C 
ATOM     29  C   UNL     1      35.547  -9.624 -26.149  0.00  0.00    +0.006 C 
BRANCH  27  31
ATOM     30  O   UNL     1      34.784 -12.310 -27.243  0.00  0.00    -0.245 OA
ATOM     31  C   UNL     1      34.086 -11.574 -26.538  0.00  0.00    +0.338 C 
BRANCH  31  32
ATOM     32  O   UNL     1      32.730 -11.687 -26.497  0.00  0.00    -0.477 OA
ATOM     33  H   UNL     1      32.254 -11.349 -25.764  0.00  0.00    +0.295 HD
ENDBRANCH  31  32
ENDBRANCH  27  31
ENDBRANCH  23  24
ENDBRANCH   2  23
TORSDOF 7
ENDMDL
MODEL 7
REMARK VINA RESULT:     -10.8      2.622      6.464
REMARK  Name = 60195662
REMARK  7 active torsions:
REMARK  status: ('A' for Active; 'I' for Inactive)
REMARK    1  A    between atoms: N_2  and  C_14
REMARK    2  A    between atoms: N_2  and  C_23
REMARK    3  A    between atoms: C_3  and  C_5
REMARK    4  A    between atoms: C_14  and  C_17
REMARK    5  A    between atoms: C_23  and  C_24
REMARK    6  A    between atoms: C_27  and  C_31
REMARK    7  A    between atoms: C_31  and  O_32
REMARK                            x       y       z     vdW  Elec       q    Type
REMARK                         _______ _______ _______ _____ _____    ______ ____
ROOT
ATOM      1  O   UNL     1      34.479 -22.898 -11.944  0.00  0.00    -0.270 OA
ATOM      2  N   UNL     1      33.602 -23.084 -14.103  0.00  0.00    -0.270 N 
ATOM      3  C   UNL     1      34.574 -23.311 -13.109  0.00  0.00    +0.251 C 
ENDROOT
BRANCH   3   5
ATOM      4  N   UNL     1      36.781 -25.954 -14.549  0.00  0.00    -0.248 NA
ATOM      5  C   UNL     1      35.772 -24.056 -13.451  0.00  0.00    +0.072 C 
ATOM      6  C   UNL     1      37.026 -23.630 -13.038  0.00  0.00    +0.003 C 
ATOM      7  C   UNL     1      38.168 -24.367 -13.381  0.00  0.00    -0.004 C 
ATOM      8  C   UNL     1      35.704 -25.214 -14.197  0.00  0.00    +0.103 C 
ATOM      9  C   UNL     1      37.997 -25.538 -14.147  0.00  0.00    +0.060 C 
ATOM     10  C   UNL     1      39.452 -23.963 -12.979  0.00  0.00    +0.053 C 
ATOM     11  C   UNL     1      39.131 -26.270 -14.487  0.00  0.00    +0.071 C 
ATOM     12  C   UNL     1      40.570 -24.714 -13.333  0.00  0.00    -0.026 C 
ATOM     13  C   UNL     1      40.409 -25.869 -14.088  0.00  0.00    -0.024 C 
ENDBRANCH   3   5
BRANCH   2  14
ATOM     14  C   UNL     1      32.378 -22.330 -13.839  0.00  0.00    +0.099 C 
ATOM     15  C   UNL     1      32.116 -22.264 -12.336  0.00  0.00    +0.026 C 
BRANCH  14  17
ATOM     16  F   UNL     1      27.995 -24.428 -16.707  0.00  0.00    -0.204 F 
ATOM     17  C   UNL     1      31.203 -22.893 -14.609  0.00  0.00    -0.004 C 
ATOM     18  C   UNL     1      30.559 -22.112 -15.568  0.00  0.00    -0.000 C 
ATOM     19  C   UNL     1      30.763 -24.193 -14.358  0.00  0.00    -0.000 C 
ATOM     20  C   UNL     1      29.476 -22.630 -16.278  0.00  0.00    +0.029 C 
ATOM     21  C   UNL     1      29.679 -24.711 -15.067  0.00  0.00    +0.029 C 
ATOM     22  C   UNL     1      29.035 -23.930 -16.027  0.00  0.00    +0.140 C 
ENDBRANCH  14  17
ENDBRANCH   2  14
BRANCH   2  23
ATOM     23  C   UNL     1      33.752 -23.586 -15.461  0.00  0.00    +0.121 C 
BRANCH  23  24
ATOM     24  C   UNL     1      34.467 -22.606 -16.347  0.00  0.00    -0.002 C 
ATOM     25  C   UNL     1      33.821 -22.079 -17.465  0.00  0.00    +0.004 C 
ATOM     26  C   UNL     1      35.774 -22.223 -16.051  0.00  0.00    -0.003 C 
ATOM     27  C   UNL     1      34.484 -21.167 -18.288  0.00  0.00    +0.075 C 
ATOM     28  C   UNL     1      36.437 -21.311 -16.873  0.00  0.00    -0.000 C 
ATOM     29  C   UNL     1      35.792 -20.784 -17.992  0.00  0.00    +0.006 C 
BRANCH  27  31
ATOM     30  O   UNL     1      32.678 -20.923 -19.837  0.00  0.00    -0.245 OA
ATOM     31  C   UNL     1      33.811 -20.616 -19.453  0.00  0.00    +0.338 C 
BRANCH  31  32
ATOM     32  O   UNL     1      34.572 -19.697 -20.108  0.00  0.00    -0.477 OA
ATOM     33  H   UNL     1      35.377 -19.400 -19.731  0.00  0.00    +0.295 HD
ENDBRANCH  31  32
ENDBRANCH  27  31
ENDBRANCH  23  24
ENDBRANCH   2  23
TORSDOF 7
ENDMDL
MODEL 8
REMARK VINA RESULT:     -10.7      2.606      5.933
REMARK  Name = 60195662
REMARK  7 active torsions:
REMARK  status: ('A' for Active; 'I' for Inactive)
REMARK    1  A    between atoms: N_2  and  C_14
REMARK    2  A    between atoms: N_2  and  C_23
REMARK    3  A    between atoms: C_3  and  C_5
REMARK    4  A    between atoms: C_14  and  C_17
REMARK    5  A    between atoms: C_23  and  C_24
REMARK    6  A    between atoms: C_27  and  C_31
REMARK    7  A    between atoms: C_31  and  O_32
REMARK                            x       y       z     vdW  Elec       q    Type
REMARK                         _______ _______ _______ _____ _____    ______ ____
ROOT
ATOM      1  O   UNL     1      34.297 -22.845 -11.707  0.00  0.00    -0.270 OA
ATOM      2  N   UNL     1      33.301 -23.168 -13.797  0.00  0.00    -0.270 N 
ATOM      3  C   UNL     1      34.341 -23.305 -12.857  0.00  0.00    +0.251 C 
ENDROOT
BRANCH   3   5
ATOM      4  N   UNL     1      36.585 -25.841 -14.427  0.00  0.00    -0.248 NA
ATOM      5  C   UNL     1      35.550 -24.011 -13.241  0.00  0.00    +0.072 C 
ATOM      6  C   UNL     1      36.800 -23.577 -12.824  0.00  0.00    +0.003 C 
ATOM      7  C   UNL     1      37.953 -24.275 -13.209  0.00  0.00    -0.004 C 
ATOM      8  C   UNL     1      35.498 -25.139 -14.034  0.00  0.00    +0.103 C 
ATOM      9  C   UNL     1      37.797 -25.417 -14.021  0.00  0.00    +0.060 C 
ATOM     10  C   UNL     1      39.233 -23.860 -12.803  0.00  0.00    +0.053 C 
ATOM     11  C   UNL     1      38.943 -26.111 -14.401  0.00  0.00    +0.071 C 
ATOM     12  C   UNL     1      40.362 -24.573 -13.199  0.00  0.00    -0.026 C 
ATOM     13  C   UNL     1      40.216 -25.700 -13.999  0.00  0.00    -0.024 C 
ENDBRANCH   3   5
BRANCH   2  14
ATOM     14  C   UNL     1      32.061 -22.459 -13.489  0.00  0.00    +0.099 C 
ATOM     15  C   UNL     1      31.735 -22.591 -12.003  0.00  0.00    +0.026 C 
BRANCH  14  17
ATOM     16  F   UNL     1      27.823 -24.176 -16.795  0.00  0.00    -0.204 F 
ATOM     17  C   UNL     1      30.924 -22.919 -14.375  0.00  0.00    -0.004 C 
ATOM     18  C   UNL     1      30.370 -24.187 -14.198  0.00  0.00    -0.000 C 
ATOM     19  C   UNL     1      30.430 -22.076 -15.371  0.00  0.00    -0.000 C 
ATOM     20  C   UNL     1      29.322 -24.612 -15.015  0.00  0.00    +0.029 C 
ATOM     21  C   UNL     1      29.382 -22.500 -16.188  0.00  0.00    +0.029 C 
ATOM     22  C   UNL     1      28.829 -23.768 -16.011  0.00  0.00    +0.140 C 
ENDBRANCH  14  17
ENDBRANCH   2  14
BRANCH   2  23
ATOM     23  C   UNL     1      33.392 -23.725 -15.139  0.00  0.00    +0.121 C 
BRANCH  23  24
ATOM     24  C   UNL     1      34.115 -22.805 -16.081  0.00  0.00    -0.002 C 
ATOM     25  C   UNL     1      35.389 -22.340 -15.758  0.00  0.00    +0.004 C 
ATOM     26  C   UNL     1      33.514 -22.419 -17.279  0.00  0.00    -0.003 C 
ATOM     27  C   UNL     1      36.062 -21.486 -16.634  0.00  0.00    +0.075 C 
ATOM     28  C   UNL     1      34.187 -21.567 -18.154  0.00  0.00    -0.000 C 
ATOM     29  C   UNL     1      35.461 -21.100 -17.831  0.00  0.00    +0.006 C 
BRANCH  27  31
ATOM     30  O   UNL     1      38.242 -21.628 -15.659  0.00  0.00    -0.245 OA
ATOM     31  C   UNL     1      37.391 -21.001 -16.298  0.00  0.00    +0.338 C 
BRANCH  31  32
ATOM     32  O   UNL     1      37.622 -19.745 -16.770  0.00  0.00    -0.477 OA
ATOM     33  H   UNL     1      37.300 -19.495 -17.614  0.00  0.00    +0.295 HD
ENDBRANCH  31  32
ENDBRANCH  27  31
ENDBRANCH  23  24
ENDBRANCH   2  23
TORSDOF 7
ENDMDL
MODEL 9
REMARK VINA RESULT:     -10.4     11.825     15.639
REMARK  Name = 60195662
REMARK  7 active torsions:
REMARK  status: ('A' for Active; 'I' for Inactive)
REMARK    1  A    between atoms: N_2  and  C_14
REMARK    2  A    between atoms: N_2  and  C_23
REMARK    3  A    between atoms: C_3  and  C_5
REMARK    4  A    between atoms: C_14  and  C_17
REMARK    5  A    between atoms: C_23  and  C_24
REMARK    6  A    between atoms: C_27  and  C_31
REMARK    7  A    between atoms: C_31  and  O_32
REMARK                            x       y       z     vdW  Elec       q    Type
REMARK                         _______ _______ _______ _____ _____    ______ ____
ROOT
ATOM      1  O   UNL     1      35.742  -8.635 -23.238  0.00  0.00    -0.270 OA
ATOM      2  N   UNL     1      33.541  -8.448 -22.470  0.00  0.00    -0.270 N 
ATOM      3  C   UNL     1      34.599  -9.103 -23.131  0.00  0.00    +0.251 C 
ENDROOT
BRANCH   3   5
ATOM      4  N   UNL     1      33.623 -11.669 -25.659  0.00  0.00    -0.248 NA
ATOM      5  C   UNL     1      34.355 -10.396 -23.743  0.00  0.00    +0.072 C 
ATOM      6  C   UNL     1      34.598 -11.575 -23.055  0.00  0.00    +0.003 C 
ATOM      7  C   UNL     1      34.354 -12.812 -23.668  0.00  0.00    -0.004 C 
ATOM      8  C   UNL     1      33.871 -10.497 -25.031  0.00  0.00    +0.103 C 
ATOM      9  C   UNL     1      33.860 -12.812 -24.989  0.00  0.00    +0.060 C 
ATOM     10  C   UNL     1      34.591 -14.025 -22.997  0.00  0.00    +0.053 C 
ATOM     11  C   UNL     1      33.618 -14.041 -25.597  0.00  0.00    +0.071 C 
ATOM     12  C   UNL     1      34.340 -15.240 -23.630  0.00  0.00    -0.026 C 
ATOM     13  C   UNL     1      33.853 -15.247 -24.932  0.00  0.00    -0.024 C 
ENDBRANCH   3   5
BRANCH   2  14
ATOM     14  C   UNL     1      33.707  -7.138 -21.844  0.00  0.00    +0.099 C 
ATOM     15  C   UNL     1      33.249  -7.190 -20.388  0.00  0.00    +0.026 C 
BRANCH  14  17
ATOM     16  F   UNL     1      31.099  -3.093 -24.789  0.00  0.00    -0.204 F 
ATOM     17  C   UNL     1      33.006  -6.053 -22.634  0.00  0.00    -0.004 C 
ATOM     18  C   UNL     1      33.089  -6.041 -24.026  0.00  0.00    -0.000 C 
ATOM     19  C   UNL     1      32.279  -5.065 -21.969  0.00  0.00    -0.000 C 
ATOM     20  C   UNL     1      32.445  -5.041 -24.755  0.00  0.00    +0.029 C 
ATOM     21  C   UNL     1      31.634  -4.065 -22.698  0.00  0.00    +0.029 C 
ATOM     22  C   UNL     1      31.717  -4.053 -24.090  0.00  0.00    +0.140 C 
ENDBRANCH  14  17
ENDBRANCH   2  14
BRANCH   2  23
ATOM     23  C   UNL     1      32.212  -9.032 -22.367  0.00  0.00    +0.121 C 
BRANCH  23  24
ATOM     24  C   UNL     1      32.034  -9.804 -21.091  0.00  0.00    -0.002 C 
ATOM     25  C   UNL     1      32.380 -11.154 -21.039  0.00  0.00    +0.004 C 
ATOM     26  C   UNL     1      31.525  -9.170 -19.958  0.00  0.00    -0.003 C 
ATOM     27  C   UNL     1      32.216 -11.870 -19.853  0.00  0.00    +0.075 C 
ATOM     28  C   UNL     1      31.361  -9.886 -18.772  0.00  0.00    -0.000 C 
ATOM     29  C   UNL     1      31.707 -11.237 -18.720  0.00  0.00    +0.006 C 
BRANCH  27  31
ATOM     30  O   UNL     1      31.821 -14.199 -19.472  0.00  0.00    -0.245 OA
ATOM     31  C   UNL     1      32.577 -13.278 -19.798  0.00  0.00    +0.338 C 
BRANCH  31  32
ATOM     32  O   UNL     1      33.873 -13.498 -20.153  0.00  0.00    -0.477 OA
ATOM     33  H   UNL     1      34.500 -12.804 -20.089  0.00  0.00    +0.295 HD
ENDBRANCH  31  32
ENDBRANCH  27  31
ENDBRANCH  23  24
ENDBRANCH   2  23
TORSDOF 7
ENDMDL
