MODEL 1
REMARK VINA RESULT:     -12.4      0.000      0.000
REMARK  Name = 656913
REMARK  7 active torsions:
REMARK  status: ('A' for Active; 'I' for Inactive)
REMARK    1  A    between atoms: N_3  and  C_22
REMARK    2  A    between atoms: N_4  and  C_11
REMARK    3  A    between atoms: C_11  and  C_14
REMARK    4  A    between atoms: C_14  and  C_17
REMARK    5  A    between atoms: C_22  and  C_25
REMARK    6  A    between atoms: N_24  and  C_27
REMARK    7  A    between atoms: C_27  and  C_29
REMARK                            x       y       z     vdW  Elec       q    Type
REMARK                         _______ _______ _______ _____ _____    ______ ____
ROOT
ATOM      1 CL   UNL     1      29.955 -23.587 -15.724  0.00  0.00    -0.064 Cl
ATOM      2  O   UNL     1      34.692 -21.992 -15.198  0.00  0.00    -0.266 OA
ATOM      3  N   UNL     1      32.479 -22.718 -15.476  0.00  0.00    -0.233 N 
ATOM      4  N   UNL     1      34.973 -23.148 -12.782  0.00  0.00    -0.310 N 
ATOM      5  N   UNL     1      32.769 -23.927 -12.952  0.00  0.00    -0.223 NA
ATOM      6  C   UNL     1      33.779 -23.270 -13.447  0.00  0.00    +0.183 C 
ATOM      7  C   UNL     1      33.696 -22.590 -14.807  0.00  0.00    +0.285 C 
ATOM      8  C   UNL     1      31.454 -23.432 -14.889  0.00  0.00    +0.133 C 
ATOM      9  C   UNL     1      31.622 -23.995 -13.688  0.00  0.00    +0.127 C 
ATOM     10  H   UNL     1      35.703 -22.639 -13.204  0.00  0.00    +0.149 HD
ENDROOT
BRANCH   4  11
ATOM     11  C   UNL     1      35.193 -23.734 -11.497  0.00  0.00    +0.162 C 
BRANCH  11  14
ATOM     12  F   UNL     1      36.725 -23.827  -9.720  0.00  0.00    -0.196 F 
ATOM     13  F   UNL     1      36.826 -22.110 -11.042  0.00  0.00    -0.196 F 
ATOM     14  C   UNL     1      36.623 -23.460 -11.033  0.00  0.00    +0.317 C 
BRANCH  14  17
ATOM     15  O   UNL     1      39.246 -22.656 -11.293  0.00  0.00    -0.163 OA
ATOM     16  N   UNL     1      38.899 -23.691 -11.952  0.00  0.00    -0.128 N 
ATOM     17  C   UNL     1      37.620 -24.188 -11.902  0.00  0.00    +0.142 C 
ATOM     18  C   UNL     1      37.232 -25.310 -12.609  0.00  0.00    +0.022 C 
ATOM     19  C   UNL     1      39.824 -24.345 -12.742  0.00  0.00    +0.121 C 
ATOM     20  C   UNL     1      38.172 -25.960 -13.402  0.00  0.00    +0.003 C 
ATOM     21  C   UNL     1      39.474 -25.477 -13.470  0.00  0.00    +0.022 C 
ENDBRANCH  14  17
ENDBRANCH  11  14
ENDBRANCH   4  11
BRANCH   3  22
ATOM     22  C   UNL     1      32.323 -22.092 -16.785  0.00  0.00    +0.184 C 
BRANCH  22  25
ATOM     23  O   UNL     1      33.777 -23.589 -18.003  0.00  0.00    -0.273 OA
ATOM     24  N   UNL     1      34.265 -21.317 -17.963  0.00  0.00    -0.299 N 
ATOM     25  C   UNL     1      33.510 -22.440 -17.658  0.00  0.00    +0.243 C 
ATOM     26  H   UNL     1      33.955 -20.442 -17.633  0.00  0.00    +0.150 HD
BRANCH  24  27
ATOM     27  C   UNL     1      35.482 -21.366 -18.743  0.00  0.00    +0.119 C 
BRANCH  27  29
ATOM     28  F   UNL     1      33.352 -20.201 -20.190  0.00  0.00    -0.204 F 
ATOM     29  C   UNL     1      35.651 -20.144 -19.598  0.00  0.00    +0.025 C 
ATOM     30  C   UNL     1      34.559 -19.624 -20.283  0.00  0.00    +0.138 C 
ATOM     31  C   UNL     1      36.901 -19.545 -19.696  0.00  0.00    -0.000 C 
ATOM     32  C   UNL     1      34.719 -18.489 -21.076  0.00  0.00    +0.029 C 
ATOM     33  C   UNL     1      37.061 -18.409 -20.489  0.00  0.00    -0.000 C 
ATOM     34  C   UNL     1      35.971 -17.881 -21.179  0.00  0.00    +0.002 C 
ENDBRANCH  27  29
ENDBRANCH  24  27
ENDBRANCH  22  25
ENDBRANCH   3  22
TORSDOF 7
ENDMDL
MODEL 2
REMARK VINA RESULT:     -12.3      6.434      9.577
REMARK  Name = 656913
REMARK  7 active torsions:
REMARK  status: ('A' for Active; 'I' for Inactive)
REMARK    1  A    between atoms: N_3  and  C_22
REMARK    2  A    between atoms: N_4  and  C_11
REMARK    3  A    between atoms: C_11  and  C_14
REMARK    4  A    between atoms: C_14  and  C_17
REMARK    5  A    between atoms: C_22  and  C_25
REMARK    6  A    between atoms: N_24  and  C_27
REMARK    7  A    between atoms: C_27  and  C_29
REMARK                            x       y       z     vdW  Elec       q    Type
REMARK                         _______ _______ _______ _____ _____    ______ ____
ROOT
ATOM      1 CL   UNL     1      34.616 -14.978 -25.018  0.00  0.00    -0.064 Cl
ATOM      2  O   UNL     1      35.329 -15.639 -20.087  0.00  0.00    -0.266 OA
ATOM      3  N   UNL     1      34.995 -15.293 -22.382  0.00  0.00    -0.233 N 
ATOM      4  N   UNL     1      35.375 -18.323 -20.300  0.00  0.00    -0.310 N 
ATOM      5  N   UNL     1      35.043 -18.098 -22.609  0.00  0.00    -0.223 NA
ATOM      6  C   UNL     1      35.195 -17.566 -21.429  0.00  0.00    +0.183 C 
ATOM      7  C   UNL     1      35.180 -16.056 -21.229  0.00  0.00    +0.285 C 
ATOM      8  C   UNL     1      34.842 -15.928 -23.599  0.00  0.00    +0.133 C 
ATOM      9  C   UNL     1      34.869 -17.263 -23.674  0.00  0.00    +0.127 C 
ATOM     10  H   UNL     1      35.485 -17.867 -19.433  0.00  0.00    +0.149 HD
ENDROOT
BRANCH   4  11
ATOM     11  C   UNL     1      35.411 -19.751 -20.337  0.00  0.00    +0.162 C 
BRANCH  11  14
ATOM     12  F   UNL     1      36.935 -19.225 -18.630  0.00  0.00    -0.196 F 
ATOM     13  F   UNL     1      37.297 -21.031 -19.776  0.00  0.00    -0.196 F 
ATOM     14  C   UNL     1      36.301 -20.285 -19.215  0.00  0.00    +0.317 C 
BRANCH  14  17
ATOM     15  O   UNL     1      37.342 -21.196 -16.832  0.00  0.00    -0.163 OA
ATOM     16  N   UNL     1      36.120 -21.479 -17.066  0.00  0.00    -0.128 N 
ATOM     17  C   UNL     1      35.491 -21.079 -18.219  0.00  0.00    +0.142 C 
ATOM     18  C   UNL     1      34.168 -21.378 -18.483  0.00  0.00    +0.022 C 
ATOM     19  C   UNL     1      35.395 -22.207 -16.143  0.00  0.00    +0.121 C 
ATOM     20  C   UNL     1      33.447 -22.112 -17.547  0.00  0.00    +0.003 C 
ATOM     21  C   UNL     1      34.061 -22.529 -16.371  0.00  0.00    +0.022 C 
ENDBRANCH  14  17
ENDBRANCH  11  14
ENDBRANCH   4  11
BRANCH   3  22
ATOM     22  C   UNL     1      34.967 -13.839 -22.271  0.00  0.00    +0.184 C 
BRANCH  22  25
ATOM     23  O   UNL     1      32.753 -13.203 -23.001  0.00  0.00    -0.273 OA
ATOM     24  N   UNL     1      33.268 -13.121 -20.736  0.00  0.00    -0.299 N 
ATOM     25  C   UNL     1      33.540 -13.373 -22.073  0.00  0.00    +0.243 C 
ATOM     26  H   UNL     1      33.977 -13.294 -20.074  0.00  0.00    +0.150 HD
BRANCH  24  27
ATOM     27  C   UNL     1      31.996 -12.618 -20.266  0.00  0.00    +0.119 C 
BRANCH  27  29
ATOM     28  F   UNL     1      31.785 -11.479 -17.688  0.00  0.00    -0.204 F 
ATOM     29  C   UNL     1      32.033 -11.136 -20.024  0.00  0.00    +0.025 C 
ATOM     30  C   UNL     1      31.924 -10.645 -18.728  0.00  0.00    +0.138 C 
ATOM     31  C   UNL     1      32.175 -10.270 -21.102  0.00  0.00    -0.000 C 
ATOM     32  C   UNL     1      31.958  -9.269 -18.508  0.00  0.00    +0.029 C 
ATOM     33  C   UNL     1      32.210  -8.894 -20.880  0.00  0.00    -0.000 C 
ATOM     34  C   UNL     1      32.101  -8.393 -19.584  0.00  0.00    +0.002 C 
ENDBRANCH  27  29
ENDBRANCH  24  27
ENDBRANCH  22  25
ENDBRANCH   3  22
TORSDOF 7
ENDMDL
MODEL 3
REMARK VINA RESULT:     -12.0      6.116      9.244
REMARK  Name = 656913
REMARK  7 active torsions:
REMARK  status: ('A' for Active; 'I' for Inactive)
REMARK    1  A    between atoms: N_3  and  C_22
REMARK    2  A    between atoms: N_4  and  C_11
REMARK    3  A    between atoms: C_11  and  C_14
REMARK    4  A    between atoms: C_14  and  C_17
REMARK    5  A    between atoms: C_22  and  C_25
REMARK    6  A    between atoms: N_24  and  C_27
REMARK    7  A    between atoms: C_27  and  C_29
REMARK                            x       y       z     vdW  Elec       q    Type
REMARK                         _______ _______ _______ _____ _____    ______ ____
ROOT
ATOM      1 CL   UNL     1      34.583 -15.134 -24.275  0.00  0.00    -0.064 Cl
ATOM      2  O   UNL     1      35.645 -16.137 -19.466  0.00  0.00    -0.266 OA
ATOM      3  N   UNL     1      35.148 -15.632 -21.701  0.00  0.00    -0.233 N 
ATOM      4  N   UNL     1      35.685 -18.799 -19.872  0.00  0.00    -0.310 N 
ATOM      5  N   UNL     1      35.189 -18.413 -22.131  0.00  0.00    -0.223 NA
ATOM      6  C   UNL     1      35.422 -17.965 -20.930  0.00  0.00    +0.183 C 
ATOM      7  C   UNL     1      35.416 -16.474 -20.622  0.00  0.00    +0.285 C 
ATOM      8  C   UNL     1      34.912 -16.181 -22.947  0.00  0.00    +0.133 C 
ATOM      9  C   UNL     1      34.938 -17.506 -23.119  0.00  0.00    +0.127 C 
ATOM     10  H   UNL     1      35.854 -18.405 -18.985  0.00  0.00    +0.149 HD
ENDROOT
BRANCH   4  11
ATOM     11  C   UNL     1      35.723 -20.220 -20.014  0.00  0.00    +0.162 C 
BRANCH  11  14
ATOM     12  F   UNL     1      34.125 -21.917 -19.727  0.00  0.00    -0.196 F 
ATOM     13  F   UNL     1      33.699 -19.979 -18.850  0.00  0.00    -0.196 F 
ATOM     14  C   UNL     1      34.710 -20.870 -19.072  0.00  0.00    +0.317 C 
BRANCH  14  17
ATOM     15  O   UNL     1      33.397 -22.321 -17.132  0.00  0.00    -0.163 OA
ATOM     16  N   UNL     1      34.615 -22.024 -16.896  0.00  0.00    -0.128 N 
ATOM     17  C   UNL     1      35.372 -21.305 -17.787  0.00  0.00    +0.142 C 
ATOM     18  C   UNL     1      36.692 -20.978 -17.545  0.00  0.00    +0.022 C 
ATOM     19  C   UNL     1      35.205 -22.430 -15.715  0.00  0.00    +0.121 C 
ATOM     20  C   UNL     1      37.276 -21.393 -16.352  0.00  0.00    +0.003 C 
ATOM     21  C   UNL     1      36.531 -22.122 -15.431  0.00  0.00    +0.022 C 
ENDBRANCH  14  17
ENDBRANCH  11  14
ENDBRANCH   4  11
BRANCH   3  22
ATOM     22  C   UNL     1      35.123 -14.189 -21.485  0.00  0.00    +0.184 C 
BRANCH  22  25
ATOM     23  O   UNL     1      33.191 -14.371 -20.045  0.00  0.00    -0.273 OA
ATOM     24  N   UNL     1      33.246 -12.704 -21.664  0.00  0.00    -0.299 N 
ATOM     25  C   UNL     1      33.764 -13.780 -20.957  0.00  0.00    +0.243 C 
ATOM     26  H   UNL     1      33.796 -12.307 -22.378  0.00  0.00    +0.150 HD
BRANCH  24  27
ATOM     27  C   UNL     1      31.942 -12.138 -21.404  0.00  0.00    +0.119 C 
BRANCH  27  29
ATOM     28  F   UNL     1      31.833 -12.095 -18.580  0.00  0.00    -0.204 F 
ATOM     29  C   UNL     1      32.029 -10.870 -20.604  0.00  0.00    +0.025 C 
ATOM     30  C   UNL     1      31.969 -10.923 -19.216  0.00  0.00    +0.138 C 
ATOM     31  C   UNL     1      32.169  -9.654 -21.262  0.00  0.00    -0.000 C 
ATOM     32  C   UNL     1      32.051  -9.744 -18.477  0.00  0.00    +0.029 C 
ATOM     33  C   UNL     1      32.251  -8.475 -20.522  0.00  0.00    -0.000 C 
ATOM     34  C   UNL     1      32.192  -8.519 -19.130  0.00  0.00    +0.002 C 
ENDBRANCH  27  29
ENDBRANCH  24  27
ENDBRANCH  22  25
ENDBRANCH   3  22
TORSDOF 7
ENDMDL
MODEL 4
REMARK VINA RESULT:     -12.0      2.032      8.113
REMARK  Name = 656913
REMARK  7 active torsions:
REMARK  status: ('A' for Active; 'I' for Inactive)
REMARK    1  A    between atoms: N_3  and  C_22
REMARK    2  A    between atoms: N_4  and  C_11
REMARK    3  A    between atoms: C_11  and  C_14
REMARK    4  A    between atoms: C_14  and  C_17
REMARK    5  A    between atoms: C_22  and  C_25
REMARK    6  A    between atoms: N_24  and  C_27
REMARK    7  A    between atoms: C_27  and  C_29
REMARK                            x       y       z     vdW  Elec       q    Type
REMARK                         _______ _______ _______ _____ _____    ______ ____
ROOT
ATOM      1 CL   UNL     1      29.957 -23.206 -14.377  0.00  0.00    -0.064 Cl
ATOM      2  O   UNL     1      34.775 -23.544 -15.765  0.00  0.00    -0.266 OA
ATOM      3  N   UNL     1      32.534 -23.410 -15.089  0.00  0.00    -0.233 N 
ATOM      4  N   UNL     1      34.443 -21.892 -17.866  0.00  0.00    -0.310 N 
ATOM      5  N   UNL     1      32.182 -21.684 -17.283  0.00  0.00    -0.223 NA
ATOM      6  C   UNL     1      33.367 -22.181 -17.065  0.00  0.00    +0.183 C 
ATOM      7  C   UNL     1      33.633 -23.121 -15.898  0.00  0.00    +0.285 C 
ATOM      8  C   UNL     1      31.308 -22.845 -15.382  0.00  0.00    +0.133 C 
ATOM      9  C   UNL     1      31.173 -22.028 -16.431  0.00  0.00    +0.127 C 
ATOM     10  H   UNL     1      35.316 -22.296 -17.654  0.00  0.00    +0.149 HD
ENDROOT
BRANCH   4  11
ATOM     11  C   UNL     1      34.341 -21.025 -18.997  0.00  0.00    +0.162 C 
BRANCH  11  14
ATOM     12  F   UNL     1      36.415 -21.653 -19.901  0.00  0.00    -0.196 F 
ATOM     13  F   UNL     1      36.418 -20.160 -18.326  0.00  0.00    -0.196 F 
ATOM     14  C   UNL     1      35.731 -20.565 -19.435  0.00  0.00    +0.317 C 
BRANCH  14  17
ATOM     15  O   UNL     1      37.816 -18.854 -19.999  0.00  0.00    -0.163 OA
ATOM     16  N   UNL     1      36.741 -18.682 -20.663  0.00  0.00    -0.128 N 
ATOM     17  C   UNL     1      35.635 -19.472 -20.471  0.00  0.00    +0.142 C 
ATOM     18  C   UNL     1      34.465 -19.297 -21.185  0.00  0.00    +0.022 C 
ATOM     19  C   UNL     1      36.670 -17.676 -21.607  0.00  0.00    +0.121 C 
ATOM     20  C   UNL     1      34.405 -18.281 -22.133  0.00  0.00    +0.003 C 
ATOM     21  C   UNL     1      35.511 -17.466 -22.347  0.00  0.00    +0.022 C 
ENDBRANCH  14  17
ENDBRANCH  11  14
ENDBRANCH   4  11
BRANCH   3  22
ATOM     22  C   UNL     1      32.709 -24.306 -13.951  0.00  0.00    +0.184 C 
BRANCH  22  25
ATOM     23  O   UNL     1      33.402 -22.724 -12.261  0.00  0.00    -0.273 OA
ATOM     24  N   UNL     1      34.917 -24.319 -13.010  0.00  0.00    -0.299 N 
ATOM     25  C   UNL     1      33.681 -23.690 -12.966  0.00  0.00    +0.243 C 
ATOM     26  H   UNL     1      35.029 -25.088 -13.615  0.00  0.00    +0.150 HD
BRANCH  24  27
ATOM     27  C   UNL     1      36.047 -23.903 -12.210  0.00  0.00    +0.119 C 
BRANCH  27  29
ATOM     28  F   UNL     1      38.567 -22.965 -11.338  0.00  0.00    -0.204 F 
ATOM     29  C   UNL     1      37.345 -24.424 -12.757  0.00  0.00    +0.025 C 
ATOM     30  C   UNL     1      38.548 -23.917 -12.281  0.00  0.00    +0.138 C 
ATOM     31  C   UNL     1      37.328 -25.410 -13.737  0.00  0.00    -0.000 C 
ATOM     32  C   UNL     1      39.751 -24.402 -12.792  0.00  0.00    +0.029 C 
ATOM     33  C   UNL     1      38.531 -25.896 -14.247  0.00  0.00    -0.000 C 
ATOM     34  C   UNL     1      39.743 -25.392 -13.775  0.00  0.00    +0.002 C 
ENDBRANCH  27  29
ENDBRANCH  24  27
ENDBRANCH  22  25
ENDBRANCH   3  22
TORSDOF 7
ENDMDL
MODEL 5
REMARK VINA RESULT:     -11.8      1.243      1.591
REMARK  Name = 656913
REMARK  7 active torsions:
REMARK  status: ('A' for Active; 'I' for Inactive)
REMARK    1  A    between atoms: N_3  and  C_22
REMARK    2  A    between atoms: N_4  and  C_11
REMARK    3  A    between atoms: C_11  and  C_14
REMARK    4  A    between atoms: C_14  and  C_17
REMARK    5  A    between atoms: C_22  and  C_25
REMARK    6  A    between atoms: N_24  and  C_27
REMARK    7  A    between atoms: C_27  and  C_29
REMARK                            x       y       z     vdW  Elec       q    Type
REMARK                         _______ _______ _______ _____ _____    ______ ____
ROOT
ATOM      1 CL   UNL     1      29.937 -23.789 -15.381  0.00  0.00    -0.064 Cl
ATOM      2  O   UNL     1      34.582 -21.892 -15.097  0.00  0.00    -0.266 OA
ATOM      3  N   UNL     1      32.410 -22.760 -15.263  0.00  0.00    -0.233 N 
ATOM      4  N   UNL     1      35.029 -22.950 -12.661  0.00  0.00    -0.310 N 
ATOM      5  N   UNL     1      32.873 -23.867 -12.718  0.00  0.00    -0.223 NA
ATOM      6  C   UNL     1      33.820 -23.166 -13.273  0.00  0.00    +0.183 C 
ATOM      7  C   UNL     1      33.642 -22.536 -14.648  0.00  0.00    +0.285 C 
ATOM      8  C   UNL     1      31.454 -23.516 -14.613  0.00  0.00    +0.133 C 
ATOM      9  C   UNL     1      31.704 -24.029 -13.404  0.00  0.00    +0.127 C 
ATOM     10  H   UNL     1      35.709 -22.411 -13.128  0.00  0.00    +0.149 HD
ENDROOT
BRANCH   4  11
ATOM     11  C   UNL     1      35.335 -23.480 -11.370  0.00  0.00    +0.162 C 
BRANCH  11  14
ATOM     12  F   UNL     1      37.077 -23.832  -9.835  0.00  0.00    -0.196 F 
ATOM     13  F   UNL     1      37.142 -22.021 -11.028  0.00  0.00    -0.196 F 
ATOM     14  C   UNL     1      36.832 -23.349 -11.090  0.00  0.00    +0.317 C 
BRANCH  14  17
ATOM     15  O   UNL     1      37.205 -26.079 -11.075  0.00  0.00    -0.163 OA
ATOM     16  N   UNL     1      37.756 -25.433 -12.027  0.00  0.00    -0.128 N 
ATOM     17  C   UNL     1      37.641 -24.071 -12.140  0.00  0.00    +0.142 C 
ATOM     18  C   UNL     1      38.231 -23.359 -13.168  0.00  0.00    +0.022 C 
ATOM     19  C   UNL     1      38.492 -26.110 -12.979  0.00  0.00    +0.121 C 
ATOM     20  C   UNL     1      38.970 -24.051 -14.122  0.00  0.00    +0.003 C 
ATOM     21  C   UNL     1      39.103 -25.432 -14.030  0.00  0.00    +0.022 C 
ENDBRANCH  14  17
ENDBRANCH  11  14
ENDBRANCH   4  11
BRANCH   3  22
ATOM     22  C   UNL     1      32.164 -22.187 -16.582  0.00  0.00    +0.184 C 
BRANCH  22  25
ATOM     23  O   UNL     1      33.712 -23.753 -17.579  0.00  0.00    -0.273 OA
ATOM     24  N   UNL     1      33.728 -21.538 -18.282  0.00  0.00    -0.299 N 
ATOM     25  C   UNL     1      33.266 -22.608 -17.531  0.00  0.00    +0.243 C 
ATOM     26  H   UNL     1      33.295 -20.661 -18.162  0.00  0.00    +0.150 HD
BRANCH  24  27
ATOM     27  C   UNL     1      34.812 -21.644 -19.234  0.00  0.00    +0.119 C 
BRANCH  27  29
ATOM     28  F   UNL     1      37.531 -20.874 -19.246  0.00  0.00    -0.204 F 
ATOM     29  C   UNL     1      35.275 -20.298 -19.711  0.00  0.00    +0.025 C 
ATOM     30  C   UNL     1      36.629 -19.986 -19.689  0.00  0.00    +0.138 C 
ATOM     31  C   UNL     1      34.342 -19.376 -20.169  0.00  0.00    -0.000 C 
ATOM     32  C   UNL     1      37.056 -18.735 -20.133  0.00  0.00    +0.029 C 
ATOM     33  C   UNL     1      34.769 -18.125 -20.614  0.00  0.00    -0.000 C 
ATOM     34  C   UNL     1      36.126 -17.804 -20.595  0.00  0.00    +0.002 C 
ENDBRANCH  27  29
ENDBRANCH  24  27
ENDBRANCH  22  25
ENDBRANCH   3  22
TORSDOF 7
ENDMDL
MODEL 6
REMARK VINA RESULT:     -11.7      7.896     12.993
REMARK  Name = 656913
REMARK  7 active torsions:
REMARK  status: ('A' for Active; 'I' for Inactive)
REMARK    1  A    between atoms: N_3  and  C_22
REMARK    2  A    between atoms: N_4  and  C_11
REMARK    3  A    between atoms: C_11  and  C_14
REMARK    4  A    between atoms: C_14  and  C_17
REMARK    5  A    between atoms: C_22  and  C_25
REMARK    6  A    between atoms: N_24  and  C_27
REMARK    7  A    between atoms: C_27  and  C_29
REMARK                            x       y       z     vdW  Elec       q    Type
REMARK                         _______ _______ _______ _____ _____    ______ ____
ROOT
ATOM      1 CL   UNL     1      35.043 -15.383 -25.144  0.00  0.00    -0.064 Cl
ATOM      2  O   UNL     1      34.371 -14.389 -20.263  0.00  0.00    -0.266 OA
ATOM      3  N   UNL     1      34.711 -14.879 -22.532  0.00  0.00    -0.233 N 
ATOM      4  N   UNL     1      32.567 -12.450 -20.751  0.00  0.00    -0.310 N 
ATOM      5  N   UNL     1      32.826 -12.854 -23.046  0.00  0.00    -0.223 NA
ATOM      6  C   UNL     1      33.130 -13.121 -21.808  0.00  0.00    +0.183 C 
ATOM      7  C   UNL     1      34.141 -14.202 -21.453  0.00  0.00    +0.285 C 
ATOM      8  C   UNL     1      34.337 -14.542 -23.817  0.00  0.00    +0.133 C 
ATOM      9  C   UNL     1      33.438 -13.575 -24.029  0.00  0.00    +0.127 C 
ATOM     10  H   UNL     1      32.835 -12.694 -19.835  0.00  0.00    +0.149 HD
ENDROOT
BRANCH   4  11
ATOM     11  C   UNL     1      31.603 -11.411 -20.935  0.00  0.00    +0.162 C 
BRANCH  11  14
ATOM     12  F   UNL     1      32.439 -10.964 -18.787  0.00  0.00    -0.196 F 
ATOM     13  F   UNL     1      30.433 -10.278 -19.245  0.00  0.00    -0.196 F 
ATOM     14  C   UNL     1      31.681 -10.412 -19.781  0.00  0.00    +0.317 C 
BRANCH  14  17
ATOM     15  O   UNL     1      32.526  -8.446 -18.045  0.00  0.00    -0.163 OA
ATOM     16  N   UNL     1      32.628  -8.190 -19.291  0.00  0.00    -0.128 N 
ATOM     17  C   UNL     1      32.240  -9.091 -20.250  0.00  0.00    +0.142 C 
ATOM     18  C   UNL     1      32.347  -8.826 -21.603  0.00  0.00    +0.022 C 
ATOM     19  C   UNL     1      33.141  -6.975 -19.702  0.00  0.00    +0.121 C 
ATOM     20  C   UNL     1      32.866  -7.600 -22.006  0.00  0.00    +0.003 C 
ATOM     21  C   UNL     1      33.266  -6.669 -21.053  0.00  0.00    +0.022 C 
ENDBRANCH  14  17
ENDBRANCH  11  14
ENDBRANCH   4  11
BRANCH   3  22
ATOM     22  C   UNL     1      35.690 -15.929 -22.271  0.00  0.00    +0.184 C 
BRANCH  22  25
ATOM     23  O   UNL     1      34.473 -17.667 -23.428  0.00  0.00    -0.273 OA
ATOM     24  N   UNL     1      35.081 -17.993 -21.209  0.00  0.00    -0.299 N 
ATOM     25  C   UNL     1      35.026 -17.284 -22.400  0.00  0.00    +0.243 C 
ATOM     26  H   UNL     1      35.553 -17.588 -20.445  0.00  0.00    +0.150 HD
BRANCH  24  27
ATOM     27  C   UNL     1      34.482 -19.297 -21.033  0.00  0.00    +0.119 C 
BRANCH  27  29
ATOM     28  F   UNL     1      32.887 -20.862 -19.303  0.00  0.00    -0.204 F 
ATOM     29  C   UNL     1      35.039 -20.015 -19.838  0.00  0.00    +0.025 C 
ATOM     30  C   UNL     1      34.196 -20.768 -19.029  0.00  0.00    +0.138 C 
ATOM     31  C   UNL     1      36.396 -19.917 -19.552  0.00  0.00    -0.000 C 
ATOM     32  C   UNL     1      34.716 -21.433 -17.920  0.00  0.00    +0.029 C 
ATOM     33  C   UNL     1      36.916 -20.583 -18.442  0.00  0.00    -0.000 C 
ATOM     34  C   UNL     1      36.077 -21.341 -17.626  0.00  0.00    +0.002 C 
ENDBRANCH  27  29
ENDBRANCH  24  27
ENDBRANCH  22  25
ENDBRANCH   3  22
TORSDOF 7
ENDMDL
MODEL 7
REMARK VINA RESULT:     -11.6      6.493     11.814
REMARK  Name = 656913
REMARK  7 active torsions:
REMARK  status: ('A' for Active; 'I' for Inactive)
REMARK    1  A    between atoms: N_3  and  C_22
REMARK    2  A    between atoms: N_4  and  C_11
REMARK    3  A    between atoms: C_11  and  C_14
REMARK    4  A    between atoms: C_14  and  C_17
REMARK    5  A    between atoms: C_22  and  C_25
REMARK    6  A    between atoms: N_24  and  C_27
REMARK    7  A    between atoms: C_27  and  C_29
REMARK                            x       y       z     vdW  Elec       q    Type
REMARK                         _______ _______ _______ _____ _____    ______ ____
ROOT
ATOM      1 CL   UNL     1      35.556 -18.760 -23.762  0.00  0.00    -0.064 Cl
ATOM      2  O   UNL     1      35.643 -16.063 -19.522  0.00  0.00    -0.266 OA
ATOM      3  N   UNL     1      35.619 -17.350 -21.482  0.00  0.00    -0.233 N 
ATOM      4  N   UNL     1      34.603 -13.881 -20.709  0.00  0.00    -0.310 N 
ATOM      5  N   UNL     1      34.531 -15.073 -22.727  0.00  0.00    -0.223 NA
ATOM      6  C   UNL     1      34.815 -15.012 -21.456  0.00  0.00    +0.183 C 
ATOM      7  C   UNL     1      35.405 -16.204 -20.715  0.00  0.00    +0.285 C 
ATOM      8  C   UNL     1      35.292 -17.340 -22.824  0.00  0.00    +0.133 C 
ATOM      9  C   UNL     1      34.777 -16.242 -23.386  0.00  0.00    +0.127 C 
ATOM     10  H   UNL     1      34.836 -13.892 -19.752  0.00  0.00    +0.149 HD
ENDROOT
BRANCH   4  11
ATOM     11  C   UNL     1      34.055 -12.687 -21.272  0.00  0.00    +0.162 C 
BRANCH  11  14
ATOM     12  F   UNL     1      32.198 -13.722 -20.276  0.00  0.00    -0.196 F 
ATOM     13  F   UNL     1      31.878 -12.679 -22.151  0.00  0.00    -0.196 F 
ATOM     14  C   UNL     1      32.559 -12.602 -20.970  0.00  0.00    +0.317 C 
BRANCH  14  17
ATOM     15  O   UNL     1      32.592 -10.108 -22.141  0.00  0.00    -0.163 OA
ATOM     16  N   UNL     1      32.286 -10.154 -20.903  0.00  0.00    -0.128 N 
ATOM     17  C   UNL     1      32.235 -11.338 -20.212  0.00  0.00    +0.142 C 
ATOM     18  C   UNL     1      31.902 -11.401 -18.872  0.00  0.00    +0.022 C 
ATOM     19  C   UNL     1      31.992  -8.986 -20.225  0.00  0.00    +0.121 C 
ATOM     20  C   UNL     1      31.608 -10.220 -18.199  0.00  0.00    +0.003 C 
ATOM     21  C   UNL     1      31.653  -9.006 -18.876  0.00  0.00    +0.022 C 
ENDBRANCH  14  17
ENDBRANCH  11  14
ENDBRANCH   4  11
BRANCH   3  22
ATOM     22  C   UNL     1      36.184 -18.534 -20.842  0.00  0.00    +0.184 C 
BRANCH  22  25
ATOM     23  O   UNL     1      33.881 -19.183 -20.498  0.00  0.00    -0.273 OA
ATOM     24  N   UNL     1      35.561 -20.308 -19.351  0.00  0.00    -0.299 N 
ATOM     25  C   UNL     1      35.069 -19.367 -20.244  0.00  0.00    +0.243 C 
ATOM     26  H   UNL     1      36.536 -20.368 -19.224  0.00  0.00    +0.150 HD
BRANCH  24  27
ATOM     27  C   UNL     1      34.714 -21.205 -18.597  0.00  0.00    +0.119 C 
BRANCH  27  29
ATOM     28  F   UNL     1      33.345 -22.715 -16.639  0.00  0.00    -0.204 F 
ATOM     29  C   UNL     1      35.341 -21.609 -17.294  0.00  0.00    +0.025 C 
ATOM     30  C   UNL     1      34.608 -22.353 -16.376  0.00  0.00    +0.138 C 
ATOM     31  C   UNL     1      36.650 -21.232 -17.019  0.00  0.00    -0.000 C 
ATOM     32  C   UNL     1      35.194 -22.726 -15.167  0.00  0.00    +0.029 C 
ATOM     33  C   UNL     1      37.236 -21.606 -15.810  0.00  0.00    -0.000 C 
ATOM     34  C   UNL     1      36.508 -22.352 -14.884  0.00  0.00    +0.002 C 
ENDBRANCH  27  29
ENDBRANCH  24  27
ENDBRANCH  22  25
ENDBRANCH   3  22
TORSDOF 7
ENDMDL
MODEL 8
REMARK VINA RESULT:     -11.6      8.180     11.823
REMARK  Name = 656913
REMARK  7 active torsions:
REMARK  status: ('A' for Active; 'I' for Inactive)
REMARK    1  A    between atoms: N_3  and  C_22
REMARK    2  A    between atoms: N_4  and  C_11
REMARK    3  A    between atoms: C_11  and  C_14
REMARK    4  A    between atoms: C_14  and  C_17
REMARK    5  A    between atoms: C_22  and  C_25
REMARK    6  A    between atoms: N_24  and  C_27
REMARK    7  A    between atoms: C_27  and  C_29
REMARK                            x       y       z     vdW  Elec       q    Type
REMARK                         _______ _______ _______ _____ _____    ______ ____
ROOT
ATOM      1 CL   UNL     1      33.431 -12.618 -25.727  0.00  0.00    -0.064 Cl
ATOM      2  O   UNL     1      35.264 -13.658 -21.165  0.00  0.00    -0.266 OA
ATOM      3  N   UNL     1      34.407 -13.136 -23.284  0.00  0.00    -0.233 N 
ATOM      4  N   UNL     1      35.398 -16.302 -21.655  0.00  0.00    -0.310 N 
ATOM      5  N   UNL     1      34.545 -15.899 -23.801  0.00  0.00    -0.223 NA
ATOM      6  C   UNL     1      34.931 -15.463 -22.635  0.00  0.00    +0.183 C 
ATOM      7  C   UNL     1      34.884 -13.983 -22.284  0.00  0.00    +0.285 C 
ATOM      8  C   UNL     1      34.017 -13.671 -24.497  0.00  0.00    +0.133 C 
ATOM      9  C   UNL     1      34.095 -14.988 -24.712  0.00  0.00    +0.127 C 
ATOM     10  H   UNL     1      35.676 -15.918 -20.792  0.00  0.00    +0.149 HD
ENDROOT
BRANCH   4  11
ATOM     11  C   UNL     1      35.497 -17.715 -21.845  0.00  0.00    +0.162 C 
BRANCH  11  14
ATOM     12  F   UNL     1      36.457 -17.382 -19.728  0.00  0.00    -0.196 F 
ATOM     13  F   UNL     1      37.326 -18.916 -20.993  0.00  0.00    -0.196 F 
ATOM     14  C   UNL     1      36.133 -18.367 -20.617  0.00  0.00    +0.317 C 
BRANCH  14  17
ATOM     15  O   UNL     1      36.993 -20.304 -18.856  0.00  0.00    -0.163 OA
ATOM     16  N   UNL     1      35.751 -20.308 -19.147  0.00  0.00    -0.128 N 
ATOM     17  C   UNL     1      35.205 -19.392 -20.012  0.00  0.00    +0.142 C 
ATOM     18  C   UNL     1      33.861 -19.385 -20.334  0.00  0.00    +0.022 C 
ATOM     19  C   UNL     1      34.916 -21.254 -18.583  0.00  0.00    +0.121 C 
ATOM     20  C   UNL     1      33.030 -20.342 -19.760  0.00  0.00    +0.003 C 
ATOM     21  C   UNL     1      33.558 -21.281 -18.880  0.00  0.00    +0.022 C 
ENDBRANCH  14  17
ENDBRANCH  11  14
ENDBRANCH   4  11
BRANCH   3  22
ATOM     22  C   UNL     1      34.331 -11.703 -23.022  0.00  0.00    +0.184 C 
BRANCH  22  25
ATOM     23  O   UNL     1      32.291 -12.261 -21.853  0.00  0.00    -0.273 OA
ATOM     24  N   UNL     1      32.844 -10.025 -22.165  0.00  0.00    -0.299 N 
ATOM     25  C   UNL     1      33.054 -11.393 -22.269  0.00  0.00    +0.243 C 
ATOM     26  H   UNL     1      33.525  -9.418 -22.535  0.00  0.00    +0.150 HD
BRANCH  24  27
ATOM     27  C   UNL     1      31.677  -9.447 -21.537  0.00  0.00    +0.119 C 
BRANCH  27  29
ATOM     28  F   UNL     1      32.645  -8.884 -18.942  0.00  0.00    -0.204 F 
ATOM     29  C   UNL     1      31.935  -8.051 -21.049  0.00  0.00    +0.025 C 
ATOM     30  C   UNL     1      32.412  -7.847 -19.759  0.00  0.00    +0.138 C 
ATOM     31  C   UNL     1      31.693  -6.975 -21.894  0.00  0.00    -0.000 C 
ATOM     32  C   UNL     1      32.651  -6.550 -19.309  0.00  0.00    +0.029 C 
ATOM     33  C   UNL     1      31.932  -5.677 -21.444  0.00  0.00    -0.000 C 
ATOM     34  C   UNL     1      32.411  -5.464 -20.152  0.00  0.00    +0.002 C 
ENDBRANCH  27  29
ENDBRANCH  24  27
ENDBRANCH  22  25
ENDBRANCH   3  22
TORSDOF 7
ENDMDL
MODEL 9
REMARK VINA RESULT:     -11.5      3.007      5.443
REMARK  Name = 656913
REMARK  7 active torsions:
REMARK  status: ('A' for Active; 'I' for Inactive)
REMARK    1  A    between atoms: N_3  and  C_22
REMARK    2  A    between atoms: N_4  and  C_11
REMARK    3  A    between atoms: C_11  and  C_14
REMARK    4  A    between atoms: C_14  and  C_17
REMARK    5  A    between atoms: C_22  and  C_25
REMARK    6  A    between atoms: N_24  and  C_27
REMARK    7  A    between atoms: C_27  and  C_29
REMARK                            x       y       z     vdW  Elec       q    Type
REMARK                         _______ _______ _______ _____ _____    ______ ____
ROOT
ATOM      1 CL   UNL     1      36.668 -20.482 -18.999  0.00  0.00    -0.064 Cl
ATOM      2  O   UNL     1      34.197 -23.244 -15.604  0.00  0.00    -0.266 OA
ATOM      3  N   UNL     1      35.324 -21.965 -17.215  0.00  0.00    -0.233 N 
ATOM      4  N   UNL     1      35.965 -22.697 -13.648  0.00  0.00    -0.310 N 
ATOM      5  N   UNL     1      37.175 -21.391 -15.174  0.00  0.00    -0.223 NA
ATOM      6  C   UNL     1      36.160 -22.160 -14.896  0.00  0.00    +0.183 C 
ATOM      7  C   UNL     1      35.119 -22.515 -15.949  0.00  0.00    +0.285 C 
ATOM      8  C   UNL     1      36.423 -21.158 -17.433  0.00  0.00    +0.133 C 
ATOM      9  C   UNL     1      37.284 -20.903 -16.443  0.00  0.00    +0.127 C 
ATOM     10  H   UNL     1      35.180 -23.272 -13.495  0.00  0.00    +0.149 HD
ENDROOT
BRANCH   4  11
ATOM     11  C   UNL     1      36.862 -22.450 -12.563  0.00  0.00    +0.162 C 
BRANCH  11  14
ATOM     12  F   UNL     1      36.206 -24.553 -11.751  0.00  0.00    -0.196 F 
ATOM     13  F   UNL     1      37.786 -23.515 -10.687  0.00  0.00    -0.196 F 
ATOM     14  C   UNL     1      37.311 -23.772 -11.941  0.00  0.00    +0.317 C 
BRANCH  14  17
ATOM     15  O   UNL     1      36.656 -25.649 -13.849  0.00  0.00    -0.163 OA
ATOM     16  N   UNL     1      37.894 -25.371 -13.724  0.00  0.00    -0.128 N 
ATOM     17  C   UNL     1      38.342 -24.452 -12.809  0.00  0.00    +0.142 C 
ATOM     18  C   UNL     1      39.681 -24.140 -12.665  0.00  0.00    +0.022 C 
ATOM     19  C   UNL     1      38.824 -26.003 -14.526  0.00  0.00    +0.121 C 
ATOM     20  C   UNL     1      40.609 -24.782 -13.478  0.00  0.00    +0.003 C 
ATOM     21  C   UNL     1      40.181 -25.718 -14.414  0.00  0.00    +0.022 C 
ENDBRANCH  14  17
ENDBRANCH  11  14
ENDBRANCH   4  11
BRANCH   3  22
ATOM     22  C   UNL     1      34.369 -22.261 -18.277  0.00  0.00    +0.184 C 
BRANCH  22  25
ATOM     23  O   UNL     1      32.697 -20.522 -18.422  0.00  0.00    -0.273 OA
ATOM     24  N   UNL     1      32.306 -22.360 -17.056  0.00  0.00    -0.299 N 
ATOM     25  C   UNL     1      33.041 -21.607 -17.960  0.00  0.00    +0.243 C 
ATOM     26  H   UNL     1      32.679 -23.219 -16.751  0.00  0.00    +0.150 HD
BRANCH  24  27
ATOM     27  C   UNL     1      31.019 -21.949 -16.540  0.00  0.00    +0.119 C 
BRANCH  27  29
ATOM     28  F   UNL     1      32.123 -21.589 -13.964  0.00  0.00    -0.204 F 
ATOM     29  C   UNL     1      30.601 -22.767 -15.353  0.00  0.00    +0.025 C 
ATOM     30  C   UNL     1      31.187 -22.536 -14.114  0.00  0.00    +0.138 C 
ATOM     31  C   UNL     1      29.631 -23.751 -15.508  0.00  0.00    -0.000 C 
ATOM     32  C   UNL     1      30.796 -23.298 -13.014  0.00  0.00    +0.029 C 
ATOM     33  C   UNL     1      29.240 -24.512 -14.407  0.00  0.00    -0.000 C 
ATOM     34  C   UNL     1      29.822 -24.286 -13.160  0.00  0.00    +0.002 C 
ENDBRANCH  27  29
ENDBRANCH  24  27
ENDBRANCH  22  25
ENDBRANCH   3  22
TORSDOF 7
ENDMDL
