MODEL 1
REMARK VINA RESULT:     -12.2      0.000      0.000
REMARK  Name = 4470566
REMARK  6 active torsions:
REMARK  status: ('A' for Active; 'I' for Inactive)
REMARK    1  A    between atoms: N_4  and  C_23
REMARK    2  A    between atoms: C_13  and  C_14
REMARK    3  A    between atoms: C_17  and  N_22
REMARK    4  A    between atoms: C_23  and  C_24
REMARK    5  A    between atoms: C_24  and  C_25
REMARK    6  A    between atoms: C_25  and  N_27
REMARK                            x       y       z     vdW  Elec       q    Type
REMARK                         _______ _______ _______ _____ _____    ______ ____
ROOT
ATOM      1  S   UNL     1      34.107 -23.238 -14.959  0.00  0.00    -0.086 S 
ATOM      2  S   UNL     1      37.325 -20.217 -19.042  0.00  0.00    -0.017 S 
ATOM      3  O   UNL     1      32.334 -20.380 -20.115  0.00  0.00    -0.268 OA
ATOM      4  N   UNL     1      34.683 -20.125 -19.901  0.00  0.00    -0.237 N 
ATOM      5  N   UNL     1      34.955 -21.208 -18.055  0.00  0.00    -0.244 N 
ATOM      6  C   UNL     1      33.627 -21.260 -18.329  0.00  0.00    +0.112 C 
ATOM      7  C   UNL     1      35.180 -21.885 -16.887  0.00  0.00    +0.064 C 
ATOM      8  C   UNL     1      35.692 -20.510 -19.000  0.00  0.00    +0.152 C 
ATOM      9  C   UNL     1      33.398 -20.555 -19.543  0.00  0.00    +0.268 C 
ATOM     10  C   UNL     1      33.965 -22.354 -16.445  0.00  0.00    +0.045 C 
ATOM     11  C   UNL     1      32.946 -21.956 -17.371  0.00  0.00    +0.028 C 
ATOM     12  C   UNL     1      36.263 -22.228 -16.034  0.00  0.00    +0.022 C 
ATOM     13  C   UNL     1      35.804 -22.959 -14.959  0.00  0.00    +0.031 C 
ENDROOT
BRANCH  13  14
ATOM     14  C   UNL     1      36.574 -23.502 -13.862  0.00  0.00    +0.008 C 
ATOM     15  C   UNL     1      36.055 -23.478 -12.569  0.00  0.00    +0.025 C 
ATOM     16  C   UNL     1      37.833 -24.048 -14.103  0.00  0.00    +0.001 C 
ATOM     17  C   UNL     1      36.798 -24.003 -11.513  0.00  0.00    +0.143 C 
ATOM     18  C   UNL     1      38.576 -24.573 -13.046  0.00  0.00    +0.002 C 
ATOM     19  C   UNL     1      38.058 -24.550 -11.751  0.00  0.00    +0.024 C 
BRANCH  17  22
ATOM     20  O   UNL     1      35.325 -24.749  -9.903  0.00  0.00    -0.126 OA
ATOM     21  O   UNL     1      36.767 -23.186  -9.357  0.00  0.00    -0.126 OA
ATOM     22  N   UNL     1      36.272 -23.978 -10.194  0.00  0.00    +0.058 N 
ENDBRANCH  17  22
ENDBRANCH  13  14
BRANCH   4  23
ATOM     23  C   UNL     1      34.916 -19.349 -21.110  0.00  0.00    +0.098 C 
BRANCH  23  24
ATOM     24  C   UNL     1      35.400 -17.931 -20.812  0.00  0.00    -0.001 C 
BRANCH  24  25
ATOM     25  C   UNL     1      36.438 -17.395 -21.803  0.00  0.00    -0.075 C 
BRANCH  25  27
ATOM     26  O   UNL     1      33.876 -14.525 -23.480  0.00  0.00    -0.358 OA
ATOM     27  N   UNL     1      35.954 -16.213 -22.513  0.00  0.00    +0.390 N 
ATOM     28  C   UNL     1      35.193 -15.337 -21.612  0.00  0.00    -0.045 C 
ATOM     29  C   UNL     1      35.121 -16.599 -23.661  0.00  0.00    -0.045 C 
ATOM     30  C   UNL     1      34.688 -14.118 -22.378  0.00  0.00    +0.119 C 
ATOM     31  C   UNL     1      34.618 -15.349 -24.379  0.00  0.00    +0.119 C 
ATOM     32  H   UNL     1      36.765 -15.701 -22.858  0.00  0.00    -0.079 HD
ENDBRANCH  25  27
ENDBRANCH  24  25
ENDBRANCH  23  24
ENDBRANCH   4  23
TORSDOF 6
ENDMDL
MODEL 2
REMARK VINA RESULT:     -11.1      4.893      8.541
REMARK  Name = 4470566
REMARK  6 active torsions:
REMARK  status: ('A' for Active; 'I' for Inactive)
REMARK    1  A    between atoms: N_4  and  C_23
REMARK    2  A    between atoms: C_13  and  C_14
REMARK    3  A    between atoms: C_17  and  N_22
REMARK    4  A    between atoms: C_23  and  C_24
REMARK    5  A    between atoms: C_24  and  C_25
REMARK    6  A    between atoms: C_25  and  N_27
REMARK                            x       y       z     vdW  Elec       q    Type
REMARK                         _______ _______ _______ _____ _____    ______ ____
ROOT
ATOM      1  S   UNL     1      34.969 -18.311 -23.043  0.00  0.00    -0.086 S 
ATOM      2  S   UNL     1      34.818 -12.838 -20.560  0.00  0.00    -0.017 S 
ATOM      3  O   UNL     1      33.864 -12.812 -25.578  0.00  0.00    -0.268 OA
ATOM      4  N   UNL     1      34.266 -12.490 -23.262  0.00  0.00    -0.237 N 
ATOM      5  N   UNL     1      34.605 -14.546 -22.707  0.00  0.00    -0.244 N 
ATOM      6  C   UNL     1      34.354 -14.553 -24.041  0.00  0.00    +0.112 C 
ATOM      7  C   UNL     1      34.829 -15.835 -22.304  0.00  0.00    +0.064 C 
ATOM      8  C   UNL     1      34.569 -13.281 -22.140  0.00  0.00    +0.152 C 
ATOM      9  C   UNL     1      34.123 -13.212 -24.454  0.00  0.00    +0.268 C 
ATOM     10  C   UNL     1      34.708 -16.638 -23.416  0.00  0.00    +0.045 C 
ATOM     11  C   UNL     1      34.401 -15.819 -24.551  0.00  0.00    +0.028 C 
ATOM     12  C   UNL     1      35.134 -16.554 -21.117  0.00  0.00    +0.022 C 
ATOM     13  C   UNL     1      35.234 -17.901 -21.395  0.00  0.00    +0.031 C 
ENDROOT
BRANCH  13  14
ATOM     14  C   UNL     1      35.530 -18.975 -20.473  0.00  0.00    +0.008 C 
ATOM     15  C   UNL     1      34.513 -19.828 -20.050  0.00  0.00    +0.025 C 
ATOM     16  C   UNL     1      36.833 -19.155 -20.014  0.00  0.00    +0.001 C 
ATOM     17  C   UNL     1      34.800 -20.865 -19.163  0.00  0.00    +0.143 C 
ATOM     18  C   UNL     1      37.119 -20.192 -19.126  0.00  0.00    +0.002 C 
ATOM     19  C   UNL     1      36.103 -21.047 -18.701  0.00  0.00    +0.024 C 
BRANCH  17  22
ATOM     20  O   UNL     1      33.973 -22.972 -18.719  0.00  0.00    -0.126 OA
ATOM     21  O   UNL     1      32.668 -21.241 -18.368  0.00  0.00    -0.126 OA
ATOM     22  N   UNL     1      33.764 -21.734 -18.729  0.00  0.00    +0.058 N 
ENDBRANCH  17  22
ENDBRANCH  13  14
BRANCH   4  23
ATOM     23  C   UNL     1      34.109 -11.042 -23.227  0.00  0.00    +0.098 C 
BRANCH  23  24
ATOM     24  C   UNL     1      32.812 -10.611 -22.546  0.00  0.00    -0.001 C 
BRANCH  24  25
ATOM     25  C   UNL     1      32.582  -9.097 -22.524  0.00  0.00    -0.075 C 
BRANCH  25  27
ATOM     26  O   UNL     1      32.639  -8.162 -18.433  0.00  0.00    -0.358 OA
ATOM     27  N   UNL     1      32.173  -8.626 -21.202  0.00  0.00    +0.390 N 
ATOM     28  C   UNL     1      33.047  -7.538 -20.741  0.00  0.00    -0.045 C 
ATOM     29  C   UNL     1      32.184  -9.727 -20.229  0.00  0.00    -0.045 C 
ATOM     30  C   UNL     1      32.610  -7.073 -19.356  0.00  0.00    +0.119 C 
ATOM     31  C   UNL     1      31.766  -9.210 -18.856  0.00  0.00    +0.119 C 
ATOM     32  H   UNL     1      31.221  -8.269 -21.278  0.00  0.00    -0.079 HD
ENDBRANCH  25  27
ENDBRANCH  24  25
ENDBRANCH  23  24
ENDBRANCH   4  23
TORSDOF 6
ENDMDL
MODEL 3
REMARK VINA RESULT:     -10.9      2.685     10.172
REMARK  Name = 4470566
REMARK  6 active torsions:
REMARK  status: ('A' for Active; 'I' for Inactive)
REMARK    1  A    between atoms: N_4  and  C_23
REMARK    2  A    between atoms: C_13  and  C_14
REMARK    3  A    between atoms: C_17  and  N_22
REMARK    4  A    between atoms: C_23  and  C_24
REMARK    5  A    between atoms: C_24  and  C_25
REMARK    6  A    between atoms: C_25  and  N_27
REMARK                            x       y       z     vdW  Elec       q    Type
REMARK                         _______ _______ _______ _____ _____    ______ ____
ROOT
ATOM      1  S   UNL     1      33.460 -20.595 -19.392  0.00  0.00    -0.086 S 
ATOM      2  S   UNL     1      37.611 -22.170 -15.337  0.00  0.00    -0.017 S 
ATOM      3  O   UNL     1      32.987 -24.104 -14.356  0.00  0.00    -0.268 OA
ATOM      4  N   UNL     1      35.234 -23.366 -14.533  0.00  0.00    -0.237 N 
ATOM      5  N   UNL     1      35.048 -22.204 -16.340  0.00  0.00    -0.244 N 
ATOM      6  C   UNL     1      33.815 -22.710 -16.091  0.00  0.00    +0.112 C 
ATOM      7  C   UNL     1      34.983 -21.454 -17.484  0.00  0.00    +0.064 C 
ATOM      8  C   UNL     1      36.002 -22.570 -15.402  0.00  0.00    +0.152 C 
ATOM      9  C   UNL     1      33.889 -23.488 -14.902  0.00  0.00    +0.268 C 
ATOM     10  C   UNL     1      33.684 -21.510 -17.935  0.00  0.00    +0.045 C 
ATOM     11  C   UNL     1      32.913 -22.322 -17.041  0.00  0.00    +0.028 C 
ATOM     12  C   UNL     1      35.835 -20.669 -18.306  0.00  0.00    +0.022 C 
ATOM     13  C   UNL     1      35.121 -20.154 -19.368  0.00  0.00    +0.031 C 
ENDROOT
BRANCH  13  14
ATOM     14  C   UNL     1      35.607 -19.306 -20.433  0.00  0.00    +0.008 C 
ATOM     15  C   UNL     1      34.767 -18.968 -21.491  0.00  0.00    +0.025 C 
ATOM     16  C   UNL     1      36.916 -18.828 -20.397  0.00  0.00    +0.001 C 
ATOM     17  C   UNL     1      35.236 -18.148 -22.517  0.00  0.00    +0.143 C 
ATOM     18  C   UNL     1      37.385 -18.009 -21.423  0.00  0.00    +0.002 C 
ATOM     19  C   UNL     1      36.545 -17.669 -22.483  0.00  0.00    +0.024 C 
BRANCH  17  22
ATOM     20  O   UNL     1      33.428 -18.569 -23.886  0.00  0.00    -0.126 OA
ATOM     21  O   UNL     1      34.602 -16.747 -24.235  0.00  0.00    -0.126 OA
ATOM     22  N   UNL     1      34.381 -17.804 -23.597  0.00  0.00    +0.058 N 
ENDBRANCH  17  22
ENDBRANCH  13  14
BRANCH   4  23
ATOM     23  C   UNL     1      35.759 -24.020 -13.342  0.00  0.00    +0.098 C 
BRANCH  23  24
ATOM     24  C   UNL     1      36.436 -25.352 -13.655  0.00  0.00    -0.001 C 
BRANCH  24  25
ATOM     25  C   UNL     1      37.370 -25.862 -12.554  0.00  0.00    -0.075 C 
BRANCH  25  27
ATOM     26  O   UNL     1      40.808 -24.113 -14.207  0.00  0.00    -0.358 OA
ATOM     27  N   UNL     1      38.770 -25.554 -12.840  0.00  0.00    +0.390 N 
ATOM     28  C   UNL     1      39.076 -24.155 -12.510  0.00  0.00    -0.045 C 
ATOM     29  C   UNL     1      39.084 -25.818 -14.252  0.00  0.00    -0.045 C 
ATOM     30  C   UNL     1      40.537 -23.855 -12.829  0.00  0.00    +0.119 C 
ATOM     31  C   UNL     1      40.546 -25.480 -14.529  0.00  0.00    +0.119 C 
ATOM     32  H   UNL     1      39.348 -26.161 -12.259  0.00  0.00    -0.079 HD
ENDBRANCH  25  27
ENDBRANCH  24  25
ENDBRANCH  23  24
ENDBRANCH   4  23
TORSDOF 6
ENDMDL
MODEL 4
REMARK VINA RESULT:     -10.6      4.282      5.031
REMARK  Name = 4470566
REMARK  6 active torsions:
REMARK  status: ('A' for Active; 'I' for Inactive)
REMARK    1  A    between atoms: N_4  and  C_23
REMARK    2  A    between atoms: C_13  and  C_14
REMARK    3  A    between atoms: C_17  and  N_22
REMARK    4  A    between atoms: C_23  and  C_24
REMARK    5  A    between atoms: C_24  and  C_25
REMARK    6  A    between atoms: C_25  and  N_27
REMARK                            x       y       z     vdW  Elec       q    Type
REMARK                         _______ _______ _______ _____ _____    ______ ____
ROOT
ATOM      1  S   UNL     1      34.530 -22.638 -15.854  0.00  0.00    -0.086 S 
ATOM      2  S   UNL     1      32.725 -19.501 -20.654  0.00  0.00    -0.017 S 
ATOM      3  O   UNL     1      37.794 -19.504 -20.027  0.00  0.00    -0.268 OA
ATOM      4  N   UNL     1      35.498 -19.312 -20.590  0.00  0.00    -0.237 N 
ATOM      5  N   UNL     1      34.674 -20.485 -18.979  0.00  0.00    -0.244 N 
ATOM      6  C   UNL     1      36.019 -20.493 -18.800  0.00  0.00    +0.112 C 
ATOM      7  C   UNL     1      34.101 -21.220 -17.975  0.00  0.00    +0.064 C 
ATOM      8  C   UNL     1      34.263 -19.760 -20.087  0.00  0.00    +0.152 C 
ATOM      9  C   UNL     1      36.608 -19.728 -19.844  0.00  0.00    +0.268 C 
ATOM     10  C   UNL     1      35.121 -21.683 -17.175  0.00  0.00    +0.045 C 
ATOM     11  C   UNL     1      36.372 -21.219 -17.698  0.00  0.00    +0.028 C 
ATOM     12  C   UNL     1      32.811 -21.627 -17.541  0.00  0.00    +0.022 C 
ATOM     13  C   UNL     1      32.919 -22.398 -16.404  0.00  0.00    +0.031 C 
ENDROOT
BRANCH  13  14
ATOM     14  C   UNL     1      31.851 -23.010 -15.644  0.00  0.00    +0.008 C 
ATOM     15  C   UNL     1      30.531 -22.876 -16.068  0.00  0.00    +0.025 C 
ATOM     16  C   UNL     1      32.148 -23.733 -14.490  0.00  0.00    +0.001 C 
ATOM     17  C   UNL     1      29.502 -23.468 -15.335  0.00  0.00    +0.143 C 
ATOM     18  C   UNL     1      31.118 -24.324 -13.757  0.00  0.00    +0.002 C 
ATOM     19  C   UNL     1      29.796 -24.191 -14.181  0.00  0.00    +0.024 C 
BRANCH  17  22
ATOM     20  O   UNL     1      27.790 -23.916 -16.814  0.00  0.00    -0.126 OA
ATOM     21  O   UNL     1      27.369 -22.628 -15.086  0.00  0.00    -0.126 OA
ATOM     22  N   UNL     1      28.156 -23.331 -15.765  0.00  0.00    +0.058 N 
ENDBRANCH  17  22
ENDBRANCH  13  14
BRANCH   4  23
ATOM     23  C   UNL     1      35.647 -18.484 -21.779  0.00  0.00    +0.098 C 
BRANCH  23  24
ATOM     24  C   UNL     1      35.662 -16.991 -21.456  0.00  0.00    -0.001 C 
BRANCH  24  25
ATOM     25  C   UNL     1      35.619 -16.077 -22.684  0.00  0.00    -0.075 C 
BRANCH  25  27
ATOM     26  O   UNL     1      33.158 -12.869 -21.560  0.00  0.00    -0.358 OA
ATOM     27  N   UNL     1      35.163 -14.731 -22.346  0.00  0.00    +0.390 N 
ATOM     28  C   UNL     1      34.658 -14.681 -20.967  0.00  0.00    -0.045 C 
ATOM     29  C   UNL     1      34.119 -14.284 -23.280  0.00  0.00    -0.045 C 
ATOM     30  C   UNL     1      34.175 -13.270 -20.642  0.00  0.00    +0.119 C 
ATOM     31  C   UNL     1      33.650 -12.882 -22.901  0.00  0.00    +0.119 C 
ATOM     32  H   UNL     1      35.961 -14.101 -22.425  0.00  0.00    -0.079 HD
ENDBRANCH  25  27
ENDBRANCH  24  25
ENDBRANCH  23  24
ENDBRANCH   4  23
TORSDOF 6
ENDMDL
MODEL 5
REMARK VINA RESULT:     -10.2      4.164     12.432
REMARK  Name = 4470566
REMARK  6 active torsions:
REMARK  status: ('A' for Active; 'I' for Inactive)
REMARK    1  A    between atoms: N_4  and  C_23
REMARK    2  A    between atoms: C_13  and  C_14
REMARK    3  A    between atoms: C_17  and  N_22
REMARK    4  A    between atoms: C_23  and  C_24
REMARK    5  A    between atoms: C_24  and  C_25
REMARK    6  A    between atoms: C_25  and  N_27
REMARK                            x       y       z     vdW  Elec       q    Type
REMARK                         _______ _______ _______ _____ _____    ______ ____
ROOT
ATOM      1  S   UNL     1      33.936 -13.043 -25.085  0.00  0.00    -0.086 S 
ATOM      2  S   UNL     1      35.302 -15.644 -19.839  0.00  0.00    -0.017 S 
ATOM      3  O   UNL     1      34.934 -18.959 -23.707  0.00  0.00    -0.268 OA
ATOM      4  N   UNL     1      35.176 -17.688 -21.719  0.00  0.00    -0.237 N 
ATOM      5  N   UNL     1      34.773 -15.734 -22.538  0.00  0.00    -0.244 N 
ATOM      6  C   UNL     1      34.672 -16.603 -23.575  0.00  0.00    +0.112 C 
ATOM      7  C   UNL     1      34.524 -14.472 -23.009  0.00  0.00    +0.064 C 
ATOM      8  C   UNL     1      35.088 -16.338 -21.331  0.00  0.00    +0.152 C 
ATOM      9  C   UNL     1      34.931 -17.912 -23.080  0.00  0.00    +0.268 C 
ATOM     10  C   UNL     1      34.269 -14.582 -24.357  0.00  0.00    +0.045 C 
ATOM     11  C   UNL     1      34.361 -15.960 -24.739  0.00  0.00    +0.028 C 
ATOM     12  C   UNL     1      34.459 -13.137 -22.527  0.00  0.00    +0.022 C 
ATOM     13  C   UNL     1      34.148 -12.278 -23.560  0.00  0.00    +0.031 C 
ENDROOT
BRANCH  13  14
ATOM     14  C   UNL     1      33.986 -10.842 -23.499  0.00  0.00    +0.008 C 
ATOM     15  C   UNL     1      33.105 -10.281 -22.578  0.00  0.00    +0.025 C 
ATOM     16  C   UNL     1      34.713 -10.026 -24.363  0.00  0.00    +0.001 C 
ATOM     17  C   UNL     1      32.951  -8.896 -22.519  0.00  0.00    +0.143 C 
ATOM     18  C   UNL     1      34.558  -8.641 -24.304  0.00  0.00    +0.002 C 
ATOM     19  C   UNL     1      33.677  -8.077 -23.382  0.00  0.00    +0.024 C 
BRANCH  17  22
ATOM     20  O   UNL     1      31.838  -8.920 -20.500  0.00  0.00    -0.126 OA
ATOM     21  O   UNL     1      31.496  -7.232 -21.861  0.00  0.00    -0.126 OA
ATOM     22  N   UNL     1      32.052  -8.322 -21.582  0.00  0.00    +0.058 N 
ENDBRANCH  17  22
ENDBRANCH  13  14
BRANCH   4  23
ATOM     23  C   UNL     1      35.491 -18.783 -20.813  0.00  0.00    +0.098 C 
BRANCH  23  24
ATOM     24  C   UNL     1      34.253 -19.331 -20.104  0.00  0.00    -0.001 C 
BRANCH  24  25
ATOM     25  C   UNL     1      34.323 -20.825 -19.775  0.00  0.00    -0.075 C 
BRANCH  25  27
ATOM     26  O   UNL     1      35.558 -22.634 -16.195  0.00  0.00    -0.358 OA
ATOM     27  N   UNL     1      34.582 -21.059 -18.356  0.00  0.00    +0.390 N 
ATOM     28  C   UNL     1      36.022 -21.213 -18.106  0.00  0.00    -0.045 C 
ATOM     29  C   UNL     1      33.859 -22.249 -17.883  0.00  0.00    -0.045 C 
ATOM     30  C   UNL     1      36.266 -21.469 -16.621  0.00  0.00    +0.119 C 
ATOM     31  C   UNL     1      34.154 -22.479 -16.403  0.00  0.00    +0.119 C 
ATOM     32  H   UNL     1      34.246 -20.248 -17.838  0.00  0.00    -0.079 HD
ENDBRANCH  25  27
ENDBRANCH  24  25
ENDBRANCH  23  24
ENDBRANCH   4  23
TORSDOF 6
ENDMDL
MODEL 6
REMARK VINA RESULT:     -10.1      2.101     10.820
REMARK  Name = 4470566
REMARK  6 active torsions:
REMARK  status: ('A' for Active; 'I' for Inactive)
REMARK    1  A    between atoms: N_4  and  C_23
REMARK    2  A    between atoms: C_13  and  C_14
REMARK    3  A    between atoms: C_17  and  N_22
REMARK    4  A    between atoms: C_23  and  C_24
REMARK    5  A    between atoms: C_24  and  C_25
REMARK    6  A    between atoms: C_25  and  N_27
REMARK                            x       y       z     vdW  Elec       q    Type
REMARK                         _______ _______ _______ _____ _____    ______ ____
ROOT
ATOM      1  S   UNL     1      37.042 -18.783 -20.679  0.00  0.00    -0.086 S 
ATOM      2  S   UNL     1      32.519 -21.683 -17.982  0.00  0.00    -0.017 S 
ATOM      3  O   UNL     1      37.031 -22.402 -15.699  0.00  0.00    -0.268 OA
ATOM      4  N   UNL     1      34.810 -22.269 -16.519  0.00  0.00    -0.237 N 
ATOM      5  N   UNL     1      35.168 -20.971 -18.204  0.00  0.00    -0.244 N 
ATOM      6  C   UNL     1      36.373 -21.154 -17.608  0.00  0.00    +0.112 C 
ATOM      7  C   UNL     1      35.342 -20.149 -19.286  0.00  0.00    +0.064 C 
ATOM      8  C   UNL     1      34.128 -21.641 -17.578  0.00  0.00    +0.152 C 
ATOM      9  C   UNL     1      36.185 -22.007 -16.486  0.00  0.00    +0.268 C 
ATOM     10  C   UNL     1      36.679 -19.829 -19.344  0.00  0.00    +0.045 C 
ATOM     11  C   UNL     1      37.362 -20.474 -18.260  0.00  0.00    +0.028 C 
ATOM     12  C   UNL     1      34.572 -19.556 -20.321  0.00  0.00    +0.022 C 
ATOM     13  C   UNL     1      35.385 -18.795 -21.135  0.00  0.00    +0.031 C 
ENDROOT
BRANCH  13  14
ATOM     14  C   UNL     1      35.002 -18.027 -22.300  0.00  0.00    +0.008 C 
ATOM     15  C   UNL     1      35.047 -16.636 -22.261  0.00  0.00    +0.025 C 
ATOM     16  C   UNL     1      34.592 -18.684 -23.458  0.00  0.00    +0.001 C 
ATOM     17  C   UNL     1      34.681 -15.897 -23.385  0.00  0.00    +0.143 C 
ATOM     18  C   UNL     1      34.224 -17.945 -24.582  0.00  0.00    +0.002 C 
ATOM     19  C   UNL     1      34.269 -16.551 -24.545  0.00  0.00    +0.024 C 
BRANCH  17  22
ATOM     20  O   UNL     1      35.340 -13.914 -22.410  0.00  0.00    -0.126 OA
ATOM     21  O   UNL     1      34.145 -13.827 -24.250  0.00  0.00    -0.126 OA
ATOM     22  N   UNL     1      34.724 -14.478 -23.347  0.00  0.00    +0.058 N 
ENDBRANCH  17  22
ENDBRANCH  13  14
BRANCH   4  23
ATOM     23  C   UNL     1      34.173 -23.123 -15.526  0.00  0.00    +0.098 C 
BRANCH  23  24
ATOM     24  C   UNL     1      34.306 -22.572 -14.108  0.00  0.00    -0.001 C 
BRANCH  24  25
ATOM     25  C   UNL     1      34.875 -23.567 -13.093  0.00  0.00    -0.075 C 
BRANCH  25  27
ATOM     26  O   UNL     1      38.629 -23.620 -11.216  0.00  0.00    -0.358 OA
ATOM     27  N   UNL     1      36.277 -23.289 -12.784  0.00  0.00    +0.390 N 
ATOM     28  C   UNL     1      37.080 -24.518 -12.852  0.00  0.00    -0.045 C 
ATOM     29  C   UNL     1      36.407 -22.676 -11.455  0.00  0.00    -0.045 C 
ATOM     30  C   UNL     1      38.535 -24.206 -12.514  0.00  0.00    +0.119 C 
ATOM     31  C   UNL     1      37.878 -22.407 -11.151  0.00  0.00    +0.119 C 
ATOM     32  H   UNL     1      36.626 -22.632 -13.481  0.00  0.00    -0.079 HD
ENDBRANCH  25  27
ENDBRANCH  24  25
ENDBRANCH  23  24
ENDBRANCH   4  23
TORSDOF 6
ENDMDL
MODEL 7
REMARK VINA RESULT:      -9.6      3.245     10.472
REMARK  Name = 4470566
REMARK  6 active torsions:
REMARK  status: ('A' for Active; 'I' for Inactive)
REMARK    1  A    between atoms: N_4  and  C_23
REMARK    2  A    between atoms: C_13  and  C_14
REMARK    3  A    between atoms: C_17  and  N_22
REMARK    4  A    between atoms: C_23  and  C_24
REMARK    5  A    between atoms: C_24  and  C_25
REMARK    6  A    between atoms: C_25  and  N_27
REMARK                            x       y       z     vdW  Elec       q    Type
REMARK                         _______ _______ _______ _____ _____    ______ ____
ROOT
ATOM      1  S   UNL     1      37.008 -18.824 -20.633  0.00  0.00    -0.086 S 
ATOM      2  S   UNL     1      32.406 -21.677 -18.019  0.00  0.00    -0.017 S 
ATOM      3  O   UNL     1      36.874 -22.470 -15.675  0.00  0.00    -0.268 OA
ATOM      4  N   UNL     1      34.666 -22.302 -16.527  0.00  0.00    -0.237 N 
ATOM      5  N   UNL     1      35.067 -21.000 -18.198  0.00  0.00    -0.244 N 
ATOM      6  C   UNL     1      36.260 -21.202 -17.586  0.00  0.00    +0.112 C 
ATOM      7  C   UNL     1      35.269 -20.175 -19.273  0.00  0.00    +0.064 C 
ATOM      8  C   UNL     1      34.009 -21.660 -17.592  0.00  0.00    +0.152 C 
ATOM      9  C   UNL     1      36.045 -22.060 -16.471  0.00  0.00    +0.268 C 
ATOM     10  C   UNL     1      36.611 -19.872 -19.309  0.00  0.00    +0.045 C 
ATOM     11  C   UNL     1      37.268 -20.533 -18.220  0.00  0.00    +0.028 C 
ATOM     12  C   UNL     1      34.522 -19.565 -20.316  0.00  0.00    +0.022 C 
ATOM     13  C   UNL     1      35.357 -18.811 -21.114  0.00  0.00    +0.031 C 
ENDROOT
BRANCH  13  14
ATOM     14  C   UNL     1      35.002 -18.032 -22.279  0.00  0.00    +0.008 C 
ATOM     15  C   UNL     1      35.053 -16.641 -22.228  0.00  0.00    +0.025 C 
ATOM     16  C   UNL     1      34.612 -18.677 -23.451  0.00  0.00    +0.001 C 
ATOM     17  C   UNL     1      34.713 -15.890 -23.353  0.00  0.00    +0.143 C 
ATOM     18  C   UNL     1      34.271 -17.926 -24.576  0.00  0.00    +0.002 C 
ATOM     19  C   UNL     1      34.322 -16.533 -24.527  0.00  0.00    +0.024 C 
BRANCH  17  22
ATOM     20  O   UNL     1      35.361 -13.919 -22.347  0.00  0.00    -0.126 OA
ATOM     21  O   UNL     1      34.206 -13.811 -24.211  0.00  0.00    -0.126 OA
ATOM     22  N   UNL     1      34.763 -14.473 -23.302  0.00  0.00    +0.058 N 
ENDBRANCH  17  22
ENDBRANCH  13  14
BRANCH   4  23
ATOM     23  C   UNL     1      34.004 -23.153 -15.548  0.00  0.00    +0.098 C 
BRANCH  23  24
ATOM     24  C   UNL     1      33.758 -22.438 -14.221  0.00  0.00    -0.001 C 
BRANCH  24  25
ATOM     25  C   UNL     1      32.297 -22.054 -13.969  0.00  0.00    -0.075 C 
BRANCH  25  27
ATOM     26  O   UNL     1      28.886 -24.396 -14.670  0.00  0.00    -0.358 OA
ATOM     27  N   UNL     1      31.371 -23.012 -14.570  0.00  0.00    +0.390 N 
ATOM     28  C   UNL     1      30.135 -22.343 -15.001  0.00  0.00    -0.045 C 
ATOM     29  C   UNL     1      31.054 -24.094 -13.627  0.00  0.00    -0.045 C 
ATOM     30  C   UNL     1      29.180 -23.364 -15.613  0.00  0.00    +0.119 C 
ATOM     31  C   UNL     1      30.078 -25.073 -14.271  0.00  0.00    +0.119 C 
ATOM     32  H   UNL     1      31.826 -23.416 -15.388  0.00  0.00    -0.079 HD
ENDBRANCH  25  27
ENDBRANCH  24  25
ENDBRANCH  23  24
ENDBRANCH   4  23
TORSDOF 6
ENDMDL
MODEL 8
REMARK VINA RESULT:      -9.6      6.899     14.543
REMARK  Name = 4470566
REMARK  6 active torsions:
REMARK  status: ('A' for Active; 'I' for Inactive)
REMARK    1  A    between atoms: N_4  and  C_23
REMARK    2  A    between atoms: C_13  and  C_14
REMARK    3  A    between atoms: C_17  and  N_22
REMARK    4  A    between atoms: C_23  and  C_24
REMARK    5  A    between atoms: C_24  and  C_25
REMARK    6  A    between atoms: C_25  and  N_27
REMARK                            x       y       z     vdW  Elec       q    Type
REMARK                         _______ _______ _______ _____ _____    ______ ____
ROOT
ATOM      1  S   UNL     1      33.379  -7.610 -23.699  0.00  0.00    -0.086 S 
ATOM      2  S   UNL     1      33.094 -13.020 -21.093  0.00  0.00    -0.017 S 
ATOM      3  O   UNL     1      34.343 -13.220 -26.041  0.00  0.00    -0.268 OA
ATOM      4  N   UNL     1      33.787 -13.463 -23.748  0.00  0.00    -0.237 N 
ATOM      5  N   UNL     1      33.524 -11.379 -23.260  0.00  0.00    -0.244 N 
ATOM      6  C   UNL     1      33.854 -11.418 -24.575  0.00  0.00    +0.112 C 
ATOM      7  C   UNL     1      33.345 -10.071 -22.899  0.00  0.00    +0.064 C 
ATOM      8  C   UNL     1      33.460 -12.630 -22.664  0.00  0.00    +0.152 C 
ATOM      9  C   UNL     1      34.039 -12.780 -24.945  0.00  0.00    +0.268 C 
ATOM     10  C   UNL     1      33.573  -9.303 -24.019  0.00  0.00    +0.045 C 
ATOM     11  C   UNL     1      33.905 -10.165 -25.115  0.00  0.00    +0.028 C 
ATOM     12  C   UNL     1      33.007  -9.308 -21.749  0.00  0.00    +0.022 C 
ATOM     13  C   UNL     1      32.995  -7.965 -22.061  0.00  0.00    +0.031 C 
ENDROOT
BRANCH  13  14
ATOM     14  C   UNL     1      32.702  -6.854 -21.183  0.00  0.00    +0.008 C 
ATOM     15  C   UNL     1      32.355  -5.617 -21.720  0.00  0.00    +0.025 C 
ATOM     16  C   UNL     1      32.765  -7.027 -19.802  0.00  0.00    +0.001 C 
ATOM     17  C   UNL     1      32.070  -4.546 -20.872  0.00  0.00    +0.143 C 
ATOM     18  C   UNL     1      32.481  -5.956 -18.955  0.00  0.00    +0.002 C 
ATOM     19  C   UNL     1      32.134  -4.717 -19.490  0.00  0.00    +0.024 C 
BRANCH  17  22
ATOM     20  O   UNL     1      30.510  -2.947 -21.442  0.00  0.00    -0.126 OA
ATOM     21  O   UNL     1      32.626  -2.539 -21.862  0.00  0.00    -0.126 OA
ATOM     22  N   UNL     1      31.719  -3.284 -21.418  0.00  0.00    +0.058 N 
ENDBRANCH  17  22
ENDBRANCH  13  14
BRANCH   4  23
ATOM     23  C   UNL     1      33.866 -14.916 -23.672  0.00  0.00    +0.098 C 
BRANCH  23  24
ATOM     24  C   UNL     1      35.195 -15.401 -23.096  0.00  0.00    -0.001 C 
BRANCH  24  25
ATOM     25  C   UNL     1      35.411 -16.914 -23.191  0.00  0.00    -0.075 C 
BRANCH  25  27
ATOM     26  O   UNL     1      36.088 -19.715 -20.140  0.00  0.00    -0.358 OA
ATOM     27  N   UNL     1      35.484 -17.538 -21.872  0.00  0.00    +0.390 N 
ATOM     28  C   UNL     1      36.871 -17.894 -21.538  0.00  0.00    -0.045 C 
ATOM     29  C   UNL     1      34.630 -18.733 -21.812  0.00  0.00    -0.045 C 
ATOM     30  C   UNL     1      36.920 -18.555 -20.164  0.00  0.00    +0.119 C 
ATOM     31  C   UNL     1      34.732 -19.374 -20.431  0.00  0.00    +0.119 C 
ATOM     32  H   UNL     1      35.146 -16.863 -21.187  0.00  0.00    -0.079 HD
ENDBRANCH  25  27
ENDBRANCH  24  25
ENDBRANCH  23  24
ENDBRANCH   4  23
TORSDOF 6
ENDMDL
MODEL 9
REMARK VINA RESULT:      -9.6      5.090     12.757
REMARK  Name = 4470566
REMARK  6 active torsions:
REMARK  status: ('A' for Active; 'I' for Inactive)
REMARK    1  A    between atoms: N_4  and  C_23
REMARK    2  A    between atoms: C_13  and  C_14
REMARK    3  A    between atoms: C_17  and  N_22
REMARK    4  A    between atoms: C_23  and  C_24
REMARK    5  A    between atoms: C_24  and  C_25
REMARK    6  A    between atoms: C_25  and  N_27
REMARK                            x       y       z     vdW  Elec       q    Type
REMARK                         _______ _______ _______ _____ _____    ______ ____
ROOT
ATOM      1  S   UNL     1      33.713 -11.560 -25.251  0.00  0.00    -0.086 S 
ATOM      2  S   UNL     1      35.242 -15.281 -20.783  0.00  0.00    -0.017 S 
ATOM      3  O   UNL     1      34.225 -17.694 -25.168  0.00  0.00    -0.268 OA
ATOM      4  N   UNL     1      34.757 -16.880 -23.005  0.00  0.00    -0.237 N 
ATOM      5  N   UNL     1      34.485 -14.774 -23.380  0.00  0.00    -0.244 N 
ATOM      6  C   UNL     1      34.211 -15.402 -24.551  0.00  0.00    +0.112 C 
ATOM      7  C   UNL     1      34.326 -13.427 -23.566  0.00  0.00    +0.064 C 
ATOM      8  C   UNL     1      34.837 -15.636 -22.353  0.00  0.00    +0.152 C 
ATOM      9  C   UNL     1      34.378 -16.800 -24.351  0.00  0.00    +0.268 C 
ATOM     10  C   UNL     1      33.950 -13.237 -24.876  0.00  0.00    +0.045 C 
ATOM     11  C   UNL     1      33.871 -14.511 -25.528  0.00  0.00    +0.028 C 
ATOM     12  C   UNL     1      34.435 -12.218 -22.828  0.00  0.00    +0.022 C 
ATOM     13  C   UNL     1      34.127 -11.143 -23.635  0.00  0.00    +0.031 C 
ENDROOT
BRANCH  13  14
ATOM     14  C   UNL     1      34.115  -9.742 -23.278  0.00  0.00    +0.008 C 
ATOM     15  C   UNL     1      33.052  -9.221 -22.544  0.00  0.00    +0.025 C 
ATOM     16  C   UNL     1      35.168  -8.918 -23.669  0.00  0.00    +0.001 C 
ATOM     17  C   UNL     1      33.042  -7.869 -22.199  0.00  0.00    +0.143 C 
ATOM     18  C   UNL     1      35.158  -7.567 -23.324  0.00  0.00    +0.002 C 
ATOM     19  C   UNL     1      34.095  -7.043 -22.589  0.00  0.00    +0.024 C 
BRANCH  17  22
ATOM     20  O   UNL     1      31.070  -6.684 -22.051  0.00  0.00    -0.126 OA
ATOM     21  O   UNL     1      31.921  -7.530 -20.213  0.00  0.00    -0.126 OA
ATOM     22  N   UNL     1      31.959  -7.336 -21.452  0.00  0.00    +0.058 N 
ENDBRANCH  17  22
ENDBRANCH  13  14
BRANCH   4  23
ATOM     23  C   UNL     1      35.034 -18.160 -22.367  0.00  0.00    +0.098 C 
BRANCH  23  24
ATOM     24  C   UNL     1      36.447 -18.234 -21.793  0.00  0.00    -0.001 C 
BRANCH  24  25
ATOM     25  C   UNL     1      36.520 -18.764 -20.358  0.00  0.00    -0.075 C 
BRANCH  25  27
ATOM     26  O   UNL     1      33.619 -21.155 -18.491  0.00  0.00    -0.358 OA
ATOM     27  N   UNL     1      35.537 -19.818 -20.115  0.00  0.00    +0.390 N 
ATOM     28  C   UNL     1      34.207 -19.244 -19.865  0.00  0.00    -0.045 C 
ATOM     29  C   UNL     1      35.943 -20.660 -18.981  0.00  0.00    -0.045 C 
ATOM     30  C   UNL     1      33.201 -20.361 -19.603  0.00  0.00    +0.119 C 
ATOM     31  C   UNL     1      34.896 -21.744 -18.740  0.00  0.00    +0.119 C 
ATOM     32  H   UNL     1      35.489 -20.400 -20.951  0.00  0.00    -0.079 HD
ENDBRANCH  25  27
ENDBRANCH  24  25
ENDBRANCH  23  24
ENDBRANCH   4  23
TORSDOF 6
ENDMDL
