MODEL 1
REMARK VINA RESULT:     -12.3      0.000      0.000
REMARK  Name = 3488
REMARK  8 active torsions:
REMARK  status: ('A' for Active; 'I' for Inactive)
REMARK    1  A    between atoms: C_1  and  S_7
REMARK    2  A    between atoms: C_2  and  C_22
REMARK    3  A    between atoms: S_7  and  N_12
REMARK    4  A    between atoms: N_11  and  C_16
REMARK    5  A    between atoms: C_22  and  C_23
REMARK    6  A    between atoms: C_23  and  N_25
REMARK    7  A    between atoms: C_26  and  C_29
REMARK    8  A    between atoms: C_30  and  O_35
REMARK                            x       y       z     vdW  Elec       q    Type
REMARK                         _______ _______ _______ _____ _____    ______ ____
ROOT
ATOM      1  C   UNL     1      34.250 -21.568 -18.105  0.00  0.00    +0.125 C 
ATOM      2  C   UNL     1      35.068 -19.791 -20.064  0.00  0.00    -0.020 C 
ATOM      3  C   UNL     1      35.602 -21.352 -18.298  0.00  0.00    +0.020 C 
ATOM      4  C   UNL     1      33.295 -20.917 -18.867  0.00  0.00    +0.020 C 
ATOM      5  C   UNL     1      36.015 -20.456 -19.286  0.00  0.00    -0.003 C 
ATOM      6  C   UNL     1      33.707 -20.021 -19.854  0.00  0.00    -0.003 C 
ENDROOT
BRANCH   1   7
ATOM      7  S   UNL     1      33.727 -22.703 -16.854  0.00  0.00    +0.077 S 
ATOM      8  O   UNL     1      33.475 -23.984 -17.485  0.00  0.00    -0.150 OA
ATOM      9  O   UNL     1      32.687 -22.039 -16.094  0.00  0.00    -0.150 OA
BRANCH   7  12
ATOM     10  O   UNL     1      34.354 -24.242 -14.230  0.00  0.00    -0.251 OA
ATOM     11  N   UNL     1      36.533 -23.473 -14.140  0.00  0.00    -0.289 N 
ATOM     12  N   UNL     1      35.142 -22.812 -15.900  0.00  0.00    -0.169 N 
ATOM     13  C   UNL     1      35.272 -23.575 -14.696  0.00  0.00    +0.319 C 
ATOM     14  H   UNL     1      37.203 -22.910 -14.590  0.00  0.00    +0.151 HD
ATOM     15  H   UNL     1      35.931 -22.308 -16.204  0.00  0.00    +0.178 HD
BRANCH  11  16
ATOM     16  C   UNL     1      36.912 -24.158 -12.923  0.00  0.00    +0.073 C 
ATOM     17  C   UNL     1      38.181 -23.546 -12.320  0.00  0.00    +0.020 C 
ATOM     18  C   UNL     1      37.080 -25.660 -13.166  0.00  0.00    +0.020 C 
ATOM     19  C   UNL     1      39.431 -23.874 -13.135  0.00  0.00    +0.002 C 
ATOM     20  C   UNL     1      38.333 -25.985 -13.980  0.00  0.00    +0.002 C 
ATOM     21  C   UNL     1      39.584 -25.376 -13.354  0.00  0.00    +0.000 C 
ENDBRANCH  11  16
ENDBRANCH   7  12
ENDBRANCH   1   7
BRANCH   2  22
ATOM     22  C   UNL     1      35.507 -18.834 -21.120  0.00  0.00    +0.048 C 
BRANCH  22  23
ATOM     23  C   UNL     1      36.076 -17.523 -20.561  0.00  0.00    +0.094 C 
BRANCH  23  25
ATOM     24  O   UNL     1      35.320 -15.199 -19.057  0.00  0.00    -0.270 OA
ATOM     25  N   UNL     1      35.378 -16.370 -21.058  0.00  0.00    -0.300 N 
ATOM     26  C   UNL     1      35.053 -15.285 -20.253  0.00  0.00    +0.249 C 
ATOM     27  H   UNL     1      35.119 -16.346 -22.009  0.00  0.00    +0.150 HD
BRANCH  26  29
ATOM     28 CL   UNL     1      31.496 -11.570 -19.854  0.00  0.00    -0.082 Cl
ATOM     29  C   UNL     1      34.306 -14.182 -20.911  0.00  0.00    +0.088 C 
ATOM     30  C   UNL     1      34.555 -13.879 -22.234  0.00  0.00    +0.143 C 
ATOM     31  C   UNL     1      33.375 -13.491 -20.161  0.00  0.00    +0.019 C 
ATOM     32  C   UNL     1      33.844 -12.840 -22.834  0.00  0.00    +0.038 C 
ATOM     33  C   UNL     1      32.664 -12.451 -20.762  0.00  0.00    +0.058 C 
ATOM     34  C   UNL     1      32.898 -12.127 -22.098  0.00  0.00    +0.015 C 
BRANCH  30  35
ATOM     35  O   UNL     1      35.475 -14.564 -22.971  0.00  0.00    -0.471 OA
ATOM     36  C   UNL     1      35.015 -15.176 -24.173  0.00  0.00    +0.252 C 
ENDBRANCH  30  35
ENDBRANCH  26  29
ENDBRANCH  23  25
ENDBRANCH  22  23
ENDBRANCH   2  22
TORSDOF 8
ENDMDL
MODEL 2
REMARK VINA RESULT:     -12.2      1.330      1.882
REMARK  Name = 3488
REMARK  8 active torsions:
REMARK  status: ('A' for Active; 'I' for Inactive)
REMARK    1  A    between atoms: C_1  and  S_7
REMARK    2  A    between atoms: C_2  and  C_22
REMARK    3  A    between atoms: S_7  and  N_12
REMARK    4  A    between atoms: N_11  and  C_16
REMARK    5  A    between atoms: C_22  and  C_23
REMARK    6  A    between atoms: C_23  and  N_25
REMARK    7  A    between atoms: C_26  and  C_29
REMARK    8  A    between atoms: C_30  and  O_35
REMARK                            x       y       z     vdW  Elec       q    Type
REMARK                         _______ _______ _______ _____ _____    ______ ____
ROOT
ATOM      1  C   UNL     1      34.370 -21.366 -18.278  0.00  0.00    +0.125 C 
ATOM      2  C   UNL     1      35.470 -19.511 -20.014  0.00  0.00    -0.020 C 
ATOM      3  C   UNL     1      33.532 -20.615 -19.084  0.00  0.00    +0.020 C 
ATOM      4  C   UNL     1      35.744 -21.213 -18.319  0.00  0.00    +0.020 C 
ATOM      5  C   UNL     1      34.087 -19.679 -19.959  0.00  0.00    -0.003 C 
ATOM      6  C   UNL     1      36.300 -20.278 -19.195  0.00  0.00    -0.003 C 
ENDROOT
BRANCH   1   7
ATOM      7  S   UNL     1      33.667 -22.551 -17.170  0.00  0.00    +0.077 S 
ATOM      8  O   UNL     1      33.676 -23.844 -17.827  0.00  0.00    -0.150 OA
ATOM      9  O   UNL     1      32.426 -21.983 -16.681  0.00  0.00    -0.150 OA
BRANCH   7  12
ATOM     10  O   UNL     1      33.820 -24.095 -14.479  0.00  0.00    -0.251 OA
ATOM     11  N   UNL     1      35.827 -23.120 -13.878  0.00  0.00    -0.289 N 
ATOM     12  N   UNL     1      34.824 -22.548 -15.911  0.00  0.00    -0.169 N 
ATOM     13  C   UNL     1      34.748 -23.329 -14.715  0.00  0.00    +0.319 C 
ATOM     14  H   UNL     1      36.523 -22.482 -14.156  0.00  0.00    +0.151 HD
ATOM     15  H   UNL     1      35.607 -21.961 -16.020  0.00  0.00    +0.178 HD
BRANCH  11  16
ATOM     16  C   UNL     1      35.981 -23.799 -12.609  0.00  0.00    +0.073 C 
ATOM     17  C   UNL     1      36.365 -22.813 -11.501  0.00  0.00    +0.020 C 
ATOM     18  C   UNL     1      36.996 -24.941 -12.714  0.00  0.00    +0.020 C 
ATOM     19  C   UNL     1      37.802 -22.311 -11.638  0.00  0.00    +0.002 C 
ATOM     20  C   UNL     1      38.433 -24.435 -12.849  0.00  0.00    +0.002 C 
ATOM     21  C   UNL     1      38.796 -23.466 -11.728  0.00  0.00    +0.000 C 
ENDBRANCH  11  16
ENDBRANCH   7  12
ENDBRANCH   1   7
BRANCH   2  22
ATOM     22  C   UNL     1      36.064 -18.511 -20.948  0.00  0.00    +0.048 C 
BRANCH  22  23
ATOM     23  C   UNL     1      35.944 -17.063 -20.454  0.00  0.00    +0.094 C 
BRANCH  23  25
ATOM     24  O   UNL     1      34.521 -14.591 -20.137  0.00  0.00    -0.270 OA
ATOM     25  N   UNL     1      35.549 -16.160 -21.500  0.00  0.00    -0.300 N 
ATOM     26  C   UNL     1      34.859 -14.980 -21.252  0.00  0.00    +0.249 C 
ATOM     27  H   UNL     1      35.776 -16.387 -22.432  0.00  0.00    +0.150 HD
BRANCH  26  29
ATOM     28 CL   UNL     1      34.028 -10.305 -23.266  0.00  0.00    -0.082 Cl
ATOM     29  C   UNL     1      34.500 -14.169 -22.444  0.00  0.00    +0.088 C 
ATOM     30  C   UNL     1      34.236 -14.795 -23.645  0.00  0.00    +0.143 C 
ATOM     31  C   UNL     1      34.443 -12.797 -22.302  0.00  0.00    +0.019 C 
ATOM     32  C   UNL     1      33.900 -14.017 -24.752  0.00  0.00    +0.038 C 
ATOM     33  C   UNL     1      34.108 -12.019 -23.410  0.00  0.00    +0.058 C 
ATOM     34  C   UNL     1      33.836 -12.628 -24.635  0.00  0.00    +0.015 C 
BRANCH  30  35
ATOM     35  O   UNL     1      34.294 -16.150 -23.780  0.00  0.00    -0.471 OA
ATOM     36  C   UNL     1      33.907 -16.691 -25.042  0.00  0.00    +0.252 C 
ENDBRANCH  30  35
ENDBRANCH  26  29
ENDBRANCH  23  25
ENDBRANCH  22  23
ENDBRANCH   2  22
TORSDOF 8
ENDMDL
MODEL 3
REMARK VINA RESULT:     -12.2      1.695      2.501
REMARK  Name = 3488
REMARK  8 active torsions:
REMARK  status: ('A' for Active; 'I' for Inactive)
REMARK    1  A    between atoms: C_1  and  S_7
REMARK    2  A    between atoms: C_2  and  C_22
REMARK    3  A    between atoms: S_7  and  N_12
REMARK    4  A    between atoms: N_11  and  C_16
REMARK    5  A    between atoms: C_22  and  C_23
REMARK    6  A    between atoms: C_23  and  N_25
REMARK    7  A    between atoms: C_26  and  C_29
REMARK    8  A    between atoms: C_30  and  O_35
REMARK                            x       y       z     vdW  Elec       q    Type
REMARK                         _______ _______ _______ _____ _____    ______ ____
ROOT
ATOM      1  C   UNL     1      34.675 -21.041 -18.687  0.00  0.00    +0.125 C 
ATOM      2  C   UNL     1      35.968 -19.153 -20.246  0.00  0.00    -0.020 C 
ATOM      3  C   UNL     1      36.055 -20.955 -18.637  0.00  0.00    +0.020 C 
ATOM      4  C   UNL     1      33.925 -20.206 -19.496  0.00  0.00    +0.020 C 
ATOM      5  C   UNL     1      36.707 -20.004 -19.423  0.00  0.00    -0.003 C 
ATOM      6  C   UNL     1      34.576 -19.254 -20.282  0.00  0.00    -0.003 C 
ENDROOT
BRANCH   1   7
ATOM      7  S   UNL     1      33.848 -22.246 -17.691  0.00  0.00    +0.077 S 
ATOM      8  O   UNL     1      33.836 -23.500 -18.420  0.00  0.00    -0.150 OA
ATOM      9  O   UNL     1      32.609 -21.643 -17.244  0.00  0.00    -0.150 OA
BRANCH   7  12
ATOM     10  O   UNL     1      33.712 -23.864 -15.043  0.00  0.00    -0.251 OA
ATOM     11  N   UNL     1      35.754 -23.075 -14.298  0.00  0.00    -0.289 N 
ATOM     12  N   UNL     1      34.924 -22.371 -16.368  0.00  0.00    -0.169 N 
ATOM     13  C   UNL     1      34.713 -23.172 -15.202  0.00  0.00    +0.319 C 
ATOM     14  H   UNL     1      36.515 -22.491 -14.517  0.00  0.00    +0.151 HD
ATOM     15  H   UNL     1      35.758 -21.849 -16.414  0.00  0.00    +0.178 HD
BRANCH  11  16
ATOM     16  C   UNL     1      35.774 -23.795 -13.043  0.00  0.00    +0.073 C 
ATOM     17  C   UNL     1      36.106 -22.858 -11.876  0.00  0.00    +0.020 C 
ATOM     18  C   UNL     1      36.748 -24.976 -13.102  0.00  0.00    +0.020 C 
ATOM     19  C   UNL     1      37.568 -22.415 -11.881  0.00  0.00    +0.002 C 
ATOM     20  C   UNL     1      38.210 -24.529 -13.104  0.00  0.00    +0.002 C 
ATOM     21  C   UNL     1      38.519 -23.609 -11.927  0.00  0.00    +0.000 C 
ENDBRANCH  11  16
ENDBRANCH   7  12
ENDBRANCH   1   7
BRANCH   2  22
ATOM     22  C   UNL     1      36.664 -18.137 -21.086  0.00  0.00    +0.048 C 
BRANCH  22  23
ATOM     23  C   UNL     1      35.954 -17.850 -22.415  0.00  0.00    +0.094 C 
BRANCH  23  25
ATOM     24  O   UNL     1      34.234 -16.721 -24.417  0.00  0.00    -0.270 OA
ATOM     25  N   UNL     1      35.589 -16.466 -22.552  0.00  0.00    -0.300 N 
ATOM     26  C   UNL     1      34.746 -16.008 -23.557  0.00  0.00    +0.249 C 
ATOM     27  H   UNL     1      35.952 -15.815 -21.907  0.00  0.00    +0.150 HD
BRANCH  26  29
ATOM     28 CL   UNL     1      33.437 -11.843 -26.303  0.00  0.00    -0.082 Cl
ATOM     29  C   UNL     1      34.489 -14.545 -23.578  0.00  0.00    +0.088 C 
ATOM     30  C   UNL     1      34.610 -13.810 -22.417  0.00  0.00    +0.143 C 
ATOM     31  C   UNL     1      34.131 -13.967 -24.780  0.00  0.00    +0.019 C 
ATOM     32  C   UNL     1      34.364 -12.438 -22.457  0.00  0.00    +0.038 C 
ATOM     33  C   UNL     1      33.884 -12.594 -24.820  0.00  0.00    +0.058 C 
ATOM     34  C   UNL     1      34.001 -11.830 -23.659  0.00  0.00    +0.015 C 
BRANCH  30  35
ATOM     35  O   UNL     1      34.963 -14.386 -21.232  0.00  0.00    -0.471 OA
ATOM     36  C   UNL     1      34.097 -14.163 -20.122  0.00  0.00    +0.252 C 
ENDBRANCH  30  35
ENDBRANCH  26  29
ENDBRANCH  23  25
ENDBRANCH  22  23
ENDBRANCH   2  22
TORSDOF 8
ENDMDL
MODEL 4
REMARK VINA RESULT:     -11.6      2.332      3.135
REMARK  Name = 3488
REMARK  8 active torsions:
REMARK  status: ('A' for Active; 'I' for Inactive)
REMARK    1  A    between atoms: C_1  and  S_7
REMARK    2  A    between atoms: C_2  and  C_22
REMARK    3  A    between atoms: S_7  and  N_12
REMARK    4  A    between atoms: N_11  and  C_16
REMARK    5  A    between atoms: C_22  and  C_23
REMARK    6  A    between atoms: C_23  and  N_25
REMARK    7  A    between atoms: C_26  and  C_29
REMARK    8  A    between atoms: C_30  and  O_35
REMARK                            x       y       z     vdW  Elec       q    Type
REMARK                         _______ _______ _______ _____ _____    ______ ____
ROOT
ATOM      1  C   UNL     1      32.611 -22.873 -15.326  0.00  0.00    +0.125 C 
ATOM      2  C   UNL     1      32.913 -21.625 -17.779  0.00  0.00    -0.020 C 
ATOM      3  C   UNL     1      33.870 -22.800 -15.896  0.00  0.00    +0.020 C 
ATOM      4  C   UNL     1      31.499 -22.336 -15.952  0.00  0.00    +0.020 C 
ATOM      5  C   UNL     1      34.022 -22.171 -17.133  0.00  0.00    -0.003 C 
ATOM      6  C   UNL     1      31.651 -21.706 -17.187  0.00  0.00    -0.003 C 
ENDROOT
BRANCH   1   7
ATOM      7  S   UNL     1      32.418 -23.670 -13.759  0.00  0.00    +0.077 S 
ATOM      8  O   UNL     1      31.431 -24.722 -13.908  0.00  0.00    -0.150 OA
ATOM      9  O   UNL     1      32.234 -22.622 -12.775  0.00  0.00    -0.150 OA
BRANCH   7  12
ATOM     10  O   UNL     1      34.624 -23.255 -11.612  0.00  0.00    -0.251 OA
ATOM     11  N   UNL     1      36.053 -24.787 -12.589  0.00  0.00    -0.289 N 
ATOM     12  N   UNL     1      33.965 -24.369 -13.556  0.00  0.00    -0.169 N 
ATOM     13  C   UNL     1      34.878 -24.067 -12.497  0.00  0.00    +0.319 C 
ATOM     14  H   UNL     1      36.163 -25.415 -13.339  0.00  0.00    +0.151 HD
ATOM     15  H   UNL     1      34.249 -25.037 -14.222  0.00  0.00    +0.178 HD
BRANCH  11  16
ATOM     16  C   UNL     1      37.131 -24.659 -11.632  0.00  0.00    +0.073 C 
ATOM     17  C   UNL     1      37.848 -23.313 -11.787  0.00  0.00    +0.020 C 
ATOM     18  C   UNL     1      38.113 -25.829 -11.749  0.00  0.00    +0.020 C 
ATOM     19  C   UNL     1      38.695 -23.246 -13.057  0.00  0.00    +0.002 C 
ATOM     20  C   UNL     1      38.960 -25.757 -13.019  0.00  0.00    +0.002 C 
ATOM     21  C   UNL     1      39.673 -24.414 -13.145  0.00  0.00    +0.000 C 
ENDBRANCH  11  16
ENDBRANCH   7  12
ENDBRANCH   1   7
BRANCH   2  22
ATOM     22  C   UNL     1      33.075 -20.953 -19.100  0.00  0.00    +0.048 C 
BRANCH  22  23
ATOM     23  C   UNL     1      34.470 -20.353 -19.316  0.00  0.00    +0.094 C 
BRANCH  23  25
ATOM     24  O   UNL     1      36.615 -18.493 -19.742  0.00  0.00    -0.270 OA
ATOM     25  N   UNL     1      34.438 -19.183 -20.151  0.00  0.00    -0.300 N 
ATOM     26  C   UNL     1      35.530 -18.336 -20.297  0.00  0.00    +0.249 C 
ATOM     27  H   UNL     1      33.609 -18.972 -20.638  0.00  0.00    +0.150 HD
BRANCH  26  29
ATOM     28 CL   UNL     1      34.873 -13.234 -20.670  0.00  0.00    -0.082 Cl
ATOM     29  C   UNL     1      35.328 -17.154 -21.175  0.00  0.00    +0.088 C 
ATOM     30  C   UNL     1      35.262 -17.319 -22.543  0.00  0.00    +0.143 C 
ATOM     31  C   UNL     1      35.212 -15.915 -20.577  0.00  0.00    +0.019 C 
ATOM     32  C   UNL     1      35.071 -16.197 -23.350  0.00  0.00    +0.038 C 
ATOM     33  C   UNL     1      35.022 -14.793 -21.384  0.00  0.00    +0.058 C 
ATOM     34  C   UNL     1      34.951 -14.934 -22.770  0.00  0.00    +0.015 C 
BRANCH  30  35
ATOM     35  O   UNL     1      35.377 -18.544 -23.129  0.00  0.00    -0.471 OA
ATOM     36  C   UNL     1      34.535 -18.807 -24.249  0.00  0.00    +0.252 C 
ENDBRANCH  30  35
ENDBRANCH  26  29
ENDBRANCH  23  25
ENDBRANCH  22  23
ENDBRANCH   2  22
TORSDOF 8
ENDMDL
MODEL 5
REMARK VINA RESULT:     -11.5      3.606     11.498
REMARK  Name = 3488
REMARK  8 active torsions:
REMARK  status: ('A' for Active; 'I' for Inactive)
REMARK    1  A    between atoms: C_1  and  S_7
REMARK    2  A    between atoms: C_2  and  C_22
REMARK    3  A    between atoms: S_7  and  N_12
REMARK    4  A    between atoms: N_11  and  C_16
REMARK    5  A    between atoms: C_22  and  C_23
REMARK    6  A    between atoms: C_23  and  N_25
REMARK    7  A    between atoms: C_26  and  C_29
REMARK    8  A    between atoms: C_30  and  O_35
REMARK                            x       y       z     vdW  Elec       q    Type
REMARK                         _______ _______ _______ _____ _____    ______ ____
ROOT
ATOM      1  C   UNL     1      35.161 -19.757 -19.941  0.00  0.00    +0.125 C 
ATOM      2  C   UNL     1      34.291 -21.642 -18.109  0.00  0.00    -0.020 C 
ATOM      3  C   UNL     1      33.806 -20.013 -19.827  0.00  0.00    +0.020 C 
ATOM      4  C   UNL     1      36.092 -20.420 -19.161  0.00  0.00    +0.020 C 
ATOM      5  C   UNL     1      33.367 -20.963 -18.904  0.00  0.00    -0.003 C 
ATOM      6  C   UNL     1      35.654 -21.370 -18.237  0.00  0.00    -0.003 C 
ENDROOT
BRANCH   1   7
ATOM      7  S   UNL     1      35.717 -18.553 -21.110  0.00  0.00    +0.077 S 
ATOM      8  O   UNL     1      35.087 -18.839 -22.385  0.00  0.00    -0.150 OA
ATOM      9  O   UNL     1      37.161 -18.496 -20.999  0.00  0.00    -0.150 OA
BRANCH   7  12
ATOM     10  O   UNL     1      36.031 -15.560 -21.881  0.00  0.00    -0.251 OA
ATOM     11  N   UNL     1      34.610 -14.840 -20.204  0.00  0.00    -0.289 N 
ATOM     12  N   UNL     1      35.044 -17.125 -20.455  0.00  0.00    -0.169 N 
ATOM     13  C   UNL     1      35.292 -15.798 -20.930  0.00  0.00    +0.319 C 
ATOM     14  H   UNL     1      34.041 -15.132 -19.457  0.00  0.00    +0.151 HD
ATOM     15  H   UNL     1      34.434 -17.224 -19.688  0.00  0.00    +0.178 HD
BRANCH  11  16
ATOM     16  C   UNL     1      34.696 -13.426 -20.496  0.00  0.00    +0.073 C 
ATOM     17  C   UNL     1      33.573 -12.651 -19.797  0.00  0.00    +0.020 C 
ATOM     18  C   UNL     1      34.688 -13.173 -22.007  0.00  0.00    +0.020 C 
ATOM     19  C   UNL     1      32.205 -12.907 -20.430  0.00  0.00    +0.002 C 
ATOM     20  C   UNL     1      33.318 -13.427 -22.636  0.00  0.00    +0.002 C 
ATOM     21  C   UNL     1      32.220 -12.637 -21.932  0.00  0.00    +0.000 C 
ENDBRANCH  11  16
ENDBRANCH   7  12
ENDBRANCH   1   7
BRANCH   2  22
ATOM     22  C   UNL     1      33.823 -22.658 -17.123  0.00  0.00    +0.048 C 
BRANCH  22  23
ATOM     23  C   UNL     1      34.021 -22.231 -15.663  0.00  0.00    +0.094 C 
BRANCH  23  25
ATOM     24  O   UNL     1      36.718 -21.518 -14.989  0.00  0.00    -0.270 OA
ATOM     25  N   UNL     1      34.980 -23.054 -14.979  0.00  0.00    -0.300 N 
ATOM     26  C   UNL     1      36.270 -22.623 -14.694  0.00  0.00    +0.249 C 
ATOM     27  H   UNL     1      34.714 -23.962 -14.702  0.00  0.00    +0.150 HD
BRANCH  26  29
ATOM     28 CL   UNL     1      40.776 -25.132 -14.596  0.00  0.00    -0.082 Cl
ATOM     29  C   UNL     1      37.150 -23.603 -14.006  0.00  0.00    +0.088 C 
ATOM     30  C   UNL     1      36.719 -24.218 -12.848  0.00  0.00    +0.143 C 
ATOM     31  C   UNL     1      38.387 -23.866 -14.561  0.00  0.00    +0.019 C 
ATOM     32  C   UNL     1      37.560 -25.135 -12.217  0.00  0.00    +0.038 C 
ATOM     33  C   UNL     1      39.228 -24.783 -13.929  0.00  0.00    +0.058 C 
ATOM     34  C   UNL     1      38.814 -25.417 -12.758  0.00  0.00    +0.015 C 
BRANCH  30  35
ATOM     35  O   UNL     1      35.497 -23.955 -12.304  0.00  0.00    -0.471 OA
ATOM     36  C   UNL     1      35.481 -23.340 -11.018  0.00  0.00    +0.252 C 
ENDBRANCH  30  35
ENDBRANCH  26  29
ENDBRANCH  23  25
ENDBRANCH  22  23
ENDBRANCH   2  22
TORSDOF 8
ENDMDL
MODEL 6
REMARK VINA RESULT:     -11.4      1.533      2.215
REMARK  Name = 3488
REMARK  8 active torsions:
REMARK  status: ('A' for Active; 'I' for Inactive)
REMARK    1  A    between atoms: C_1  and  S_7
REMARK    2  A    between atoms: C_2  and  C_22
REMARK    3  A    between atoms: S_7  and  N_12
REMARK    4  A    between atoms: N_11  and  C_16
REMARK    5  A    between atoms: C_22  and  C_23
REMARK    6  A    between atoms: C_23  and  N_25
REMARK    7  A    between atoms: C_26  and  C_29
REMARK    8  A    between atoms: C_30  and  O_35
REMARK                            x       y       z     vdW  Elec       q    Type
REMARK                         _______ _______ _______ _____ _____    ______ ____
ROOT
ATOM      1  C   UNL     1      34.274 -21.514 -18.102  0.00  0.00    +0.125 C 
ATOM      2  C   UNL     1      35.347 -19.703 -19.901  0.00  0.00    -0.020 C 
ATOM      3  C   UNL     1      35.646 -21.348 -18.156  0.00  0.00    +0.020 C 
ATOM      4  C   UNL     1      33.424 -20.796 -18.926  0.00  0.00    +0.020 C 
ATOM      5  C   UNL     1      36.187 -20.435 -19.062  0.00  0.00    -0.003 C 
ATOM      6  C   UNL     1      33.964 -19.883 -19.832  0.00  0.00    -0.003 C 
ENDROOT
BRANCH   1   7
ATOM      7  S   UNL     1      33.589 -22.670 -16.954  0.00  0.00    +0.077 S 
ATOM      8  O   UNL     1      33.532 -23.968 -17.601  0.00  0.00    -0.150 OA
ATOM      9  O   UNL     1      32.388 -22.064 -16.414  0.00  0.00    -0.150 OA
BRANCH   7  12
ATOM     10  O   UNL     1      33.775 -24.123 -14.215  0.00  0.00    -0.251 OA
ATOM     11  N   UNL     1      35.862 -23.250 -13.740  0.00  0.00    -0.289 N 
ATOM     12  N   UNL     1      34.801 -22.692 -15.749  0.00  0.00    -0.169 N 
ATOM     13  C   UNL     1      34.735 -23.423 -14.520  0.00  0.00    +0.319 C 
ATOM     14  H   UNL     1      36.580 -22.666 -14.074  0.00  0.00    +0.151 HD
ATOM     15  H   UNL     1      35.612 -22.158 -15.915  0.00  0.00    +0.178 HD
BRANCH  11  16
ATOM     16  C   UNL     1      36.033 -23.890 -12.455  0.00  0.00    +0.073 C 
ATOM     17  C   UNL     1      36.348 -22.860 -11.364  0.00  0.00    +0.020 C 
ATOM     18  C   UNL     1      37.110 -24.977 -12.520  0.00  0.00    +0.020 C 
ATOM     19  C   UNL     1      37.758 -22.284 -11.494  0.00  0.00    +0.002 C 
ATOM     20  C   UNL     1      38.520 -24.398 -12.647  0.00  0.00    +0.002 C 
ATOM     21  C   UNL     1      38.814 -23.385 -11.545  0.00  0.00    +0.000 C 
ENDBRANCH  11  16
ENDBRANCH   7  12
ENDBRANCH   1   7
BRANCH   2  22
ATOM     22  C   UNL     1      35.924 -18.727 -20.870  0.00  0.00    +0.048 C 
BRANCH  22  23
ATOM     23  C   UNL     1      36.030 -17.301 -20.315  0.00  0.00    +0.094 C 
BRANCH  23  25
ATOM     24  O   UNL     1      35.251 -14.646 -19.552  0.00  0.00    -0.270 OA
ATOM     25  N   UNL     1      35.330 -16.345 -21.129  0.00  0.00    -0.300 N 
ATOM     26  C   UNL     1      34.992 -15.077 -20.674  0.00  0.00    +0.249 C 
ATOM     27  H   UNL     1      35.078 -16.599 -22.047  0.00  0.00    +0.150 HD
BRANCH  26  29
ATOM     28 CL   UNL     1      34.190 -13.651 -25.566  0.00  0.00    -0.082 Cl
ATOM     29  C   UNL     1      34.245 -14.217 -21.627  0.00  0.00    +0.088 C 
ATOM     30  C   UNL     1      33.291 -13.338 -21.156  0.00  0.00    +0.143 C 
ATOM     31  C   UNL     1      34.539 -14.331 -22.972  0.00  0.00    +0.019 C 
ATOM     32  C   UNL     1      32.600 -12.540 -22.067  0.00  0.00    +0.038 C 
ATOM     33  C   UNL     1      33.847 -13.532 -23.883  0.00  0.00    +0.058 C 
ATOM     34  C   UNL     1      32.878 -12.636 -23.431  0.00  0.00    +0.015 C 
BRANCH  30  35
ATOM     35  O   UNL     1      33.004 -13.229 -19.828  0.00  0.00    -0.471 OA
ATOM     36  C   UNL     1      32.177 -12.136 -19.433  0.00  0.00    +0.252 C 
ENDBRANCH  30  35
ENDBRANCH  26  29
ENDBRANCH  23  25
ENDBRANCH  22  23
ENDBRANCH   2  22
TORSDOF 8
ENDMDL
MODEL 7
REMARK VINA RESULT:     -11.3      3.773     11.332
REMARK  Name = 3488
REMARK  8 active torsions:
REMARK  status: ('A' for Active; 'I' for Inactive)
REMARK    1  A    between atoms: C_1  and  S_7
REMARK    2  A    between atoms: C_2  and  C_22
REMARK    3  A    between atoms: S_7  and  N_12
REMARK    4  A    between atoms: N_11  and  C_16
REMARK    5  A    between atoms: C_22  and  C_23
REMARK    6  A    between atoms: C_23  and  N_25
REMARK    7  A    between atoms: C_26  and  C_29
REMARK    8  A    between atoms: C_30  and  O_35
REMARK                            x       y       z     vdW  Elec       q    Type
REMARK                         _______ _______ _______ _____ _____    ______ ____
ROOT
ATOM      1  C   UNL     1      34.673 -16.800 -23.423  0.00  0.00    +0.125 C 
ATOM      2  C   UNL     1      35.502 -18.333 -21.271  0.00  0.00    -0.020 C 
ATOM      3  C   UNL     1      34.447 -18.165 -23.439  0.00  0.00    +0.020 C 
ATOM      4  C   UNL     1      35.304 -16.182 -22.357  0.00  0.00    +0.020 C 
ATOM      5  C   UNL     1      34.865 -18.938 -22.355  0.00  0.00    -0.003 C 
ATOM      6  C   UNL     1      35.721 -16.954 -21.272  0.00  0.00    -0.003 C 
ENDROOT
BRANCH   1   7
ATOM      7  S   UNL     1      34.144 -15.821 -24.796  0.00  0.00    +0.077 S 
ATOM      8  O   UNL     1      33.201 -16.604 -25.572  0.00  0.00    -0.150 OA
ATOM      9  O   UNL     1      35.340 -15.286 -25.416  0.00  0.00    -0.150 OA
BRANCH   7  12
ATOM     10  O   UNL     1      35.122 -13.509 -22.967  0.00  0.00    -0.251 OA
ATOM     11  N   UNL     1      32.990 -12.668 -22.661  0.00  0.00    -0.289 N 
ATOM     12  N   UNL     1      33.309 -14.560 -23.998  0.00  0.00    -0.169 N 
ATOM     13  C   UNL     1      33.914 -13.557 -23.176  0.00  0.00    +0.319 C 
ATOM     14  H   UNL     1      32.040 -12.791 -22.887  0.00  0.00    +0.151 HD
ATOM     15  H   UNL     1      32.332 -14.522 -24.115  0.00  0.00    +0.178 HD
BRANCH  11  16
ATOM     16  C   UNL     1      33.358 -11.561 -21.805  0.00  0.00    +0.073 C 
ATOM     17  C   UNL     1      33.337 -11.977 -20.330  0.00  0.00    +0.020 C 
ATOM     18  C   UNL     1      32.456 -10.349 -22.053  0.00  0.00    +0.020 C 
ATOM     19  C   UNL     1      31.918 -12.181 -19.800  0.00  0.00    +0.002 C 
ATOM     20  C   UNL     1      31.038 -10.555 -21.521  0.00  0.00    +0.002 C 
ATOM     21  C   UNL     1      31.042 -10.956 -20.049  0.00  0.00    +0.000 C 
ENDBRANCH  11  16
ENDBRANCH   7  12
ENDBRANCH   1   7
BRANCH   2  22
ATOM     22  C   UNL     1      35.949 -19.158 -20.112  0.00  0.00    +0.048 C 
BRANCH  22  23
ATOM     23  C   UNL     1      35.287 -20.541 -20.053  0.00  0.00    +0.094 C 
BRANCH  23  25
ATOM     24  O   UNL     1      34.168 -23.043 -19.201  0.00  0.00    -0.270 OA
ATOM     25  N   UNL     1      34.826 -20.869 -18.732  0.00  0.00    -0.300 N 
ATOM     26  C   UNL     1      34.296 -22.112 -18.409  0.00  0.00    +0.249 C 
ATOM     27  H   UNL     1      34.887 -20.185 -18.025  0.00  0.00    +0.150 HD
BRANCH  26  29
ATOM     28 CL   UNL     1      30.344 -22.625 -15.134  0.00  0.00    -0.082 Cl
ATOM     29  C   UNL     1      33.839 -22.284 -17.006  0.00  0.00    +0.088 C 
ATOM     30  C   UNL     1      34.766 -22.361 -15.987  0.00  0.00    +0.143 C 
ATOM     31  C   UNL     1      32.480 -22.362 -16.771  0.00  0.00    +0.019 C 
ATOM     32  C   UNL     1      34.317 -22.523 -14.677  0.00  0.00    +0.038 C 
ATOM     33  C   UNL     1      32.031 -22.525 -15.460  0.00  0.00    +0.058 C 
ATOM     34  C   UNL     1      32.949 -22.604 -14.413  0.00  0.00    +0.015 C 
BRANCH  30  35
ATOM     35  O   UNL     1      36.106 -22.284 -16.224  0.00  0.00    -0.471 OA
ATOM     36  C   UNL     1      36.973 -22.555 -15.125  0.00  0.00    +0.252 C 
ENDBRANCH  30  35
ENDBRANCH  26  29
ENDBRANCH  23  25
ENDBRANCH  22  23
ENDBRANCH   2  22
TORSDOF 8
ENDMDL
MODEL 8
REMARK VINA RESULT:     -11.3      4.045     12.192
REMARK  Name = 3488
REMARK  8 active torsions:
REMARK  status: ('A' for Active; 'I' for Inactive)
REMARK    1  A    between atoms: C_1  and  S_7
REMARK    2  A    between atoms: C_2  and  C_22
REMARK    3  A    between atoms: S_7  and  N_12
REMARK    4  A    between atoms: N_11  and  C_16
REMARK    5  A    between atoms: C_22  and  C_23
REMARK    6  A    between atoms: C_23  and  N_25
REMARK    7  A    between atoms: C_26  and  C_29
REMARK    8  A    between atoms: C_30  and  O_35
REMARK                            x       y       z     vdW  Elec       q    Type
REMARK                         _______ _______ _______ _____ _____    ______ ____
ROOT
ATOM      1  C   UNL     1      34.846 -16.624 -23.222  0.00  0.00    +0.125 C 
ATOM      2  C   UNL     1      35.577 -18.198 -21.064  0.00  0.00    -0.020 C 
ATOM      3  C   UNL     1      34.688 -17.996 -23.302  0.00  0.00    +0.020 C 
ATOM      4  C   UNL     1      35.361 -16.019 -22.089  0.00  0.00    +0.020 C 
ATOM      5  C   UNL     1      35.056 -18.790 -22.215  0.00  0.00    -0.003 C 
ATOM      6  C   UNL     1      35.729 -16.812 -21.001  0.00  0.00    -0.003 C 
ENDROOT
BRANCH   1   7
ATOM      7  S   UNL     1      34.379 -15.619 -24.599  0.00  0.00    +0.077 S 
ATOM      8  O   UNL     1      33.027 -15.979 -24.982  0.00  0.00    -0.150 OA
ATOM      9  O   UNL     1      35.461 -15.697 -25.561  0.00  0.00    -0.150 OA
BRANCH   7  12
ATOM     10  O   UNL     1      33.367 -12.864 -25.616  0.00  0.00    -0.251 OA
ATOM     11  N   UNL     1      33.987 -11.769 -23.677  0.00  0.00    -0.289 N 
ATOM     12  N   UNL     1      34.371 -14.067 -23.884  0.00  0.00    -0.169 N 
ATOM     13  C   UNL     1      33.861 -12.877 -24.493  0.00  0.00    +0.319 C 
ATOM     14  H   UNL     1      34.399 -11.881 -22.791  0.00  0.00    +0.151 HD
ATOM     15  H   UNL     1      34.747 -13.986 -22.977  0.00  0.00    +0.178 HD
BRANCH  11  16
ATOM     16  C   UNL     1      33.540 -10.450 -24.069  0.00  0.00    +0.073 C 
ATOM     17  C   UNL     1      33.838 -10.184 -25.549  0.00  0.00    +0.020 C 
ATOM     18  C   UNL     1      34.159  -9.370 -23.175  0.00  0.00    +0.020 C 
ATOM     19  C   UNL     1      35.329  -9.982 -25.817  0.00  0.00    +0.002 C 
ATOM     20  C   UNL     1      35.650  -9.169 -23.448  0.00  0.00    +0.002 C 
ATOM     21  C   UNL     1      35.920  -8.894 -24.924  0.00  0.00    +0.000 C 
ENDBRANCH  11  16
ENDBRANCH   7  12
ENDBRANCH   1   7
BRANCH   2  22
ATOM     22  C   UNL     1      35.972 -19.045 -19.902  0.00  0.00    +0.048 C 
BRANCH  22  23
ATOM     23  C   UNL     1      35.318 -20.433 -19.905  0.00  0.00    +0.094 C 
BRANCH  23  25
ATOM     24  O   UNL     1      34.102 -22.933 -19.191  0.00  0.00    -0.270 OA
ATOM     25  N   UNL     1      34.845 -20.817 -18.603  0.00  0.00    -0.300 N 
ATOM     26  C   UNL     1      34.267 -22.054 -18.349  0.00  0.00    +0.249 C 
ATOM     27  H   UNL     1      34.934 -20.176 -17.859  0.00  0.00    +0.150 HD
BRANCH  26  29
ATOM     28 CL   UNL     1      30.302 -22.592 -15.094  0.00  0.00    -0.082 Cl
ATOM     29  C   UNL     1      33.805 -22.287 -16.956  0.00  0.00    +0.088 C 
ATOM     30  C   UNL     1      34.730 -22.459 -15.946  0.00  0.00    +0.143 C 
ATOM     31  C   UNL     1      32.445 -22.324 -16.721  0.00  0.00    +0.019 C 
ATOM     32  C   UNL     1      34.277 -22.676 -14.645  0.00  0.00    +0.038 C 
ATOM     33  C   UNL     1      31.992 -22.542 -15.420  0.00  0.00    +0.058 C 
ATOM     34  C   UNL     1      32.907 -22.717 -14.382  0.00  0.00    +0.015 C 
BRANCH  30  35
ATOM     35  O   UNL     1      36.072 -22.422 -16.183  0.00  0.00    -0.471 OA
ATOM     36  C   UNL     1      36.923 -22.238 -15.054  0.00  0.00    +0.252 C 
ENDBRANCH  30  35
ENDBRANCH  26  29
ENDBRANCH  23  25
ENDBRANCH  22  23
ENDBRANCH   2  22
TORSDOF 8
ENDMDL
MODEL 9
REMARK VINA RESULT:     -11.2      1.638      2.063
REMARK  Name = 3488
REMARK  8 active torsions:
REMARK  status: ('A' for Active; 'I' for Inactive)
REMARK    1  A    between atoms: C_1  and  S_7
REMARK    2  A    between atoms: C_2  and  C_22
REMARK    3  A    between atoms: S_7  and  N_12
REMARK    4  A    between atoms: N_11  and  C_16
REMARK    5  A    between atoms: C_22  and  C_23
REMARK    6  A    between atoms: C_23  and  N_25
REMARK    7  A    between atoms: C_26  and  C_29
REMARK    8  A    between atoms: C_30  and  O_35
REMARK                            x       y       z     vdW  Elec       q    Type
REMARK                         _______ _______ _______ _____ _____    ______ ____
ROOT
ATOM      1  C   UNL     1      34.718 -20.558 -19.282  0.00  0.00    +0.125 C 
ATOM      2  C   UNL     1      35.880 -18.469 -20.677  0.00  0.00    -0.020 C 
ATOM      3  C   UNL     1      36.076 -20.331 -19.149  0.00  0.00    +0.020 C 
ATOM      4  C   UNL     1      33.926 -19.767 -20.095  0.00  0.00    +0.020 C 
ATOM      5  C   UNL     1      36.662 -19.277 -19.852  0.00  0.00    -0.003 C 
ATOM      6  C   UNL     1      34.511 -18.713 -20.798  0.00  0.00    -0.003 C 
ENDROOT
BRANCH   1   7
ATOM      7  S   UNL     1      33.976 -21.893 -18.391  0.00  0.00    +0.077 S 
ATOM      8  O   UNL     1      34.157 -23.107 -19.163  0.00  0.00    -0.150 OA
ATOM      9  O   UNL     1      32.647 -21.455 -18.010  0.00  0.00    -0.150 OA
BRANCH   7  12
ATOM     10  O   UNL     1      33.699 -23.413 -15.696  0.00  0.00    -0.251 OA
ATOM     11  N   UNL     1      35.681 -22.567 -14.860  0.00  0.00    -0.289 N 
ATOM     12  N   UNL     1      34.971 -21.953 -17.002  0.00  0.00    -0.169 N 
ATOM     13  C   UNL     1      34.699 -22.712 -15.820  0.00  0.00    +0.319 C 
ATOM     14  H   UNL     1      36.447 -21.980 -15.055  0.00  0.00    +0.151 HD
ATOM     15  H   UNL     1      35.799 -21.421 -17.017  0.00  0.00    +0.178 HD
BRANCH  11  16
ATOM     16  C   UNL     1      35.635 -23.239 -13.580  0.00  0.00    +0.073 C 
ATOM     17  C   UNL     1      36.635 -22.621 -12.597  0.00  0.00    +0.020 C 
ATOM     18  C   UNL     1      35.870 -24.744 -13.739  0.00  0.00    +0.020 C 
ATOM     19  C   UNL     1      38.084 -22.955 -12.949  0.00  0.00    +0.002 C 
ATOM     20  C   UNL     1      37.321 -25.075 -14.090  0.00  0.00    +0.002 C 
ATOM     21  C   UNL     1      38.296 -24.460 -13.091  0.00  0.00    +0.000 C 
ENDBRANCH  11  16
ENDBRANCH   7  12
ENDBRANCH   1   7
BRANCH   2  22
ATOM     22  C   UNL     1      36.506 -17.343 -21.430  0.00  0.00    +0.048 C 
BRANCH  22  23
ATOM     23  C   UNL     1      35.612 -16.776 -22.540  0.00  0.00    +0.094 C 
BRANCH  23  25
ATOM     24  O   UNL     1      34.239 -14.956 -24.284  0.00  0.00    -0.270 OA
ATOM     25  N   UNL     1      35.017 -15.520 -22.173  0.00  0.00    -0.300 N 
ATOM     26  C   UNL     1      34.369 -14.701 -23.089  0.00  0.00    +0.249 C 
ATOM     27  H   UNL     1      35.070 -15.227 -21.234  0.00  0.00    +0.150 HD
BRANCH  26  29
ATOM     28 CL   UNL     1      32.006 -12.225 -19.231  0.00  0.00    -0.082 Cl
ATOM     29  C   UNL     1      33.831 -13.422 -22.557  0.00  0.00    +0.088 C 
ATOM     30  C   UNL     1      33.923 -12.272 -23.314  0.00  0.00    +0.143 C 
ATOM     31  C   UNL     1      33.248 -13.434 -21.305  0.00  0.00    +0.019 C 
ATOM     32  C   UNL     1      33.412 -11.081 -22.797  0.00  0.00    +0.038 C 
ATOM     33  C   UNL     1      32.738 -12.243 -20.789  0.00  0.00    +0.058 C 
ATOM     34  C   UNL     1      32.819 -11.067 -21.534  0.00  0.00    +0.015 C 
BRANCH  30  35
ATOM     35  O   UNL     1      34.499 -12.265 -24.549  0.00  0.00    -0.471 OA
ATOM     36  C   UNL     1      33.827 -11.531 -25.571  0.00  0.00    +0.252 C 
ENDBRANCH  30  35
ENDBRANCH  26  29
ENDBRANCH  23  25
ENDBRANCH  22  23
ENDBRANCH   2  22
TORSDOF 8
ENDMDL
