MODEL 1
REMARK VINA RESULT:     -11.4      0.000      0.000
REMARK  Name = 21874557
REMARK  4 active torsions:
REMARK  status: ('A' for Active; 'I' for Inactive)
REMARK    1  A    between atoms: N_1  and  C_18
REMARK    2  A    between atoms: C_9  and  C_14
REMARK    3  A    between atoms: C_18  and  C_19
REMARK    4  A    between atoms: C_23  and  N_26
REMARK                            x       y       z     vdW  Elec       q    Type
REMARK                         _______ _______ _______ _____ _____    ______ ____
ROOT
ATOM      1  N   UNL     1      35.506 -16.002 -21.350  0.00  0.00    -0.170 N 
ATOM      2  N   UNL     1      35.330 -15.579 -20.084  0.00  0.00    -0.042 NA
ATOM      3  N   UNL     1      34.530 -14.514 -20.122  0.00  0.00    -0.137 NA
ATOM      4  N   UNL     1      34.755 -15.327 -23.564  0.00  0.00    -0.310 NA
ATOM      5  N   UNL     1      33.306 -13.365 -23.413  0.00  0.00    -0.324 NA
ATOM      6  N   UNL     1      33.816 -14.355 -25.476  0.00  0.00    -0.283 N 
ATOM      7  C   UNL     1      34.823 -15.220 -22.230  0.00  0.00    +0.238 C 
ATOM      8  C   UNL     1      34.208 -14.277 -21.429  0.00  0.00    +0.181 C 
ATOM      9  C   UNL     1      33.424 -13.322 -22.063  0.00  0.00    +0.202 C 
ATOM     10  C   UNL     1      33.968 -14.350 -24.070  0.00  0.00    +0.198 C 
ATOM     11  H   UNL     1      34.269 -15.040 -26.017  0.00  0.00    +0.156 HD
ATOM     12  H   UNL     1      33.258 -13.672 -25.913  0.00  0.00    +0.156 HD
ENDROOT
BRANCH   9  14
ATOM     13  O   UNL     1      32.773 -11.062 -21.908  0.00  0.00    -0.448 OA
ATOM     14  C   UNL     1      32.740 -12.297 -21.340  0.00  0.00    +0.178 C 
ATOM     15  C   UNL     1      32.030 -12.269 -20.163  0.00  0.00    +0.043 C 
ATOM     16  C   UNL     1      31.601 -10.930 -19.994  0.00  0.00    +0.044 C 
ATOM     17  C   UNL     1      32.078 -10.236 -21.083  0.00  0.00    +0.180 C 
ENDBRANCH   9  14
BRANCH   1  18
ATOM     18  C   UNL     1      36.346 -17.170 -21.637  0.00  0.00    +0.145 C 
BRANCH  18  19
ATOM     19  C   UNL     1      35.990 -18.335 -20.778  0.00  0.00    -0.001 C 
ATOM     20  C   UNL     1      34.660 -18.739 -20.664  0.00  0.00    -0.006 C 
ATOM     21  C   UNL     1      34.328 -19.830 -19.860  0.00  0.00    -0.009 C 
ATOM     22  C   UNL     1      36.989 -19.022 -20.086  0.00  0.00    -0.001 C 
ATOM     23  C   UNL     1      35.327 -20.517 -19.170  0.00  0.00    +0.037 C 
ATOM     24  C   UNL     1      36.658 -20.113 -19.283  0.00  0.00    +0.013 C 
ATOM     25  C   UNL     1      32.896 -20.241 -19.757  0.00  0.00    +0.032 C 
BRANCH  23  26
ATOM     26  N   UNL     1      35.011 -21.623 -18.353  0.00  0.00    -0.357 N 
ATOM     27  H   UNL     1      34.702 -21.481 -17.428  0.00  0.00    +0.142 HD
ATOM     28  H   UNL     1      35.098 -22.538 -18.706  0.00  0.00    +0.142 HD
ENDBRANCH  23  26
ENDBRANCH  18  19
ENDBRANCH   1  18
TORSDOF 4
ENDMDL
MODEL 2
REMARK VINA RESULT:     -10.4      6.001     11.030
REMARK  Name = 21874557
REMARK  4 active torsions:
REMARK  status: ('A' for Active; 'I' for Inactive)
REMARK    1  A    between atoms: N_1  and  C_18
REMARK    2  A    between atoms: C_9  and  C_14
REMARK    3  A    between atoms: C_18  and  C_19
REMARK    4  A    between atoms: C_23  and  N_26
REMARK                            x       y       z     vdW  Elec       q    Type
REMARK                         _______ _______ _______ _____ _____    ______ ____
ROOT
ATOM      1  N   UNL     1      33.998 -22.449 -16.437  0.00  0.00    -0.170 N 
ATOM      2  N   UNL     1      35.335 -22.437 -16.595  0.00  0.00    -0.042 NA
ATOM      3  N   UNL     1      35.882 -22.767 -15.426  0.00  0.00    -0.137 NA
ATOM      4  N   UNL     1      32.432 -22.902 -14.631  0.00  0.00    -0.310 NA
ATOM      5  N   UNL     1      33.632 -23.485 -12.584  0.00  0.00    -0.324 NA
ATOM      6  N   UNL     1      31.290 -23.412 -12.652  0.00  0.00    -0.283 N 
ATOM      7  C   UNL     1      33.656 -22.786 -15.164  0.00  0.00    +0.238 C 
ATOM      8  C   UNL     1      34.869 -22.985 -14.535  0.00  0.00    +0.181 C 
ATOM      9  C   UNL     1      34.835 -23.348 -13.194  0.00  0.00    +0.202 C 
ATOM     10  C   UNL     1      32.522 -23.257 -13.329  0.00  0.00    +0.198 C 
ATOM     11  H   UNL     1      30.443 -23.262 -13.129  0.00  0.00    +0.156 HD
ATOM     12  H   UNL     1      31.281 -23.669 -11.701  0.00  0.00    +0.156 HD
ENDROOT
BRANCH   9  14
ATOM     13  O   UNL     1      36.623 -24.783 -12.649  0.00  0.00    -0.448 OA
ATOM     14  C   UNL     1      36.026 -23.580 -12.439  0.00  0.00    +0.178 C 
ATOM     15  C   UNL     1      36.732 -22.844 -11.517  0.00  0.00    +0.043 C 
ATOM     16  C   UNL     1      37.835 -23.646 -11.135  0.00  0.00    +0.044 C 
ATOM     17  C   UNL     1      37.723 -24.815 -11.852  0.00  0.00    +0.180 C 
ENDBRANCH   9  14
BRANCH   1  18
ATOM     18  C   UNL     1      33.112 -22.124 -17.559  0.00  0.00    +0.145 C 
BRANCH  18  19
ATOM     19  C   UNL     1      33.749 -21.173 -18.514  0.00  0.00    -0.001 C 
ATOM     20  C   UNL     1      35.139 -21.087 -18.591  0.00  0.00    -0.006 C 
ATOM     21  C   UNL     1      35.734 -20.197 -19.486  0.00  0.00    -0.009 C 
ATOM     22  C   UNL     1      32.954 -20.368 -19.332  0.00  0.00    -0.001 C 
ATOM     23  C   UNL     1      34.939 -19.393 -20.303  0.00  0.00    +0.037 C 
ATOM     24  C   UNL     1      33.549 -19.478 -20.226  0.00  0.00    +0.013 C 
ATOM     25  C   UNL     1      37.225 -20.125 -19.547  0.00  0.00    +0.032 C 
BRANCH  23  26
ATOM     26  N   UNL     1      35.524 -18.487 -21.214  0.00  0.00    -0.357 N 
ATOM     27  H   UNL     1      36.054 -18.825 -21.972  0.00  0.00    +0.142 HD
ATOM     28  H   UNL     1      35.402 -17.518 -21.093  0.00  0.00    +0.142 HD
ENDBRANCH  23  26
ENDBRANCH  18  19
ENDBRANCH   1  18
TORSDOF 4
ENDMDL
MODEL 3
REMARK VINA RESULT:     -10.2      2.585      7.229
REMARK  Name = 21874557
REMARK  4 active torsions:
REMARK  status: ('A' for Active; 'I' for Inactive)
REMARK    1  A    between atoms: N_1  and  C_18
REMARK    2  A    between atoms: C_9  and  C_14
REMARK    3  A    between atoms: C_18  and  C_19
REMARK    4  A    between atoms: C_23  and  N_26
REMARK                            x       y       z     vdW  Elec       q    Type
REMARK                         _______ _______ _______ _____ _____    ______ ____
ROOT
ATOM      1  N   UNL     1      35.015 -14.904 -21.419  0.00  0.00    -0.170 N 
ATOM      2  N   UNL     1      35.339 -14.975 -20.114  0.00  0.00    -0.042 NA
ATOM      3  N   UNL     1      35.484 -16.262 -19.804  0.00  0.00    -0.137 NA
ATOM      4  N   UNL     1      34.653 -16.474 -23.242  0.00  0.00    -0.310 NA
ATOM      5  N   UNL     1      34.967 -18.771 -22.467  0.00  0.00    -0.324 NA
ATOM      6  N   UNL     1      34.396 -18.295 -24.691  0.00  0.00    -0.283 N 
ATOM      7  C   UNL     1      34.945 -16.143 -21.977  0.00  0.00    +0.238 C 
ATOM      8  C   UNL     1      35.247 -16.996 -20.932  0.00  0.00    +0.181 C 
ATOM      9  C   UNL     1      35.253 -18.358 -21.208  0.00  0.00    +0.202 C 
ATOM     10  C   UNL     1      34.689 -17.818 -23.392  0.00  0.00    +0.198 C 
ATOM     11  H   UNL     1      34.185 -17.661 -25.412  0.00  0.00    +0.156 HD
ATOM     12  H   UNL     1      34.404 -19.263 -24.872  0.00  0.00    +0.156 HD
ENDROOT
BRANCH   9  14
ATOM     13  O   UNL     1      34.477 -20.015 -19.723  0.00  0.00    -0.448 OA
ATOM     14  C   UNL     1      35.550 -19.334 -20.209  0.00  0.00    +0.178 C 
ATOM     15  C   UNL     1      36.707 -19.762 -19.603  0.00  0.00    +0.043 C 
ATOM     16  C   UNL     1      36.323 -20.769 -18.685  0.00  0.00    +0.044 C 
ATOM     17  C   UNL     1      34.956 -20.885 -18.797  0.00  0.00    +0.180 C 
ENDBRANCH   9  14
BRANCH   1  18
ATOM     18  C   UNL     1      34.788 -13.606 -22.061  0.00  0.00    +0.145 C 
BRANCH  18  19
ATOM     19  C   UNL     1      33.676 -12.852 -21.415  0.00  0.00    -0.001 C 
ATOM     20  C   UNL     1      33.296 -11.605 -21.912  0.00  0.00    -0.006 C 
ATOM     21  C   UNL     1      32.254 -10.901 -21.307  0.00  0.00    -0.009 C 
ATOM     22  C   UNL     1      33.015 -13.394 -20.312  0.00  0.00    -0.001 C 
ATOM     23  C   UNL     1      31.593 -11.444 -20.205  0.00  0.00    +0.037 C 
ATOM     24  C   UNL     1      31.973 -12.690 -19.707  0.00  0.00    +0.013 C 
ATOM     25  C   UNL     1      31.868  -9.568 -21.860  0.00  0.00    +0.032 C 
BRANCH  23  26
ATOM     26  N   UNL     1      30.537 -10.746 -19.580  0.00  0.00    -0.357 N 
ATOM     27  H   UNL     1      30.721 -10.162 -18.809  0.00  0.00    +0.142 HD
ATOM     28  H   UNL     1      29.616 -10.843 -19.915  0.00  0.00    +0.142 HD
ENDBRANCH  23  26
ENDBRANCH  18  19
ENDBRANCH   1  18
TORSDOF 4
ENDMDL
MODEL 4
REMARK VINA RESULT:     -10.0      4.173      8.808
REMARK  Name = 21874557
REMARK  4 active torsions:
REMARK  status: ('A' for Active; 'I' for Inactive)
REMARK    1  A    between atoms: N_1  and  C_18
REMARK    2  A    between atoms: C_9  and  C_14
REMARK    3  A    between atoms: C_18  and  C_19
REMARK    4  A    between atoms: C_23  and  N_26
REMARK                            x       y       z     vdW  Elec       q    Type
REMARK                         _______ _______ _______ _____ _____    ______ ____
ROOT
ATOM      1  N   UNL     1      34.886 -21.025 -19.024  0.00  0.00    -0.170 N 
ATOM      2  N   UNL     1      33.636 -20.912 -19.514  0.00  0.00    -0.042 NA
ATOM      3  N   UNL     1      32.799 -21.390 -18.595  0.00  0.00    -0.137 NA
ATOM      4  N   UNL     1      35.919 -21.844 -16.979  0.00  0.00    -0.310 NA
ATOM      5  N   UNL     1      34.217 -22.672 -15.433  0.00  0.00    -0.324 NA
ATOM      6  N   UNL     1      36.496 -22.723 -14.887  0.00  0.00    -0.283 N 
ATOM      7  C   UNL     1      34.879 -21.577 -17.780  0.00  0.00    +0.238 C 
ATOM      8  C   UNL     1      33.540 -21.802 -17.524  0.00  0.00    +0.181 C 
ATOM      9  C   UNL     1      33.217 -22.373 -16.299  0.00  0.00    +0.202 C 
ATOM     10  C   UNL     1      35.487 -22.394 -15.821  0.00  0.00    +0.198 C 
ATOM     11  H   UNL     1      37.440 -22.550 -15.101  0.00  0.00    +0.156 HD
ATOM     12  H   UNL     1      36.253 -23.127 -14.023  0.00  0.00    +0.156 HD
ENDROOT
BRANCH   9  14
ATOM     13  O   UNL     1      30.921 -21.902 -16.547  0.00  0.00    -0.448 OA
ATOM     14  C   UNL     1      31.868 -22.654 -15.923  0.00  0.00    +0.178 C 
ATOM     15  C   UNL     1      31.283 -23.538 -15.048  0.00  0.00    +0.043 C 
ATOM     16  C   UNL     1      29.887 -23.316 -15.137  0.00  0.00    +0.044 C 
ATOM     17  C   UNL     1      29.719 -22.311 -16.063  0.00  0.00    +0.180 C 
ENDBRANCH   9  14
BRANCH   1  18
ATOM     18  C   UNL     1      36.039 -20.578 -19.812  0.00  0.00    +0.145 C 
BRANCH  18  19
ATOM     19  C   UNL     1      35.758 -19.307 -20.539  0.00  0.00    -0.001 C 
ATOM     20  C   UNL     1      35.210 -19.343 -21.821  0.00  0.00    -0.006 C 
ATOM     21  C   UNL     1      34.947 -18.153 -22.500  0.00  0.00    -0.009 C 
ATOM     22  C   UNL     1      36.044 -18.082 -19.936  0.00  0.00    -0.001 C 
ATOM     23  C   UNL     1      35.232 -16.928 -21.897  0.00  0.00    +0.037 C 
ATOM     24  C   UNL     1      35.781 -16.892 -20.615  0.00  0.00    +0.013 C 
ATOM     25  C   UNL     1      34.359 -18.220 -23.872  0.00  0.00    +0.032 C 
BRANCH  23  26
ATOM     26  N   UNL     1      34.972 -15.714 -22.569  0.00  0.00    -0.357 N 
ATOM     27  H   UNL     1      35.473 -15.486 -23.386  0.00  0.00    +0.142 HD
ATOM     28  H   UNL     1      34.291 -15.094 -22.221  0.00  0.00    +0.142 HD
ENDBRANCH  23  26
ENDBRANCH  18  19
ENDBRANCH   1  18
TORSDOF 4
ENDMDL
MODEL 5
REMARK VINA RESULT:      -9.9      6.438      9.585
REMARK  Name = 21874557
REMARK  4 active torsions:
REMARK  status: ('A' for Active; 'I' for Inactive)
REMARK    1  A    between atoms: N_1  and  C_18
REMARK    2  A    between atoms: C_9  and  C_14
REMARK    3  A    between atoms: C_18  and  C_19
REMARK    4  A    between atoms: C_23  and  N_26
REMARK                            x       y       z     vdW  Elec       q    Type
REMARK                         _______ _______ _______ _____ _____    ______ ____
ROOT
ATOM      1  N   UNL     1      34.733 -23.281 -15.296  0.00  0.00    -0.170 N 
ATOM      2  N   UNL     1      35.864 -22.882 -15.909  0.00  0.00    -0.042 NA
ATOM      3  N   UNL     1      35.515 -22.121 -16.944  0.00  0.00    -0.137 NA
ATOM      4  N   UNL     1      32.342 -22.960 -15.610  0.00  0.00    -0.310 NA
ATOM      5  N   UNL     1      31.917 -21.540 -17.553  0.00  0.00    -0.324 NA
ATOM      6  N   UNL     1      30.163 -22.405 -16.261  0.00  0.00    -0.283 N 
ATOM      7  C   UNL     1      33.633 -22.784 -15.924  0.00  0.00    +0.238 C 
ATOM      8  C   UNL     1      34.151 -22.048 -16.971  0.00  0.00    +0.181 C 
ATOM      9  C   UNL     1      33.242 -21.409 -17.806  0.00  0.00    +0.202 C 
ATOM     10  C   UNL     1      31.554 -22.296 -16.486  0.00  0.00    +0.198 C 
ATOM     11  H   UNL     1      29.827 -22.938 -15.505  0.00  0.00    +0.156 HD
ATOM     12  H   UNL     1      29.530 -21.947 -16.860  0.00  0.00    +0.156 HD
ENDROOT
BRANCH   9  14
ATOM     13  O   UNL     1      35.005 -20.514 -19.089  0.00  0.00    -0.448 OA
ATOM     14  C   UNL     1      33.660 -20.621 -18.922  0.00  0.00    +0.178 C 
ATOM     15  C   UNL     1      32.995 -19.921 -19.901  0.00  0.00    +0.043 C 
ATOM     16  C   UNL     1      33.995 -19.346 -20.722  0.00  0.00    +0.044 C 
ATOM     17  C   UNL     1      35.200 -19.737 -20.186  0.00  0.00    +0.180 C 
ENDBRANCH   9  14
BRANCH   1  18
ATOM     18  C   UNL     1      34.791 -24.140 -14.109  0.00  0.00    +0.145 C 
BRANCH  18  19
ATOM     19  C   UNL     1      35.982 -23.842 -13.264  0.00  0.00    -0.001 C 
ATOM     20  C   UNL     1      37.207 -24.446 -13.545  0.00  0.00    -0.006 C 
ATOM     21  C   UNL     1      38.322 -24.166 -12.754  0.00  0.00    -0.009 C 
ATOM     22  C   UNL     1      35.871 -22.958 -12.189  0.00  0.00    -0.001 C 
ATOM     23  C   UNL     1      38.210 -23.282 -11.680  0.00  0.00    +0.037 C 
ATOM     24  C   UNL     1      36.985 -22.678 -11.398  0.00  0.00    +0.013 C 
ATOM     25  C   UNL     1      39.622 -24.827 -13.078  0.00  0.00    +0.032 C 
BRANCH  23  26
ATOM     26  N   UNL     1      39.326 -22.986 -10.869  0.00  0.00    -0.357 N 
ATOM     27  H   UNL     1      39.732 -22.089 -10.897  0.00  0.00    +0.142 HD
ATOM     28  H   UNL     1      39.701 -23.676 -10.275  0.00  0.00    +0.142 HD
ENDBRANCH  23  26
ENDBRANCH  18  19
ENDBRANCH   1  18
TORSDOF 4
ENDMDL
MODEL 6
REMARK VINA RESULT:      -9.8      5.158      9.744
REMARK  Name = 21874557
REMARK  4 active torsions:
REMARK  status: ('A' for Active; 'I' for Inactive)
REMARK    1  A    between atoms: N_1  and  C_18
REMARK    2  A    between atoms: C_9  and  C_14
REMARK    3  A    between atoms: C_18  and  C_19
REMARK    4  A    between atoms: C_23  and  N_26
REMARK                            x       y       z     vdW  Elec       q    Type
REMARK                         _______ _______ _______ _____ _____    ______ ____
ROOT
ATOM      1  N   UNL     1      34.415 -21.691 -17.702  0.00  0.00    -0.170 N 
ATOM      2  N   UNL     1      33.265 -21.328 -18.302  0.00  0.00    -0.042 NA
ATOM      3  N   UNL     1      32.260 -21.777 -17.553  0.00  0.00    -0.137 NA
ATOM      4  N   UNL     1      35.057 -22.904 -15.693  0.00  0.00    -0.310 NA
ATOM      5  N   UNL     1      33.075 -23.639 -14.467  0.00  0.00    -0.324 NA
ATOM      6  N   UNL     1      35.237 -24.109 -13.694  0.00  0.00    -0.283 N 
ATOM      7  C   UNL     1      34.174 -22.383 -16.555  0.00  0.00    +0.238 C 
ATOM      8  C   UNL     1      32.795 -22.427 -16.477  0.00  0.00    +0.181 C 
ATOM      9  C   UNL     1      32.244 -23.085 -15.384  0.00  0.00    +0.202 C 
ATOM     10  C   UNL     1      34.410 -23.516 -14.675  0.00  0.00    +0.198 C 
ATOM     11  H   UNL     1      36.216 -24.060 -13.780  0.00  0.00    +0.156 HD
ATOM     12  H   UNL     1      34.833 -24.572 -12.925  0.00  0.00    +0.156 HD
ENDROOT
BRANCH   9  14
ATOM     13  O   UNL     1      30.399 -24.402 -14.742  0.00  0.00    -0.448 OA
ATOM     14  C   UNL     1      30.832 -23.196 -15.197  0.00  0.00    +0.178 C 
ATOM     15  C   UNL     1      29.773 -22.338 -15.375  0.00  0.00    +0.043 C 
ATOM     16  C   UNL     1      28.613 -23.062 -15.008  0.00  0.00    +0.044 C 
ATOM     17  C   UNL     1      29.048 -24.312 -14.629  0.00  0.00    +0.180 C 
ENDBRANCH   9  14
BRANCH   1  18
ATOM     18  C   UNL     1      35.709 -21.337 -18.294  0.00  0.00    +0.145 C 
BRANCH  18  19
ATOM     19  C   UNL     1      35.571 -20.301 -19.357  0.00  0.00    -0.001 C 
ATOM     20  C   UNL     1      36.703 -19.656 -19.854  0.00  0.00    -0.006 C 
ATOM     21  C   UNL     1      36.572 -18.687 -20.850  0.00  0.00    -0.009 C 
ATOM     22  C   UNL     1      34.308 -19.977 -19.854  0.00  0.00    -0.001 C 
ATOM     23  C   UNL     1      35.309 -18.363 -21.347  0.00  0.00    +0.037 C 
ATOM     24  C   UNL     1      34.177 -19.008 -20.849  0.00  0.00    +0.013 C 
ATOM     25  C   UNL     1      37.801 -18.011 -21.364  0.00  0.00    +0.032 C 
BRANCH  23  26
ATOM     26  N   UNL     1      35.158 -17.386 -22.354  0.00  0.00    -0.357 N 
ATOM     27  H   UNL     1      35.341 -16.440 -22.153  0.00  0.00    +0.142 HD
ATOM     28  H   UNL     1      34.869 -17.650 -23.257  0.00  0.00    +0.142 HD
ENDBRANCH  23  26
ENDBRANCH  18  19
ENDBRANCH   1  18
TORSDOF 4
ENDMDL
MODEL 7
REMARK VINA RESULT:      -9.7      5.551     10.483
REMARK  Name = 21874557
REMARK  4 active torsions:
REMARK  status: ('A' for Active; 'I' for Inactive)
REMARK    1  A    between atoms: N_1  and  C_18
REMARK    2  A    between atoms: C_9  and  C_14
REMARK    3  A    between atoms: C_18  and  C_19
REMARK    4  A    between atoms: C_23  and  N_26
REMARK                            x       y       z     vdW  Elec       q    Type
REMARK                         _______ _______ _______ _____ _____    ______ ____
ROOT
ATOM      1  N   UNL     1      34.273 -22.063 -17.193  0.00  0.00    -0.170 N 
ATOM      2  N   UNL     1      35.604 -22.077 -16.993  0.00  0.00    -0.042 NA
ATOM      3  N   UNL     1      35.825 -22.577 -15.778  0.00  0.00    -0.137 NA
ATOM      4  N   UNL     1      32.287 -22.697 -15.938  0.00  0.00    -0.310 NA
ATOM      5  N   UNL     1      32.907 -23.587 -13.748  0.00  0.00    -0.324 NA
ATOM      6  N   UNL     1      30.665 -23.425 -14.414  0.00  0.00    -0.283 N 
ATOM      7  C   UNL     1      33.608 -22.554 -16.111  0.00  0.00    +0.238 C 
ATOM      8  C   UNL     1      34.613 -22.876 -15.221  0.00  0.00    +0.181 C 
ATOM      9  C   UNL     1      34.228 -23.412 -13.998  0.00  0.00    +0.202 C 
ATOM     10  C   UNL     1      32.031 -23.225 -14.719  0.00  0.00    +0.198 C 
ATOM     11  H   UNL     1      29.974 -23.185 -15.072  0.00  0.00    +0.156 HD
ATOM     12  H   UNL     1      30.406 -23.806 -13.544  0.00  0.00    +0.156 HD
ENDROOT
BRANCH   9  14
ATOM     13  O   UNL     1      34.805 -23.520 -11.716  0.00  0.00    -0.448 OA
ATOM     14  C   UNL     1      35.178 -23.782 -12.997  0.00  0.00    +0.178 C 
ATOM     15  C   UNL     1      36.424 -24.362 -13.029  0.00  0.00    +0.043 C 
ATOM     16  C   UNL     1      36.846 -24.463 -11.681  0.00  0.00    +0.044 C 
ATOM     17  C   UNL     1      35.826 -23.938 -10.922  0.00  0.00    +0.180 C 
ENDBRANCH   9  14
BRANCH   1  18
ATOM     18  C   UNL     1      33.712 -21.562 -18.452  0.00  0.00    +0.145 C 
BRANCH  18  19
ATOM     19  C   UNL     1      34.661 -20.657 -19.162  0.00  0.00    -0.001 C 
ATOM     20  C   UNL     1      34.206 -19.847 -20.202  0.00  0.00    -0.006 C 
ATOM     21  C   UNL     1      35.094 -18.999 -20.866  0.00  0.00    -0.009 C 
ATOM     22  C   UNL     1      36.004 -20.620 -18.785  0.00  0.00    -0.001 C 
ATOM     23  C   UNL     1      36.437 -18.962 -20.488  0.00  0.00    +0.037 C 
ATOM     24  C   UNL     1      36.892 -19.773 -19.448  0.00  0.00    +0.013 C 
ATOM     25  C   UNL     1      34.580 -18.143 -21.976  0.00  0.00    +0.032 C 
BRANCH  23  26
ATOM     26  N   UNL     1      37.349 -18.111 -21.147  0.00  0.00    -0.357 N 
ATOM     27  H   UNL     1      38.077 -18.494 -21.689  0.00  0.00    +0.142 HD
ATOM     28  H   UNL     1      37.260 -17.134 -21.065  0.00  0.00    +0.142 HD
ENDBRANCH  23  26
ENDBRANCH  18  19
ENDBRANCH   1  18
TORSDOF 4
ENDMDL
MODEL 8
REMARK VINA RESULT:      -9.5     10.161     12.780
REMARK  Name = 21874557
REMARK  4 active torsions:
REMARK  status: ('A' for Active; 'I' for Inactive)
REMARK    1  A    between atoms: N_1  and  C_18
REMARK    2  A    between atoms: C_9  and  C_14
REMARK    3  A    between atoms: C_18  and  C_19
REMARK    4  A    between atoms: C_23  and  N_26
REMARK                            x       y       z     vdW  Elec       q    Type
REMARK                         _______ _______ _______ _____ _____    ______ ____
ROOT
ATOM      1  N   UNL     1      34.661 -22.538 -14.295  0.00  0.00    -0.170 N 
ATOM      2  N   UNL     1      35.301 -22.730 -15.465  0.00  0.00    -0.042 NA
ATOM      3  N   UNL     1      36.453 -23.342 -15.199  0.00  0.00    -0.137 NA
ATOM      4  N   UNL     1      35.083 -23.017 -11.947  0.00  0.00    -0.310 NA
ATOM      5  N   UNL     1      37.239 -24.136 -11.677  0.00  0.00    -0.324 NA
ATOM      6  N   UNL     1      35.870 -23.652  -9.836  0.00  0.00    -0.283 N 
ATOM      7  C   UNL     1      35.388 -23.023 -13.252  0.00  0.00    +0.238 C 
ATOM      8  C   UNL     1      36.527 -23.531 -13.847  0.00  0.00    +0.181 C 
ATOM      9  C   UNL     1      37.476 -24.105 -13.011  0.00  0.00    +0.202 C 
ATOM     10  C   UNL     1      36.075 -23.598 -11.234  0.00  0.00    +0.198 C 
ATOM     11  H   UNL     1      35.048 -23.281  -9.444  0.00  0.00    +0.156 HD
ATOM     12  H   UNL     1      36.551 -24.062  -9.255  0.00  0.00    +0.156 HD
ENDROOT
BRANCH   9  14
ATOM     13  O   UNL     1      39.520 -23.784 -14.139  0.00  0.00    -0.448 OA
ATOM     14  C   UNL     1      38.693 -24.662 -13.511  0.00  0.00    +0.178 C 
ATOM     15  C   UNL     1      39.241 -25.923 -13.506  0.00  0.00    +0.043 C 
ATOM     16  C   UNL     1      40.485 -25.815 -14.173  0.00  0.00    +0.044 C 
ATOM     17  C   UNL     1      40.608 -24.494 -14.538  0.00  0.00    +0.180 C 
ENDBRANCH   9  14
BRANCH   1  18
ATOM     18  C   UNL     1      33.351 -21.881 -14.261  0.00  0.00    +0.145 C 
BRANCH  18  19
ATOM     19  C   UNL     1      32.234 -22.868 -14.225  0.00  0.00    -0.001 C 
ATOM     20  C   UNL     1      31.186 -22.770 -15.141  0.00  0.00    -0.006 C 
ATOM     21  C   UNL     1      30.142 -23.695 -15.107  0.00  0.00    -0.009 C 
ATOM     22  C   UNL     1      32.237 -23.889 -13.274  0.00  0.00    -0.001 C 
ATOM     23  C   UNL     1      30.145 -24.716 -14.156  0.00  0.00    +0.037 C 
ATOM     24  C   UNL     1      31.192 -24.813 -13.240  0.00  0.00    +0.013 C 
ATOM     25  C   UNL     1      29.033 -23.566 -16.099  0.00  0.00    +0.032 C 
BRANCH  23  26
ATOM     26  N   UNL     1      29.097 -25.660 -14.107  0.00  0.00    -0.357 N 
ATOM     27  H   UNL     1      28.223 -25.446 -14.507  0.00  0.00    +0.142 HD
ATOM     28  H   UNL     1      29.239 -26.532 -13.673  0.00  0.00    +0.142 HD
ENDBRANCH  23  26
ENDBRANCH  18  19
ENDBRANCH   1  18
TORSDOF 4
ENDMDL
MODEL 9
REMARK VINA RESULT:      -9.5      9.166     12.070
REMARK  Name = 21874557
REMARK  4 active torsions:
REMARK  status: ('A' for Active; 'I' for Inactive)
REMARK    1  A    between atoms: N_1  and  C_18
REMARK    2  A    between atoms: C_9  and  C_14
REMARK    3  A    between atoms: C_18  and  C_19
REMARK    4  A    between atoms: C_23  and  N_26
REMARK                            x       y       z     vdW  Elec       q    Type
REMARK                         _______ _______ _______ _____ _____    ______ ____
ROOT
ATOM      1  N   UNL     1      33.941 -23.082 -12.636  0.00  0.00    -0.170 N 
ATOM      2  N   UNL     1      34.576 -23.809 -11.696  0.00  0.00    -0.042 NA
ATOM      3  N   UNL     1      35.766 -24.149 -12.186  0.00  0.00    -0.137 NA
ATOM      4  N   UNL     1      34.423 -22.288 -14.885  0.00  0.00    -0.310 NA
ATOM      5  N   UNL     1      36.645 -23.018 -15.592  0.00  0.00    -0.324 NA
ATOM      6  N   UNL     1      35.275 -21.733 -16.994  0.00  0.00    -0.283 N 
ATOM      7  C   UNL     1      34.710 -22.940 -13.750  0.00  0.00    +0.238 C 
ATOM      8  C   UNL     1      35.869 -23.626 -13.444  0.00  0.00    +0.181 C 
ATOM      9  C   UNL     1      36.862 -23.656 -14.415  0.00  0.00    +0.202 C 
ATOM     10  C   UNL     1      35.457 -22.383 -15.752  0.00  0.00    +0.198 C 
ATOM     11  H   UNL     1      34.436 -21.252 -17.180  0.00  0.00    +0.156 HD
ATOM     12  H   UNL     1      35.987 -21.762 -17.673  0.00  0.00    +0.156 HD
ENDROOT
BRANCH   9  14
ATOM     13  O   UNL     1      39.217 -23.611 -14.504  0.00  0.00    -0.448 OA
ATOM     14  C   UNL     1      38.102 -24.335 -14.214  0.00  0.00    +0.178 C 
ATOM     15  C   UNL     1      38.444 -25.594 -13.779  0.00  0.00    +0.043 C 
ATOM     16  C   UNL     1      39.858 -25.649 -13.804  0.00  0.00    +0.044 C 
ATOM     17  C   UNL     1      40.280 -24.418 -14.252  0.00  0.00    +0.180 C 
ENDBRANCH   9  14
BRANCH   1  18
ATOM     18  C   UNL     1      32.595 -22.556 -12.390  0.00  0.00    +0.145 C 
BRANCH  18  19
ATOM     19  C   UNL     1      31.600 -23.098 -13.359  0.00  0.00    -0.001 C 
ATOM     20  C   UNL     1      30.893 -22.230 -14.192  0.00  0.00    -0.006 C 
ATOM     21  C   UNL     1      29.963 -22.738 -15.100  0.00  0.00    -0.009 C 
ATOM     22  C   UNL     1      31.375 -24.473 -13.432  0.00  0.00    -0.001 C 
ATOM     23  C   UNL     1      29.739 -24.113 -15.173  0.00  0.00    +0.037 C 
ATOM     24  C   UNL     1      30.445 -24.981 -14.340  0.00  0.00    +0.013 C 
ATOM     25  C   UNL     1      29.220 -21.786 -15.980  0.00  0.00    +0.032 C 
BRANCH  23  26
ATOM     26  N   UNL     1      28.802 -24.645 -16.085  0.00  0.00    -0.357 N 
ATOM     27  H   UNL     1      29.113 -25.141 -16.877  0.00  0.00    +0.142 HD
ATOM     28  H   UNL     1      27.838 -24.520 -15.930  0.00  0.00    +0.142 HD
ENDBRANCH  23  26
ENDBRANCH  18  19
ENDBRANCH   1  18
TORSDOF 4
ENDMDL
