MODEL 1
REMARK VINA RESULT:     -12.1      0.000      0.000
REMARK  Name = 24995524
REMARK  4 active torsions:
REMARK  status: ('A' for Active; 'I' for Inactive)
REMARK    1  A    between atoms: N_5  and  C_13
REMARK    2  A    between atoms: C_6  and  C_19
REMARK    3  A    between atoms: C_19  and  C_20
REMARK    4  A    between atoms: C_20  and  N_22
REMARK                            x       y       z     vdW  Elec       q    Type
REMARK                         _______ _______ _______ _____ _____    ______ ____
ROOT
ATOM      1  S   UNL     1      36.680 -19.801 -19.385  0.00  0.00    -0.056 S 
ATOM      2  O   UNL     1      35.542 -22.659 -15.873  0.00  0.00    -0.252 OA
ATOM      3  N   UNL     1      34.734 -21.133 -18.327  0.00  0.00    -0.223 NA
ATOM      4  N   UNL     1      36.877 -21.288 -17.236  0.00  0.00    -0.248 N 
ATOM      5  N   UNL     1      37.807 -22.351 -15.376  0.00  0.00    -0.268 N 
ATOM      6  C   UNL     1      35.142 -19.710 -20.139  0.00  0.00    +0.031 C 
ATOM      7  C   UNL     1      34.237 -20.479 -19.438  0.00  0.00    +0.103 C 
ATOM      8  C   UNL     1      36.012 -20.849 -18.202  0.00  0.00    +0.166 C 
ATOM      9  C   UNL     1      36.633 -22.159 -16.124  0.00  0.00    +0.310 C 
ATOM     10  H   UNL     1      37.801 -20.959 -17.319  0.00  0.00    +0.158 HD
ATOM     11  H   UNL     1      38.608 -21.881 -15.703  0.00  0.00    +0.156 HD
ENDROOT
BRANCH   5  13
ATOM     12 CL   UNL     1      36.645 -23.161 -10.441  0.00  0.00    -0.082 Cl
ATOM     13  C   UNL     1      37.978 -23.136 -14.213  0.00  0.00    +0.052 C 
ATOM     14  C   UNL     1      37.305 -22.800 -13.039  0.00  0.00    +0.026 C 
ATOM     15  C   UNL     1      38.822 -24.248 -14.240  0.00  0.00    +0.015 C 
ATOM     16  C   UNL     1      37.476 -23.576 -11.891  0.00  0.00    +0.059 C 
ATOM     17  C   UNL     1      38.992 -25.022 -13.093  0.00  0.00    +0.002 C 
ATOM     18  C   UNL     1      38.319 -24.686 -11.919  0.00  0.00    +0.011 C 
ENDBRANCH   5  13
BRANCH   6  19
ATOM     19  C   UNL     1      34.943 -18.875 -21.380  0.00  0.00    +0.056 C 
BRANCH  19  20
ATOM     20  C   UNL     1      36.071 -17.871 -21.614  0.00  0.00    +0.093 C 
BRANCH  20  22
ATOM     21  S   UNL     1      34.524 -13.509 -21.270  0.00  0.00    -0.101 S 
ATOM     22  N   UNL     1      35.578 -16.527 -21.575  0.00  0.00    -0.320 N 
ATOM     23  N   UNL     1      34.998 -16.520 -23.882  0.00  0.00    -0.233 NA
ATOM     24  N   UNL     1      34.007 -14.595 -24.965  0.00  0.00    -0.247 NA
ATOM     25  C   UNL     1      35.050 -15.871 -22.702  0.00  0.00    +0.118 C 
ATOM     26  C   UNL     1      34.580 -14.565 -22.622  0.00  0.00    +0.145 C 
ATOM     27  C   UNL     1      34.067 -13.955 -23.766  0.00  0.00    +0.073 C 
ATOM     28  C   UNL     1      33.632 -12.620 -23.508  0.00  0.00    +0.022 C 
ATOM     29  C   UNL     1      33.823 -12.254 -22.194  0.00  0.00    +0.033 C 
ATOM     30  C   UNL     1      34.485 -15.850 -24.931  0.00  0.00    +0.251 C 
ATOM     31  H   UNL     1      35.610 -16.040 -20.720  0.00  0.00    +0.148 HD
ENDBRANCH  20  22
ENDBRANCH  19  20
ENDBRANCH   6  19
TORSDOF 4
ENDMDL
MODEL 2
REMARK VINA RESULT:     -11.9      1.203      1.643
REMARK  Name = 24995524
REMARK  4 active torsions:
REMARK  status: ('A' for Active; 'I' for Inactive)
REMARK    1  A    between atoms: N_5  and  C_13
REMARK    2  A    between atoms: C_6  and  C_19
REMARK    3  A    between atoms: C_19  and  C_20
REMARK    4  A    between atoms: C_20  and  N_22
REMARK                            x       y       z     vdW  Elec       q    Type
REMARK                         _______ _______ _______ _____ _____    ______ ____
ROOT
ATOM      1  S   UNL     1      36.525 -19.909 -19.442  0.00  0.00    -0.056 S 
ATOM      2  O   UNL     1      35.479 -22.646 -15.806  0.00  0.00    -0.252 OA
ATOM      3  N   UNL     1      34.604 -21.192 -18.281  0.00  0.00    -0.223 NA
ATOM      4  N   UNL     1      36.779 -21.329 -17.254  0.00  0.00    -0.248 N 
ATOM      5  N   UNL     1      37.760 -22.339 -15.391  0.00  0.00    -0.268 N 
ATOM      6  C   UNL     1      34.965 -19.831 -20.150  0.00  0.00    +0.031 C 
ATOM      7  C   UNL     1      34.077 -20.571 -19.397  0.00  0.00    +0.103 C 
ATOM      8  C   UNL     1      35.887 -20.914 -18.205  0.00  0.00    +0.166 C 
ATOM      9  C   UNL     1      36.565 -22.162 -16.107  0.00  0.00    +0.310 C 
ATOM     10  H   UNL     1      37.702 -21.010 -17.375  0.00  0.00    +0.158 HD
ATOM     11  H   UNL     1      38.554 -21.886 -15.757  0.00  0.00    +0.156 HD
ENDROOT
BRANCH   5  13
ATOM     12 CL   UNL     1      36.645 -23.064 -10.431  0.00  0.00    -0.082 Cl
ATOM     13  C   UNL     1      37.962 -23.089 -14.208  0.00  0.00    +0.052 C 
ATOM     14  C   UNL     1      37.282 -22.747 -13.040  0.00  0.00    +0.026 C 
ATOM     15  C   UNL     1      38.843 -24.171 -14.211  0.00  0.00    +0.015 C 
ATOM     16  C   UNL     1      37.484 -23.487 -11.874  0.00  0.00    +0.059 C 
ATOM     17  C   UNL     1      39.044 -24.910 -13.046  0.00  0.00    +0.002 C 
ATOM     18  C   UNL     1      38.364 -24.568 -11.878  0.00  0.00    +0.011 C 
ENDBRANCH   5  13
BRANCH   6  19
ATOM     19  C   UNL     1      34.732 -19.034 -21.410  0.00  0.00    +0.056 C 
BRANCH  19  20
ATOM     20  C   UNL     1      35.776 -17.939 -21.627  0.00  0.00    +0.093 C 
BRANCH  20  22
ATOM     21  S   UNL     1      34.229 -14.873 -24.749  0.00  0.00    -0.101 S 
ATOM     22  N   UNL     1      35.295 -16.946 -22.540  0.00  0.00    -0.320 N 
ATOM     23  N   UNL     1      35.133 -15.271 -20.858  0.00  0.00    -0.233 NA
ATOM     24  N   UNL     1      34.364 -13.026 -21.334  0.00  0.00    -0.247 NA
ATOM     25  C   UNL     1      34.981 -15.632 -22.148  0.00  0.00    +0.118 C 
ATOM     26  C   UNL     1      34.517 -14.697 -23.066  0.00  0.00    +0.145 C 
ATOM     27  C   UNL     1      34.217 -13.407 -22.632  0.00  0.00    +0.073 C 
ATOM     28  C   UNL     1      33.754 -12.579 -23.699  0.00  0.00    +0.022 C 
ATOM     29  C   UNL     1      33.714 -13.251 -24.900  0.00  0.00    +0.033 C 
ATOM     30  C   UNL     1      34.818 -14.004 -20.533  0.00  0.00    +0.251 C 
ATOM     31  H   UNL     1      35.178 -17.195 -23.486  0.00  0.00    +0.148 HD
ENDBRANCH  20  22
ENDBRANCH  19  20
ENDBRANCH   6  19
TORSDOF 4
ENDMDL
MODEL 3
REMARK VINA RESULT:     -11.9      4.742     11.438
REMARK  Name = 24995524
REMARK  4 active torsions:
REMARK  status: ('A' for Active; 'I' for Inactive)
REMARK    1  A    between atoms: N_5  and  C_13
REMARK    2  A    between atoms: C_6  and  C_19
REMARK    3  A    between atoms: C_19  and  C_20
REMARK    4  A    between atoms: C_20  and  N_22
REMARK                            x       y       z     vdW  Elec       q    Type
REMARK                         _______ _______ _______ _____ _____    ______ ____
ROOT
ATOM      1  S   UNL     1      33.908 -22.808 -16.180  0.00  0.00    -0.056 S 
ATOM      2  O   UNL     1      32.649 -19.797 -19.519  0.00  0.00    -0.252 OA
ATOM      3  N   UNL     1      31.881 -21.646 -17.284  0.00  0.00    -0.223 NA
ATOM      4  N   UNL     1      34.056 -21.107 -18.168  0.00  0.00    -0.248 N 
ATOM      5  N   UNL     1      34.965 -19.756 -19.842  0.00  0.00    -0.268 N 
ATOM      6  C   UNL     1      32.346 -23.172 -15.573  0.00  0.00    +0.031 C 
ATOM      7  C   UNL     1      31.398 -22.464 -16.281  0.00  0.00    +0.103 C 
ATOM      8  C   UNL     1      33.191 -21.747 -17.322  0.00  0.00    +0.166 C 
ATOM      9  C   UNL     1      33.778 -20.172 -19.218  0.00  0.00    +0.310 C 
ATOM     10  H   UNL     1      35.008 -21.319 -18.035  0.00  0.00    +0.158 HD
ATOM     11  H   UNL     1      35.798 -20.147 -19.489  0.00  0.00    +0.156 HD
ENDROOT
BRANCH   5  13
ATOM     12 CL   UNL     1      33.838 -18.499 -24.691  0.00  0.00    -0.082 Cl
ATOM     13  C   UNL     1      35.112 -18.846 -20.915  0.00  0.00    +0.052 C 
ATOM     14  C   UNL     1      34.476 -19.093 -22.131  0.00  0.00    +0.026 C 
ATOM     15  C   UNL     1      35.894 -17.701 -20.756  0.00  0.00    +0.015 C 
ATOM     16  C   UNL     1      34.623 -18.194 -23.189  0.00  0.00    +0.059 C 
ATOM     17  C   UNL     1      36.040 -16.804 -21.813  0.00  0.00    +0.002 C 
ATOM     18  C   UNL     1      35.404 -17.051 -23.029  0.00  0.00    +0.011 C 
ENDBRANCH   5  13
BRANCH   6  19
ATOM     19  C   UNL     1      32.173 -24.143 -14.430  0.00  0.00    +0.056 C 
BRANCH  19  20
ATOM     20  C   UNL     1      33.052 -23.812 -13.225  0.00  0.00    +0.093 C 
BRANCH  20  22
ATOM     21  S   UNL     1      37.472 -24.623 -14.385  0.00  0.00    -0.101 S 
ATOM     22  N   UNL     1      34.434 -24.050 -13.517  0.00  0.00    -0.320 N 
ATOM     23  N   UNL     1      35.129 -23.631 -11.281  0.00  0.00    -0.233 NA
ATOM     24  N   UNL     1      37.447 -23.764 -10.596  0.00  0.00    -0.247 NA
ATOM     25  C   UNL     1      35.450 -23.958 -12.548  0.00  0.00    +0.118 C 
ATOM     26  C   UNL     1      36.780 -24.197 -12.874  0.00  0.00    +0.145 C 
ATOM     27  C   UNL     1      37.753 -24.092 -11.881  0.00  0.00    +0.073 C 
ATOM     28  C   UNL     1      39.060 -24.368 -12.384  0.00  0.00    +0.022 C 
ATOM     29  C   UNL     1      39.048 -24.670 -13.727  0.00  0.00    +0.033 C 
ATOM     30  C   UNL     1      36.136 -23.555 -10.391  0.00  0.00    +0.251 C 
ATOM     31  H   UNL     1      34.684 -24.289 -14.439  0.00  0.00    +0.148 HD
ENDBRANCH  20  22
ENDBRANCH  19  20
ENDBRANCH   6  19
TORSDOF 4
ENDMDL
MODEL 4
REMARK VINA RESULT:     -11.8      1.431      1.775
REMARK  Name = 24995524
REMARK  4 active torsions:
REMARK  status: ('A' for Active; 'I' for Inactive)
REMARK    1  A    between atoms: N_5  and  C_13
REMARK    2  A    between atoms: C_6  and  C_19
REMARK    3  A    between atoms: C_19  and  C_20
REMARK    4  A    between atoms: C_20  and  N_22
REMARK                            x       y       z     vdW  Elec       q    Type
REMARK                         _______ _______ _______ _____ _____    ______ ____
ROOT
ATOM      1  S   UNL     1      34.671 -20.568 -19.500  0.00  0.00    -0.056 S 
ATOM      2  O   UNL     1      37.947 -21.049 -16.208  0.00  0.00    -0.252 OA
ATOM      3  N   UNL     1      37.008 -19.759 -18.750  0.00  0.00    -0.223 NA
ATOM      4  N   UNL     1      35.923 -21.392 -17.350  0.00  0.00    -0.248 N 
ATOM      5  N   UNL     1      36.366 -22.559 -15.376  0.00  0.00    -0.268 N 
ATOM      6  C   UNL     1      35.469 -19.405 -20.475  0.00  0.00    +0.031 C 
ATOM      7  C   UNL     1      36.694 -19.098 -19.921  0.00  0.00    +0.103 C 
ATOM      8  C   UNL     1      36.015 -20.559 -18.433  0.00  0.00    +0.166 C 
ATOM      9  C   UNL     1      36.862 -21.614 -16.290  0.00  0.00    +0.310 C 
ATOM     10  H   UNL     1      35.090 -21.914 -17.291  0.00  0.00    +0.158 HD
ATOM     11  H   UNL     1      35.476 -22.928 -15.577  0.00  0.00    +0.156 HD
ENDROOT
BRANCH   5  13
ATOM     12 CL   UNL     1      40.255 -25.149 -13.246  0.00  0.00    -0.082 Cl
ATOM     13  C   UNL     1      36.990 -23.045 -14.203  0.00  0.00    +0.052 C 
ATOM     14  C   UNL     1      38.177 -23.772 -14.294  0.00  0.00    +0.026 C 
ATOM     15  C   UNL     1      36.417 -22.797 -12.956  0.00  0.00    +0.015 C 
ATOM     16  C   UNL     1      38.790 -24.251 -13.135  0.00  0.00    +0.059 C 
ATOM     17  C   UNL     1      37.030 -23.276 -11.799  0.00  0.00    +0.002 C 
ATOM     18  C   UNL     1      38.217 -24.002 -11.889  0.00  0.00    +0.011 C 
ENDBRANCH   5  13
BRANCH   6  19
ATOM     19  C   UNL     1      34.818 -18.879 -21.731  0.00  0.00    +0.056 C 
BRANCH  19  20
ATOM     20  C   UNL     1      35.704 -17.902 -22.502  0.00  0.00    +0.093 C 
BRANCH  20  22
ATOM     21  S   UNL     1      34.641 -13.539 -21.329  0.00  0.00    -0.101 S 
ATOM     22  N   UNL     1      35.352 -16.546 -22.204  0.00  0.00    -0.320 N 
ATOM     23  N   UNL     1      34.506 -16.133 -24.389  0.00  0.00    -0.233 NA
ATOM     24  N   UNL     1      33.587 -13.991 -25.041  0.00  0.00    -0.247 NA
ATOM     25  C   UNL     1      34.761 -15.683 -23.145  0.00  0.00    +0.118 C 
ATOM     26  C   UNL     1      34.434 -14.372 -22.815  0.00  0.00    +0.145 C 
ATOM     27  C   UNL     1      33.851 -13.552 -23.780  0.00  0.00    +0.073 C 
ATOM     28  C   UNL     1      33.582 -12.245 -23.277  0.00  0.00    +0.022 C 
ATOM     29  C   UNL     1      33.962 -12.104 -21.961  0.00  0.00    +0.033 C 
ATOM     30  C   UNL     1      33.941 -15.269 -25.253  0.00  0.00    +0.251 C 
ATOM     31  H   UNL     1      35.533 -16.202 -21.299  0.00  0.00    +0.148 HD
ENDBRANCH  20  22
ENDBRANCH  19  20
ENDBRANCH   6  19
TORSDOF 4
ENDMDL
MODEL 5
REMARK VINA RESULT:     -11.1      1.859      2.436
REMARK  Name = 24995524
REMARK  4 active torsions:
REMARK  status: ('A' for Active; 'I' for Inactive)
REMARK    1  A    between atoms: N_5  and  C_13
REMARK    2  A    between atoms: C_6  and  C_19
REMARK    3  A    between atoms: C_19  and  C_20
REMARK    4  A    between atoms: C_20  and  N_22
REMARK                            x       y       z     vdW  Elec       q    Type
REMARK                         _______ _______ _______ _____ _____    ______ ____
ROOT
ATOM      1  S   UNL     1      36.708 -18.662 -20.245  0.00  0.00    -0.056 S 
ATOM      2  O   UNL     1      35.244 -21.884 -17.201  0.00  0.00    -0.252 OA
ATOM      3  N   UNL     1      34.715 -20.181 -19.614  0.00  0.00    -0.223 NA
ATOM      4  N   UNL     1      36.677 -20.328 -18.223  0.00  0.00    -0.248 N 
ATOM      5  N   UNL     1      37.385 -21.509 -16.337  0.00  0.00    -0.268 N 
ATOM      6  C   UNL     1      35.297 -18.580 -21.217  0.00  0.00    +0.031 C 
ATOM      7  C   UNL     1      34.349 -19.454 -20.730  0.00  0.00    +0.103 C 
ATOM      8  C   UNL     1      35.939 -19.846 -19.271  0.00  0.00    +0.166 C 
ATOM      9  C   UNL     1      36.326 -21.309 -17.238  0.00  0.00    +0.310 C 
ATOM     10  H   UNL     1      37.580 -19.947 -18.134  0.00  0.00    +0.158 HD
ATOM     11  H   UNL     1      38.195 -20.972 -16.496  0.00  0.00    +0.156 HD
ENDROOT
BRANCH   5  13
ATOM     12 CL   UNL     1      40.035 -24.948 -13.595  0.00  0.00    -0.082 Cl
ATOM     13  C   UNL     1      37.431 -22.389 -15.231  0.00  0.00    +0.052 C 
ATOM     14  C   UNL     1      38.577 -23.145 -14.987  0.00  0.00    +0.026 C 
ATOM     15  C   UNL     1      36.329 -22.500 -14.382  0.00  0.00    +0.015 C 
ATOM     16  C   UNL     1      38.620 -24.013 -13.895  0.00  0.00    +0.059 C 
ATOM     17  C   UNL     1      36.372 -23.367 -13.291  0.00  0.00    +0.002 C 
ATOM     18  C   UNL     1      37.518 -24.123 -13.048  0.00  0.00    +0.011 C 
ENDBRANCH   5  13
BRANCH   6  19
ATOM     19  C   UNL     1      35.233 -17.644 -22.400  0.00  0.00    +0.056 C 
BRANCH  19  20
ATOM     20  C   UNL     1      35.803 -16.259 -22.100  0.00  0.00    +0.093 C 
BRANCH  20  22
ATOM     21  S   UNL     1      32.736 -13.829 -19.605  0.00  0.00    -0.101 S 
ATOM     22  N   UNL     1      34.858 -15.460 -21.379  0.00  0.00    -0.320 N 
ATOM     23  N   UNL     1      34.855 -13.731 -23.013  0.00  0.00    -0.233 NA
ATOM     24  N   UNL     1      33.503 -11.736 -22.787  0.00  0.00    -0.247 NA
ATOM     25  C   UNL     1      34.398 -14.213 -21.841  0.00  0.00    +0.118 C 
ATOM     26  C   UNL     1      33.479 -13.469 -21.110  0.00  0.00    +0.145 C 
ATOM     27  C   UNL     1      33.052 -12.238 -21.606  0.00  0.00    +0.073 C 
ATOM     28  C   UNL     1      32.114 -11.608 -20.734  0.00  0.00    +0.022 C 
ATOM     29  C   UNL     1      31.855 -12.365 -19.614  0.00  0.00    +0.033 C 
ATOM     30  C   UNL     1      34.385 -12.534 -23.411  0.00  0.00    +0.251 C 
ATOM     31  H   UNL     1      34.516 -15.799 -20.520  0.00  0.00    +0.148 HD
ENDBRANCH  20  22
ENDBRANCH  19  20
ENDBRANCH   6  19
TORSDOF 4
ENDMDL
MODEL 6
REMARK VINA RESULT:     -10.8      3.468      3.998
REMARK  Name = 24995524
REMARK  4 active torsions:
REMARK  status: ('A' for Active; 'I' for Inactive)
REMARK    1  A    between atoms: N_5  and  C_13
REMARK    2  A    between atoms: C_6  and  C_19
REMARK    3  A    between atoms: C_19  and  C_20
REMARK    4  A    between atoms: C_20  and  N_22
REMARK                            x       y       z     vdW  Elec       q    Type
REMARK                         _______ _______ _______ _____ _____    ______ ____
ROOT
ATOM      1  S   UNL     1      33.420 -19.560 -20.407  0.00  0.00    -0.056 S 
ATOM      2  O   UNL     1      34.354 -22.371 -16.798  0.00  0.00    -0.252 OA
ATOM      3  N   UNL     1      35.317 -20.804 -19.169  0.00  0.00    -0.223 NA
ATOM      4  N   UNL     1      33.092 -21.058 -18.282  0.00  0.00    -0.248 N 
ATOM      5  N   UNL     1      32.041 -22.167 -16.515  0.00  0.00    -0.268 N 
ATOM      6  C   UNL     1      35.016 -19.399 -21.015  0.00  0.00    +0.031 C 
ATOM      7  C   UNL     1      35.885 -20.128 -20.232  0.00  0.00    +0.103 C 
ATOM      8  C   UNL     1      34.023 -20.577 -19.163  0.00  0.00    +0.166 C 
ATOM      9  C   UNL     1      33.270 -21.919 -17.150  0.00  0.00    +0.310 C 
ATOM     10  H   UNL     1      32.166 -20.769 -18.450  0.00  0.00    +0.158 HD
ATOM     11  H   UNL     1      31.254 -21.733 -16.916  0.00  0.00    +0.156 HD
ENDROOT
BRANCH   5  13
ATOM     12 CL   UNL     1      28.832 -25.217 -13.917  0.00  0.00    -0.082 Cl
ATOM     13  C   UNL     1      31.798 -22.962 -15.371  0.00  0.00    +0.052 C 
ATOM     14  C   UNL     1      30.578 -23.621 -15.226  0.00  0.00    +0.026 C 
ATOM     15  C   UNL     1      32.780 -23.087 -14.388  0.00  0.00    +0.015 C 
ATOM     16  C   UNL     1      30.339 -24.405 -14.097  0.00  0.00    +0.059 C 
ATOM     17  C   UNL     1      32.541 -23.870 -13.259  0.00  0.00    +0.002 C 
ATOM     18  C   UNL     1      31.320 -24.529 -13.114  0.00  0.00    +0.011 C 
ENDBRANCH   5  13
BRANCH   6  19
ATOM     19  C   UNL     1      35.291 -18.555 -22.236  0.00  0.00    +0.056 C 
BRANCH  19  20
ATOM     20  C   UNL     1      36.297 -17.435 -21.976  0.00  0.00    +0.093 C 
BRANCH  20  22
ATOM     21  S   UNL     1      34.185 -13.436 -20.935  0.00  0.00    -0.101 S 
ATOM     22  N   UNL     1      35.629 -16.195 -21.722  0.00  0.00    -0.320 N 
ATOM     23  N   UNL     1      35.019 -15.889 -24.001  0.00  0.00    -0.233 NA
ATOM     24  N   UNL     1      33.765 -13.964 -24.761  0.00  0.00    -0.247 NA
ATOM     25  C   UNL     1      35.001 -15.441 -22.731  0.00  0.00    +0.118 C 
ATOM     26  C   UNL     1      34.363 -14.240 -22.441  0.00  0.00    +0.145 C 
ATOM     27  C   UNL     1      33.755 -13.526 -23.473  0.00  0.00    +0.073 C 
ATOM     28  C   UNL     1      33.150 -12.322 -23.004  0.00  0.00    +0.022 C 
ATOM     29  C   UNL     1      33.309 -12.153 -21.647  0.00  0.00    +0.033 C 
ATOM     30  C   UNL     1      34.407 -15.132 -24.930  0.00  0.00    +0.251 C 
ATOM     31  H   UNL     1      35.608 -15.853 -20.798  0.00  0.00    +0.148 HD
ENDBRANCH  20  22
ENDBRANCH  19  20
ENDBRANCH   6  19
TORSDOF 4
ENDMDL
MODEL 7
REMARK VINA RESULT:     -10.7      4.327     11.025
REMARK  Name = 24995524
REMARK  4 active torsions:
REMARK  status: ('A' for Active; 'I' for Inactive)
REMARK    1  A    between atoms: N_5  and  C_13
REMARK    2  A    between atoms: C_6  and  C_19
REMARK    3  A    between atoms: C_19  and  C_20
REMARK    4  A    between atoms: C_20  and  N_22
REMARK                            x       y       z     vdW  Elec       q    Type
REMARK                         _______ _______ _______ _____ _____    ______ ____
ROOT
ATOM      1  S   UNL     1      34.454 -22.417 -17.011  0.00  0.00    -0.056 S 
ATOM      2  O   UNL     1      32.610 -19.487 -20.143  0.00  0.00    -0.252 OA
ATOM      3  N   UNL     1      32.247 -21.328 -17.802  0.00  0.00    -0.223 NA
ATOM      4  N   UNL     1      34.245 -20.738 -19.012  0.00  0.00    -0.248 N 
ATOM      5  N   UNL     1      34.847 -19.385 -20.818  0.00  0.00    -0.268 N 
ATOM      6  C   UNL     1      33.014 -22.817 -16.168  0.00  0.00    +0.031 C 
ATOM      7  C   UNL     1      31.948 -22.146 -16.729  0.00  0.00    +0.103 C 
ATOM      8  C   UNL     1      33.539 -21.392 -18.039  0.00  0.00    +0.166 C 
ATOM      9  C   UNL     1      33.781 -19.826 -20.016  0.00  0.00    +0.310 C 
ATOM     10  H   UNL     1      35.212 -20.921 -19.025  0.00  0.00    +0.158 HD
ATOM     11  H   UNL     1      35.735 -19.746 -20.592  0.00  0.00    +0.156 HD
ENDROOT
BRANCH   5  13
ATOM     12 CL   UNL     1      35.397 -14.581 -22.545  0.00  0.00    -0.082 Cl
ATOM     13  C   UNL     1      34.801 -18.485 -21.908  0.00  0.00    +0.052 C 
ATOM     14  C   UNL     1      35.089 -17.135 -21.711  0.00  0.00    +0.026 C 
ATOM     15  C   UNL     1      34.466 -18.949 -23.181  0.00  0.00    +0.015 C 
ATOM     16  C   UNL     1      35.042 -16.248 -22.788  0.00  0.00    +0.059 C 
ATOM     17  C   UNL     1      34.419 -18.063 -24.256  0.00  0.00    +0.002 C 
ATOM     18  C   UNL     1      34.708 -16.712 -24.059  0.00  0.00    +0.011 C 
ENDBRANCH   5  13
BRANCH   6  19
ATOM     19  C   UNL     1      33.047 -23.778 -15.004  0.00  0.00    +0.056 C 
BRANCH  19  20
ATOM     20  C   UNL     1      33.860 -23.256 -13.820  0.00  0.00    +0.093 C 
BRANCH  20  22
ATOM     21  S   UNL     1      37.620 -25.892 -13.148  0.00  0.00    -0.101 S 
ATOM     22  N   UNL     1      35.058 -24.021 -13.644  0.00  0.00    -0.320 N 
ATOM     23  N   UNL     1      36.425 -22.395 -14.716  0.00  0.00    -0.233 NA
ATOM     24  N   UNL     1      38.812 -22.688 -14.994  0.00  0.00    -0.247 NA
ATOM     25  C   UNL     1      36.319 -23.584 -14.091  0.00  0.00    +0.118 C 
ATOM     26  C   UNL     1      37.458 -24.358 -13.900  0.00  0.00    +0.145 C 
ATOM     27  C   UNL     1      38.687 -23.886 -14.361  0.00  0.00    +0.073 C 
ATOM     28  C   UNL     1      39.747 -24.800 -14.085  0.00  0.00    +0.022 C 
ATOM     29  C   UNL     1      39.305 -25.928 -13.431  0.00  0.00    +0.033 C 
ATOM     30  C   UNL     1      37.652 -22.023 -15.126  0.00  0.00    +0.251 C 
ATOM     31  H   UNL     1      34.996 -24.892 -13.190  0.00  0.00    +0.148 HD
ENDBRANCH  20  22
ENDBRANCH  19  20
ENDBRANCH   6  19
TORSDOF 4
ENDMDL
MODEL 8
REMARK VINA RESULT:     -10.5      4.920     12.180
REMARK  Name = 24995524
REMARK  4 active torsions:
REMARK  status: ('A' for Active; 'I' for Inactive)
REMARK    1  A    between atoms: N_5  and  C_13
REMARK    2  A    between atoms: C_6  and  C_19
REMARK    3  A    between atoms: C_19  and  C_20
REMARK    4  A    between atoms: C_20  and  N_22
REMARK                            x       y       z     vdW  Elec       q    Type
REMARK                         _______ _______ _______ _____ _____    ______ ____
ROOT
ATOM      1  S   UNL     1      35.356 -16.764 -22.774  0.00  0.00    -0.056 S 
ATOM      2  O   UNL     1      34.599 -12.434 -21.202  0.00  0.00    -0.252 OA
ATOM      3  N   UNL     1      35.109 -15.336 -20.634  0.00  0.00    -0.223 NA
ATOM      4  N   UNL     1      34.903 -14.183 -22.740  0.00  0.00    -0.248 N 
ATOM      5  N   UNL     1      34.520 -12.008 -23.500  0.00  0.00    -0.268 N 
ATOM      6  C   UNL     1      35.497 -17.556 -21.260  0.00  0.00    +0.031 C 
ATOM      7  C   UNL     1      35.337 -16.640 -20.241  0.00  0.00    +0.103 C 
ATOM      8  C   UNL     1      35.098 -15.282 -21.948  0.00  0.00    +0.166 C 
ATOM      9  C   UNL     1      34.665 -12.821 -22.363  0.00  0.00    +0.310 C 
ATOM     10  H   UNL     1      34.932 -14.353 -23.709  0.00  0.00    +0.158 HD
ATOM     11  H   UNL     1      34.599 -12.464 -24.369  0.00  0.00    +0.156 HD
ENDROOT
BRANCH   5  13
ATOM     12 CL   UNL     1      31.566  -8.040 -22.126  0.00  0.00    -0.082 Cl
ATOM     13  C   UNL     1      34.275 -10.616 -23.549  0.00  0.00    +0.052 C 
ATOM     14  C   UNL     1      33.171 -10.078 -22.889  0.00  0.00    +0.026 C 
ATOM     15  C   UNL     1      35.140  -9.781 -24.258  0.00  0.00    +0.015 C 
ATOM     16  C   UNL     1      32.930  -8.704 -22.940  0.00  0.00    +0.059 C 
ATOM     17  C   UNL     1      34.899  -8.409 -24.308  0.00  0.00    +0.002 C 
ATOM     18  C   UNL     1      33.795  -7.871 -23.648  0.00  0.00    +0.011 C 
ENDBRANCH   5  13
BRANCH   6  19
ATOM     19  C   UNL     1      35.756 -19.042 -21.192  0.00  0.00    +0.056 C 
BRANCH  19  20
ATOM     20  C   UNL     1      34.848 -19.763 -20.196  0.00  0.00    +0.093 C 
BRANCH  20  22
ATOM     21  S   UNL     1      37.401 -20.985 -16.518  0.00  0.00    -0.101 S 
ATOM     22  N   UNL     1      35.585 -20.182 -19.042  0.00  0.00    -0.320 N 
ATOM     23  N   UNL     1      33.873 -21.664 -18.309  0.00  0.00    -0.233 NA
ATOM     24  N   UNL     1      34.082 -22.993 -16.297  0.00  0.00    -0.247 NA
ATOM     25  C   UNL     1      35.092 -21.122 -18.117  0.00  0.00    +0.118 C 
ATOM     26  C   UNL     1      35.840 -21.503 -17.009  0.00  0.00    +0.145 C 
ATOM     27  C   UNL     1      35.311 -22.436 -16.119  0.00  0.00    +0.073 C 
ATOM     28  C   UNL     1      36.205 -22.712 -15.041  0.00  0.00    +0.022 C 
ATOM     29  C   UNL     1      37.374 -21.992 -15.137  0.00  0.00    +0.033 C 
ATOM     30  C   UNL     1      33.447 -22.556 -17.397  0.00  0.00    +0.251 C 
ATOM     31  H   UNL     1      36.477 -19.795 -18.888  0.00  0.00    +0.148 HD
ENDBRANCH  20  22
ENDBRANCH  19  20
ENDBRANCH   6  19
TORSDOF 4
ENDMDL
MODEL 9
REMARK VINA RESULT:     -10.5      5.869     12.597
REMARK  Name = 24995524
REMARK  4 active torsions:
REMARK  status: ('A' for Active; 'I' for Inactive)
REMARK    1  A    between atoms: N_5  and  C_13
REMARK    2  A    between atoms: C_6  and  C_19
REMARK    3  A    between atoms: C_19  and  C_20
REMARK    4  A    between atoms: C_20  and  N_22
REMARK                            x       y       z     vdW  Elec       q    Type
REMARK                         _______ _______ _______ _____ _____    ______ ____
ROOT
ATOM      1  S   UNL     1      35.007 -15.325 -22.386  0.00  0.00    -0.056 S 
ATOM      2  O   UNL     1      33.885 -11.614 -24.987  0.00  0.00    -0.252 OA
ATOM      3  N   UNL     1      34.176 -14.589 -24.719  0.00  0.00    -0.223 NA
ATOM      4  N   UNL     1      34.595 -12.842 -23.114  0.00  0.00    -0.248 N 
ATOM      5  N   UNL     1      34.473 -10.512 -23.010  0.00  0.00    -0.268 N 
ATOM      6  C   UNL     1      34.700 -16.546 -23.550  0.00  0.00    +0.031 C 
ATOM      7  C   UNL     1      34.268 -15.967 -24.725  0.00  0.00    +0.103 C 
ATOM      8  C   UNL     1      34.540 -14.142 -23.538  0.00  0.00    +0.166 C 
ATOM      9  C   UNL     1      34.276 -11.639 -23.825  0.00  0.00    +0.310 C 
ATOM     10  H   UNL     1      34.896 -12.714 -22.185  0.00  0.00    +0.158 HD
ATOM     11  H   UNL     1      34.791 -10.691 -22.095  0.00  0.00    +0.156 HD
ENDROOT
BRANCH   5  13
ATOM     12 CL   UNL     1      31.489  -6.343 -22.729  0.00  0.00    -0.082 Cl
ATOM     13  C   UNL     1      34.271  -9.152 -23.341  0.00  0.00    +0.052 C 
ATOM     14  C   UNL     1      33.115  -8.495 -22.919  0.00  0.00    +0.026 C 
ATOM     15  C   UNL     1      35.228  -8.467 -24.091  0.00  0.00    +0.015 C 
ATOM     16  C   UNL     1      32.916  -7.154 -23.249  0.00  0.00    +0.059 C 
ATOM     17  C   UNL     1      35.029  -7.127 -24.420  0.00  0.00    +0.002 C 
ATOM     18  C   UNL     1      33.873  -6.470 -23.998  0.00  0.00    +0.011 C 
ENDBRANCH   5  13
BRANCH   6  19
ATOM     19  C   UNL     1      34.913 -18.001 -23.212  0.00  0.00    +0.056 C 
BRANCH  19  20
ATOM     20  C   UNL     1      35.641 -18.207 -21.884  0.00  0.00    +0.093 C 
BRANCH  20  22
ATOM     21  S   UNL     1      32.899 -20.679 -19.071  0.00  0.00    -0.101 S 
ATOM     22  N   UNL     1      34.851 -18.992 -20.983  0.00  0.00    -0.320 N 
ATOM     23  N   UNL     1      36.749 -19.804 -19.800  0.00  0.00    -0.233 NA
ATOM     24  N   UNL     1      36.555 -21.328 -17.929  0.00  0.00    -0.247 NA
ATOM     25  C   UNL     1      35.411 -19.777 -19.957  0.00  0.00    +0.118 C 
ATOM     26  C   UNL     1      34.608 -20.524 -19.104  0.00  0.00    +0.145 C 
ATOM     27  C   UNL     1      35.207 -21.288 -18.102  0.00  0.00    +0.073 C 
ATOM     28  C   UNL     1      34.242 -21.991 -17.320  0.00  0.00    +0.022 C 
ATOM     29  C   UNL     1      32.953 -21.748 -17.739  0.00  0.00    +0.033 C 
ATOM     30  C   UNL     1      37.235 -20.570 -18.805  0.00  0.00    +0.251 C 
ATOM     31  H   UNL     1      33.872 -18.983 -21.087  0.00  0.00    +0.148 HD
ENDBRANCH  20  22
ENDBRANCH  19  20
ENDBRANCH   6  19
TORSDOF 4
ENDMDL
