MODEL 1
REMARK VINA RESULT:     -12.5      0.000      0.000
REMARK  Name = 24864821
REMARK  5 active torsions:
REMARK  status: ('A' for Active; 'I' for Inactive)
REMARK    1  A    between atoms: C_5  and  C_16
REMARK    2  A    between atoms: C_7  and  C_10
REMARK    3  A    between atoms: C_16  and  O_17
REMARK    4  A    between atoms: O_17  and  C_20
REMARK    5  A    between atoms: C_25  and  O_28
REMARK                            x       y       z     vdW  Elec       q    Type
REMARK                         _______ _______ _______ _____ _____    ______ ____
ROOT
ATOM      1  N   UNL     1      36.439 -22.478 -15.081  0.00  0.00    -0.191 N 
ATOM      2  N   UNL     1      35.107 -22.250 -15.201  0.00  0.00    -0.163 NA
ATOM      3  N   UNL     1      38.607 -22.315 -15.359  0.00  0.00    -0.128 NA
ATOM      4  N   UNL     1      38.364 -23.318 -14.443  0.00  0.00    -0.127 NA
ATOM      5  C   UNL     1      37.446 -21.825 -15.730  0.00  0.00    +0.208 A 
ATOM      6  C   UNL     1      37.062 -23.408 -14.282  0.00  0.00    +0.186 A 
ATOM      7  C   UNL     1      34.372 -23.022 -14.450  0.00  0.00    +0.101 C 
ATOM      8  C   UNL     1      36.241 -24.240 -13.496  0.00  0.00    +0.042 C 
ATOM      9  C   UNL     1      34.911 -24.088 -13.547  0.00  0.00    +0.024 C 
ENDROOT
BRANCH   7  10
ATOM     10  C   UNL     1      32.894 -22.866 -14.489  0.00  0.00    +0.019 C 
ATOM     11  C   UNL     1      32.157 -22.911 -13.306  0.00  0.00    +0.002 C 
ATOM     12  C   UNL     1      32.246 -22.672 -15.708  0.00  0.00    +0.002 C 
ATOM     13  C   UNL     1      30.771 -22.763 -13.343  0.00  0.00    +0.000 C 
ATOM     14  C   UNL     1      30.860 -22.524 -15.745  0.00  0.00    +0.000 C 
ATOM     15  C   UNL     1      30.121 -22.569 -14.562  0.00  0.00    +0.000 C 
ENDBRANCH   7  10
BRANCH   5  16
ATOM     16  C   UNL     1      37.205 -20.715 -16.712  0.00  0.00    +0.272 C 
BRANCH  16  17
ATOM     17  O   UNL     1      36.968 -21.279 -18.001  0.00  0.00    -0.467 OA
BRANCH  17  20
ATOM     18  N   UNL     1      33.467 -20.153 -19.916  0.00  0.00    -0.248 NA
ATOM     19  C   UNL     1      35.842 -19.882 -19.615  0.00  0.00    +0.030 C 
ATOM     20  C   UNL     1      35.829 -20.892 -18.643  0.00  0.00    +0.138 C 
ATOM     21  C   UNL     1      34.622 -19.540 -20.235  0.00  0.00    +0.066 C 
ATOM     22  C   UNL     1      37.030 -19.220 -19.973  0.00  0.00    +0.059 C 
ATOM     23  C   UNL     1      34.637 -18.536 -21.200  0.00  0.00    +0.109 C 
ATOM     24  C   UNL     1      34.640 -21.526 -18.313  0.00  0.00    +0.057 C 
ATOM     25  C   UNL     1      35.817 -17.879 -21.555  0.00  0.00    +0.118 C 
ATOM     26  C   UNL     1      37.015 -18.221 -20.941  0.00  0.00    +0.011 C 
ATOM     27  C   UNL     1      33.496 -21.123 -18.974  0.00  0.00    +0.102 C 
BRANCH  25  28
ATOM     28  O   UNL     1      35.792 -16.904 -22.505  0.00  0.00    -0.476 OA
ATOM     29  C   UNL     1      35.356 -15.608 -22.093  0.00  0.00    +0.252 C 
ENDBRANCH  25  28
ENDBRANCH  17  20
ENDBRANCH  16  17
ENDBRANCH   5  16
TORSDOF 5
ENDMDL
MODEL 2
REMARK VINA RESULT:     -11.6      5.643     10.109
REMARK  Name = 24864821
REMARK  5 active torsions:
REMARK  status: ('A' for Active; 'I' for Inactive)
REMARK    1  A    between atoms: C_5  and  C_16
REMARK    2  A    between atoms: C_7  and  C_10
REMARK    3  A    between atoms: C_16  and  O_17
REMARK    4  A    between atoms: O_17  and  C_20
REMARK    5  A    between atoms: C_25  and  O_28
REMARK                            x       y       z     vdW  Elec       q    Type
REMARK                         _______ _______ _______ _____ _____    ______ ____
ROOT
ATOM      1  N   UNL     1      34.675 -16.200 -23.368  0.00  0.00    -0.191 N 
ATOM      2  N   UNL     1      34.970 -16.842 -22.210  0.00  0.00    -0.163 NA
ATOM      3  N   UNL     1      34.325 -14.599 -24.823  0.00  0.00    -0.128 NA
ATOM      4  N   UNL     1      34.129 -15.809 -25.458  0.00  0.00    -0.127 NA
ATOM      5  C   UNL     1      34.650 -14.852 -23.575  0.00  0.00    +0.208 A 
ATOM      6  C   UNL     1      34.342 -16.763 -24.577  0.00  0.00    +0.186 A 
ATOM      7  C   UNL     1      34.925 -18.142 -22.304  0.00  0.00    +0.101 C 
ATOM      8  C   UNL     1      34.283 -18.169 -24.643  0.00  0.00    +0.042 C 
ATOM      9  C   UNL     1      34.561 -18.890 -23.550  0.00  0.00    +0.024 C 
ENDROOT
BRANCH   7  10
ATOM     10  C   UNL     1      35.235 -18.961 -21.102  0.00  0.00    +0.019 C 
ATOM     11  C   UNL     1      34.214 -19.646 -20.444  0.00  0.00    +0.002 C 
ATOM     12  C   UNL     1      36.546 -19.045 -20.635  0.00  0.00    +0.002 C 
ATOM     13  C   UNL     1      34.505 -20.415 -19.318  0.00  0.00    +0.000 C 
ATOM     14  C   UNL     1      36.837 -19.814 -19.509  0.00  0.00    +0.000 C 
ATOM     15  C   UNL     1      35.817 -20.500 -18.849  0.00  0.00    +0.000 C 
ENDBRANCH   7  10
BRANCH   5  16
ATOM     16  C   UNL     1      34.958 -13.850 -22.501  0.00  0.00    +0.272 C 
BRANCH  16  17
ATOM     17  O   UNL     1      34.454 -12.576 -22.895  0.00  0.00    -0.467 OA
BRANCH  17  20
ATOM     18  N   UNL     1      31.524 -10.952 -20.451  0.00  0.00    -0.248 NA
ATOM     19  C   UNL     1      33.023 -10.718 -22.323  0.00  0.00    +0.030 C 
ATOM     20  C   UNL     1      33.491 -12.021 -22.104  0.00  0.00    +0.138 C 
ATOM     21  C   UNL     1      32.026 -10.217 -21.461  0.00  0.00    +0.066 C 
ATOM     22  C   UNL     1      33.524  -9.922 -23.367  0.00  0.00    +0.059 C 
ATOM     23  C   UNL     1      31.562  -8.922 -21.679  0.00  0.00    +0.109 C 
ATOM     24  C   UNL     1      32.976 -12.782 -21.064  0.00  0.00    +0.057 C 
ATOM     25  C   UNL     1      32.060  -8.131 -22.717  0.00  0.00    +0.118 C 
ATOM     26  C   UNL     1      33.042  -8.631 -23.562  0.00  0.00    +0.011 C 
ATOM     27  C   UNL     1      32.002 -12.205 -20.273  0.00  0.00    +0.102 C 
BRANCH  25  28
ATOM     28  O   UNL     1      31.580  -6.870 -22.900  0.00  0.00    -0.476 OA
ATOM     29  C   UNL     1      31.509  -6.029 -21.749  0.00  0.00    +0.252 C 
ENDBRANCH  25  28
ENDBRANCH  17  20
ENDBRANCH  16  17
ENDBRANCH   5  16
TORSDOF 5
ENDMDL
MODEL 3
REMARK VINA RESULT:     -11.4      1.809      4.428
REMARK  Name = 24864821
REMARK  5 active torsions:
REMARK  status: ('A' for Active; 'I' for Inactive)
REMARK    1  A    between atoms: C_5  and  C_16
REMARK    2  A    between atoms: C_7  and  C_10
REMARK    3  A    between atoms: C_16  and  O_17
REMARK    4  A    between atoms: O_17  and  C_20
REMARK    5  A    between atoms: C_25  and  O_28
REMARK                            x       y       z     vdW  Elec       q    Type
REMARK                         _______ _______ _______ _____ _____    ______ ____
ROOT
ATOM      1  N   UNL     1      33.697 -23.047 -15.404  0.00  0.00    -0.191 N 
ATOM      2  N   UNL     1      34.977 -23.470 -15.252  0.00  0.00    -0.163 NA
ATOM      3  N   UNL     1      31.831 -22.367 -16.330  0.00  0.00    -0.128 NA
ATOM      4  N   UNL     1      31.634 -22.439 -14.967  0.00  0.00    -0.127 NA
ATOM      5  C   UNL     1      33.069 -22.734 -16.574  0.00  0.00    +0.208 A 
ATOM      6  C   UNL     1      32.758 -22.848 -14.419  0.00  0.00    +0.186 A 
ATOM      7  C   UNL     1      35.310 -23.706 -14.014  0.00  0.00    +0.101 C 
ATOM      8  C   UNL     1      33.152 -23.093 -13.089  0.00  0.00    +0.042 C 
ATOM      9  C   UNL     1      34.398 -23.515 -12.840  0.00  0.00    +0.024 C 
ENDROOT
BRANCH   7  10
ATOM     10  C   UNL     1      36.687 -24.179 -13.717  0.00  0.00    +0.019 C 
ATOM     11  C   UNL     1      37.747 -23.801 -14.540  0.00  0.00    +0.002 C 
ATOM     12  C   UNL     1      36.919 -25.000 -12.613  0.00  0.00    +0.002 C 
ATOM     13  C   UNL     1      39.039 -24.244 -14.260  0.00  0.00    +0.000 C 
ATOM     14  C   UNL     1      38.211 -25.443 -12.333  0.00  0.00    +0.000 C 
ATOM     15  C   UNL     1      39.272 -25.066 -13.157  0.00  0.00    +0.000 C 
ENDBRANCH   7  10
BRANCH   5  16
ATOM     16  C   UNL     1      33.741 -22.816 -17.913  0.00  0.00    +0.272 C 
BRANCH  16  17
ATOM     17  O   UNL     1      33.684 -21.536 -18.541  0.00  0.00    -0.467 OA
BRANCH  17  20
ATOM     18  N   UNL     1      37.304 -19.560 -18.971  0.00  0.00    -0.248 NA
ATOM     19  C   UNL     1      35.043 -19.927 -19.719  0.00  0.00    +0.030 C 
ATOM     20  C   UNL     1      34.866 -20.874 -18.701  0.00  0.00    +0.138 C 
ATOM     21  C   UNL     1      36.295 -19.285 -19.819  0.00  0.00    +0.066 C 
ATOM     22  C   UNL     1      34.012 -19.614 -20.621  0.00  0.00    +0.059 C 
ATOM     23  C   UNL     1      36.471 -18.344 -20.830  0.00  0.00    +0.109 C 
ATOM     24  C   UNL     1      35.904 -21.160 -17.826  0.00  0.00    +0.057 C 
ATOM     25  C   UNL     1      35.446 -18.034 -21.727  0.00  0.00    +0.118 C 
ATOM     26  C   UNL     1      34.215 -18.670 -21.623  0.00  0.00    +0.011 C 
ATOM     27  C   UNL     1      37.093 -20.481 -18.002  0.00  0.00    +0.102 C 
BRANCH  25  28
ATOM     28  O   UNL     1      35.654 -17.107 -22.702  0.00  0.00    -0.476 OA
ATOM     29  C   UNL     1      35.332 -15.752 -22.388  0.00  0.00    +0.252 C 
ENDBRANCH  25  28
ENDBRANCH  17  20
ENDBRANCH  16  17
ENDBRANCH   5  16
TORSDOF 5
ENDMDL
MODEL 4
REMARK VINA RESULT:     -11.4      6.439     12.021
REMARK  Name = 24864821
REMARK  5 active torsions:
REMARK  status: ('A' for Active; 'I' for Inactive)
REMARK    1  A    between atoms: C_5  and  C_16
REMARK    2  A    between atoms: C_7  and  C_10
REMARK    3  A    between atoms: C_16  and  O_17
REMARK    4  A    between atoms: O_17  and  C_20
REMARK    5  A    between atoms: C_25  and  O_28
REMARK                            x       y       z     vdW  Elec       q    Type
REMARK                         _______ _______ _______ _____ _____    ______ ____
ROOT
ATOM      1  N   UNL     1      32.382 -11.290 -20.663  0.00  0.00    -0.191 N 
ATOM      2  N   UNL     1      32.437 -10.053 -21.217  0.00  0.00    -0.163 NA
ATOM      3  N   UNL     1      32.563 -13.458 -20.403  0.00  0.00    -0.128 NA
ATOM      4  N   UNL     1      32.050 -12.926 -19.237  0.00  0.00    -0.127 NA
ATOM      5  C   UNL     1      32.754 -12.467 -21.243  0.00  0.00    +0.208 A 
ATOM      6  C   UNL     1      31.946 -11.625 -19.403  0.00  0.00    +0.186 A 
ATOM      7  C   UNL     1      32.023  -9.103 -20.426  0.00  0.00    +0.101 C 
ATOM      8  C   UNL     1      31.488 -10.580 -18.577  0.00  0.00    +0.042 C 
ATOM      9  C   UNL     1      31.505  -9.322 -19.037  0.00  0.00    +0.024 C 
ENDROOT
BRANCH   7  10
ATOM     10  C   UNL     1      32.039  -7.700 -20.917  0.00  0.00    +0.019 C 
ATOM     11  C   UNL     1      32.377  -6.661 -20.051  0.00  0.00    +0.002 C 
ATOM     12  C   UNL     1      31.718  -7.424 -22.246  0.00  0.00    +0.002 C 
ATOM     13  C   UNL     1      32.393  -5.346 -20.512  0.00  0.00    +0.000 C 
ATOM     14  C   UNL     1      31.734  -6.108 -22.708  0.00  0.00    +0.000 C 
ATOM     15  C   UNL     1      32.071  -5.068 -21.842  0.00  0.00    +0.000 C 
ENDBRANCH   7  10
BRANCH   5  16
ATOM     16  C   UNL     1      33.298 -12.558 -22.639  0.00  0.00    +0.272 C 
BRANCH  16  17
ATOM     17  O   UNL     1      34.513 -13.304 -22.617  0.00  0.00    -0.467 OA
BRANCH  17  20
ATOM     18  N   UNL     1      34.454 -16.973 -24.547  0.00  0.00    -0.248 NA
ATOM     19  C   UNL     1      34.870 -15.690 -22.551  0.00  0.00    +0.030 C 
ATOM     20  C   UNL     1      34.501 -14.522 -23.232  0.00  0.00    +0.138 C 
ATOM     21  C   UNL     1      34.832 -16.911 -23.257  0.00  0.00    +0.066 C 
ATOM     22  C   UNL     1      35.270 -15.663 -21.204  0.00  0.00    +0.059 C 
ATOM     23  C   UNL     1      35.198 -18.071 -22.580  0.00  0.00    +0.109 C 
ATOM     24  C   UNL     1      34.112 -14.583 -24.562  0.00  0.00    +0.057 C 
ATOM     25  C   UNL     1      35.595 -18.043 -21.241  0.00  0.00    +0.118 C 
ATOM     26  C   UNL     1      35.631 -16.837 -20.552  0.00  0.00    +0.011 C 
ATOM     27  C   UNL     1      34.105 -15.823 -25.169  0.00  0.00    +0.102 C 
BRANCH  25  28
ATOM     28  O   UNL     1      35.945 -19.199 -20.613  0.00  0.00    -0.476 OA
ATOM     29  C   UNL     1      34.940 -19.841 -19.829  0.00  0.00    +0.252 C 
ENDBRANCH  25  28
ENDBRANCH  17  20
ENDBRANCH  16  17
ENDBRANCH   5  16
TORSDOF 5
ENDMDL
MODEL 5
REMARK VINA RESULT:     -11.2      2.199      4.885
REMARK  Name = 24864821
REMARK  5 active torsions:
REMARK  status: ('A' for Active; 'I' for Inactive)
REMARK    1  A    between atoms: C_5  and  C_16
REMARK    2  A    between atoms: C_7  and  C_10
REMARK    3  A    between atoms: C_16  and  O_17
REMARK    4  A    between atoms: O_17  and  C_20
REMARK    5  A    between atoms: C_25  and  O_28
REMARK                            x       y       z     vdW  Elec       q    Type
REMARK                         _______ _______ _______ _____ _____    ______ ____
ROOT
ATOM      1  N   UNL     1      34.603 -21.202 -18.131  0.00  0.00    -0.191 N 
ATOM      2  N   UNL     1      35.579 -21.638 -17.295  0.00  0.00    -0.163 NA
ATOM      3  N   UNL     1      33.589 -20.196 -19.793  0.00  0.00    -0.128 NA
ATOM      4  N   UNL     1      32.639 -20.867 -19.051  0.00  0.00    -0.127 NA
ATOM      5  C   UNL     1      34.757 -20.406 -19.228  0.00  0.00    +0.208 A 
ATOM      6  C   UNL     1      33.256 -21.468 -18.057  0.00  0.00    +0.186 A 
ATOM      7  C   UNL     1      35.144 -22.397 -16.329  0.00  0.00    +0.101 C 
ATOM      8  C   UNL     1      32.813 -22.276 -16.992  0.00  0.00    +0.042 C 
ATOM      9  C   UNL     1      33.705 -22.755 -16.115  0.00  0.00    +0.024 C 
ENDROOT
BRANCH   7  10
ATOM     10  C   UNL     1      36.119 -22.942 -15.348  0.00  0.00    +0.019 C 
ATOM     11  C   UNL     1      35.756 -24.005 -14.522  0.00  0.00    +0.002 C 
ATOM     12  C   UNL     1      37.396 -22.390 -15.255  0.00  0.00    +0.002 C 
ATOM     13  C   UNL     1      36.672 -24.518 -13.603  0.00  0.00    +0.000 C 
ATOM     14  C   UNL     1      38.312 -22.902 -14.336  0.00  0.00    +0.000 C 
ATOM     15  C   UNL     1      37.950 -23.966 -13.509  0.00  0.00    +0.000 C 
ENDBRANCH   7  10
BRANCH   5  16
ATOM     16  C   UNL     1      36.088 -19.878 -19.679  0.00  0.00    +0.272 C 
BRANCH  16  17
ATOM     17  O   UNL     1      36.022 -18.456 -19.756  0.00  0.00    -0.467 OA
BRANCH  17  20
ATOM     18  N   UNL     1      35.167 -16.880 -23.495  0.00  0.00    -0.248 NA
ATOM     19  C   UNL     1      35.348 -16.576 -21.112  0.00  0.00    +0.030 C 
ATOM     20  C   UNL     1      35.736 -17.916 -20.976  0.00  0.00    +0.138 C 
ATOM     21  C   UNL     1      35.069 -16.093 -22.407  0.00  0.00    +0.066 C 
ATOM     22  C   UNL     1      35.235 -15.726 -19.998  0.00  0.00    +0.059 C 
ATOM     23  C   UNL     1      34.684 -14.762 -22.541  0.00  0.00    +0.109 C 
ATOM     24  C   UNL     1      35.837 -18.730 -22.095  0.00  0.00    +0.057 C 
ATOM     25  C   UNL     1      34.572 -13.916 -21.435  0.00  0.00    +0.118 C 
ATOM     26  C   UNL     1      34.848 -14.399 -20.161  0.00  0.00    +0.011 C 
ATOM     27  C   UNL     1      35.544 -18.167 -23.322  0.00  0.00    +0.102 C 
BRANCH  25  28
ATOM     28  O   UNL     1      34.194 -12.620 -21.605  0.00  0.00    -0.476 OA
ATOM     29  C   UNL     1      34.254 -12.096 -22.932  0.00  0.00    +0.252 C 
ENDBRANCH  25  28
ENDBRANCH  17  20
ENDBRANCH  16  17
ENDBRANCH   5  16
TORSDOF 5
ENDMDL
MODEL 6
REMARK VINA RESULT:     -11.0      6.038     10.785
REMARK  Name = 24864821
REMARK  5 active torsions:
REMARK  status: ('A' for Active; 'I' for Inactive)
REMARK    1  A    between atoms: C_5  and  C_16
REMARK    2  A    between atoms: C_7  and  C_10
REMARK    3  A    between atoms: C_16  and  O_17
REMARK    4  A    between atoms: O_17  and  C_20
REMARK    5  A    between atoms: C_25  and  O_28
REMARK                            x       y       z     vdW  Elec       q    Type
REMARK                         _______ _______ _______ _____ _____    ______ ____
ROOT
ATOM      1  N   UNL     1      34.425 -15.915 -23.624  0.00  0.00    -0.191 N 
ATOM      2  N   UNL     1      34.903 -16.484 -22.489  0.00  0.00    -0.163 NA
ATOM      3  N   UNL     1      33.764 -14.409 -25.072  0.00  0.00    -0.128 NA
ATOM      4  N   UNL     1      33.629 -15.653 -25.653  0.00  0.00    -0.127 NA
ATOM      5  C   UNL     1      34.240 -14.584 -23.860  0.00  0.00    +0.208 A 
ATOM      6  C   UNL     1      34.028 -16.550 -24.777  0.00  0.00    +0.186 A 
ATOM      7  C   UNL     1      34.983 -17.784 -22.546  0.00  0.00    +0.101 C 
ATOM      8  C   UNL     1      34.108 -17.956 -24.803  0.00  0.00    +0.042 C 
ATOM      9  C   UNL     1      34.570 -18.608 -23.728  0.00  0.00    +0.024 C 
ENDROOT
BRANCH   7  10
ATOM     10  C   UNL     1      35.497 -18.526 -21.365  0.00  0.00    +0.019 C 
ATOM     11  C   UNL     1      36.813 -18.339 -20.943  0.00  0.00    +0.002 C 
ATOM     12  C   UNL     1      34.662 -19.407 -20.677  0.00  0.00    +0.002 C 
ATOM     13  C   UNL     1      37.294 -19.033 -19.833  0.00  0.00    +0.000 C 
ATOM     14  C   UNL     1      35.144 -20.101 -19.568  0.00  0.00    +0.000 C 
ATOM     15  C   UNL     1      36.460 -19.915 -19.145  0.00  0.00    +0.000 C 
ENDBRANCH   7  10
BRANCH   5  16
ATOM     16  C   UNL     1      34.554 -13.520 -22.849  0.00  0.00    +0.272 C 
BRANCH  16  17
ATOM     17  O   UNL     1      33.483 -12.578 -22.818  0.00  0.00    -0.467 OA
BRANCH  17  20
ATOM     18  N   UNL     1      34.410  -8.718 -24.013  0.00  0.00    -0.248 NA
ATOM     19  C   UNL     1      33.277 -10.197 -22.487  0.00  0.00    +0.030 C 
ATOM     20  C   UNL     1      33.775 -11.300 -23.193  0.00  0.00    +0.138 C 
ATOM     21  C   UNL     1      33.624  -8.906 -22.938  0.00  0.00    +0.066 C 
ATOM     22  C   UNL     1      32.453 -10.356 -21.359  0.00  0.00    +0.059 C 
ATOM     23  C   UNL     1      33.128  -7.811 -22.235  0.00  0.00    +0.109 C 
ATOM     24  C   UNL     1      34.586 -11.109 -24.303  0.00  0.00    +0.057 C 
ATOM     25  C   UNL     1      32.310  -7.969 -21.114  0.00  0.00    +0.118 C 
ATOM     26  C   UNL     1      31.971  -9.244 -20.676  0.00  0.00    +0.011 C 
ATOM     27  C   UNL     1      34.872  -9.808 -24.668  0.00  0.00    +0.102 C 
BRANCH  25  28
ATOM     28  O   UNL     1      31.845  -6.875 -20.452  0.00  0.00    -0.476 OA
ATOM     29  C   UNL     1      32.427  -6.591 -19.180  0.00  0.00    +0.252 C 
ENDBRANCH  25  28
ENDBRANCH  17  20
ENDBRANCH  16  17
ENDBRANCH   5  16
TORSDOF 5
ENDMDL
MODEL 7
REMARK VINA RESULT:     -10.9      3.206      7.166
REMARK  Name = 24864821
REMARK  5 active torsions:
REMARK  status: ('A' for Active; 'I' for Inactive)
REMARK    1  A    between atoms: C_5  and  C_16
REMARK    2  A    between atoms: C_7  and  C_10
REMARK    3  A    between atoms: C_16  and  O_17
REMARK    4  A    between atoms: O_17  and  C_20
REMARK    5  A    between atoms: C_25  and  O_28
REMARK                            x       y       z     vdW  Elec       q    Type
REMARK                         _______ _______ _______ _____ _____    ______ ____
ROOT
ATOM      1  N   UNL     1      35.495 -21.780 -16.622  0.00  0.00    -0.191 N 
ATOM      2  N   UNL     1      34.678 -22.310 -15.678  0.00  0.00    -0.163 NA
ATOM      3  N   UNL     1      37.282 -20.991 -17.615  0.00  0.00    -0.128 NA
ATOM      4  N   UNL     1      36.238 -20.954 -18.515  0.00  0.00    -0.127 NA
ATOM      5  C   UNL     1      36.821 -21.487 -16.489  0.00  0.00    +0.208 A 
ATOM      6  C   UNL     1      35.170 -21.430 -17.911  0.00  0.00    +0.186 A 
ATOM      7  C   UNL     1      33.453 -22.494 -16.086  0.00  0.00    +0.101 C 
ATOM      8  C   UNL     1      33.836 -21.624 -18.318  0.00  0.00    +0.042 C 
ATOM      9  C   UNL     1      32.954 -22.143 -17.454  0.00  0.00    +0.024 C 
ENDROOT
BRANCH   7  10
ATOM     10  C   UNL     1      32.461 -23.074 -15.144  0.00  0.00    +0.019 C 
ATOM     11  C   UNL     1      32.893 -23.730 -13.992  0.00  0.00    +0.002 C 
ATOM     12  C   UNL     1      31.097 -22.960 -15.411  0.00  0.00    +0.002 C 
ATOM     13  C   UNL     1      31.961 -24.272 -13.107  0.00  0.00    +0.000 C 
ATOM     14  C   UNL     1      30.165 -23.502 -14.526  0.00  0.00    +0.000 C 
ATOM     15  C   UNL     1      30.596 -24.159 -13.374  0.00  0.00    +0.000 C 
ENDBRANCH   7  10
BRANCH   5  16
ATOM     16  C   UNL     1      37.589 -21.718 -15.221  0.00  0.00    +0.272 C 
BRANCH  16  17
ATOM     17  O   UNL     1      38.738 -22.512 -15.512  0.00  0.00    -0.467 OA
BRANCH  17  20
ATOM     18  N   UNL     1      39.556 -25.729 -13.028  0.00  0.00    -0.248 NA
ATOM     19  C   UNL     1      38.167 -23.840 -13.580  0.00  0.00    +0.030 C 
ATOM     20  C   UNL     1      38.988 -23.564 -14.681  0.00  0.00    +0.138 C 
ATOM     21  C   UNL     1      38.492 -24.947 -12.768  0.00  0.00    +0.066 C 
ATOM     22  C   UNL     1      37.047 -23.045 -13.279  0.00  0.00    +0.059 C 
ATOM     23  C   UNL     1      37.676 -25.220 -11.674  0.00  0.00    +0.109 C 
ATOM     24  C   UNL     1      40.086 -24.369 -14.951  0.00  0.00    +0.057 C 
ATOM     25  C   UNL     1      36.563 -24.430 -11.375  0.00  0.00    +0.118 C 
ATOM     26  C   UNL     1      36.249 -23.341 -12.179  0.00  0.00    +0.011 C 
ATOM     27  C   UNL     1      40.324 -25.430 -14.100  0.00  0.00    +0.102 C 
BRANCH  25  28
ATOM     28  O   UNL     1      35.787 -24.729 -10.298  0.00  0.00    -0.476 OA
ATOM     29  C   UNL     1      35.556 -23.683  -9.354  0.00  0.00    +0.252 C 
ENDBRANCH  25  28
ENDBRANCH  17  20
ENDBRANCH  16  17
ENDBRANCH   5  16
TORSDOF 5
ENDMDL
MODEL 8
REMARK VINA RESULT:     -10.9      6.822     12.652
REMARK  Name = 24864821
REMARK  5 active torsions:
REMARK  status: ('A' for Active; 'I' for Inactive)
REMARK    1  A    between atoms: C_5  and  C_16
REMARK    2  A    between atoms: C_7  and  C_10
REMARK    3  A    between atoms: C_16  and  O_17
REMARK    4  A    between atoms: O_17  and  C_20
REMARK    5  A    between atoms: C_25  and  O_28
REMARK                            x       y       z     vdW  Elec       q    Type
REMARK                         _______ _______ _______ _____ _____    ______ ____
ROOT
ATOM      1  N   UNL     1      32.167 -10.602 -20.574  0.00  0.00    -0.191 N 
ATOM      2  N   UNL     1      32.257  -9.568 -21.448  0.00  0.00    -0.163 NA
ATOM      3  N   UNL     1      32.114 -12.638 -19.765  0.00  0.00    -0.128 NA
ATOM      4  N   UNL     1      31.958 -11.753 -18.717  0.00  0.00    -0.127 NA
ATOM      5  C   UNL     1      32.237 -11.932 -20.867  0.00  0.00    +0.208 A 
ATOM      6  C   UNL     1      31.992 -10.535 -19.212  0.00  0.00    +0.186 A 
ATOM      7  C   UNL     1      32.166  -8.395 -20.886  0.00  0.00    +0.101 C 
ATOM      8  C   UNL     1      31.878  -9.255 -18.636  0.00  0.00    +0.042 C 
ATOM      9  C   UNL     1      31.956  -8.172 -19.420  0.00  0.00    +0.024 C 
ENDROOT
BRANCH   7  10
ATOM     10  C   UNL     1      32.254  -7.181 -21.739  0.00  0.00    +0.019 C 
ATOM     11  C   UNL     1      32.633  -7.293 -23.076  0.00  0.00    +0.002 C 
ATOM     12  C   UNL     1      31.956  -5.929 -21.201  0.00  0.00    +0.002 C 
ATOM     13  C   UNL     1      32.714  -6.154 -23.876  0.00  0.00    +0.000 C 
ATOM     14  C   UNL     1      32.037  -4.789 -22.001  0.00  0.00    +0.000 C 
ATOM     15  C   UNL     1      32.416  -4.901 -23.339  0.00  0.00    +0.000 C 
ENDBRANCH   7  10
BRANCH   5  16
ATOM     16  C   UNL     1      32.429 -12.457 -22.260  0.00  0.00    +0.272 C 
BRANCH  16  17
ATOM     17  O   UNL     1      33.820 -12.676 -22.486  0.00  0.00    -0.467 OA
BRANCH  17  20
ATOM     18  N   UNL     1      34.882 -16.294 -24.212  0.00  0.00    -0.248 NA
ATOM     19  C   UNL     1      34.670 -14.922 -22.243  0.00  0.00    +0.030 C 
ATOM     20  C   UNL     1      34.176 -13.874 -23.032  0.00  0.00    +0.138 C 
ATOM     21  C   UNL     1      35.016 -16.130 -22.883  0.00  0.00    +0.066 C 
ATOM     22  C   UNL     1      34.824 -14.787 -20.852  0.00  0.00    +0.059 C 
ATOM     23  C   UNL     1      35.508 -17.170 -22.098  0.00  0.00    +0.109 C 
ATOM     24  C   UNL     1      34.036 -14.040 -24.402  0.00  0.00    +0.057 C 
ATOM     25  C   UNL     1      35.660 -17.036 -20.716  0.00  0.00    +0.118 C 
ATOM     26  C   UNL     1      35.317 -15.842 -20.092  0.00  0.00    +0.011 C 
ATOM     27  C   UNL     1      34.401 -15.259 -24.939  0.00  0.00    +0.102 C 
BRANCH  25  28
ATOM     28  O   UNL     1      36.142 -18.075 -19.981  0.00  0.00    -0.476 OA
ATOM     29  C   UNL     1      35.527 -19.349 -20.176  0.00  0.00    +0.252 C 
ENDBRANCH  25  28
ENDBRANCH  17  20
ENDBRANCH  16  17
ENDBRANCH   5  16
TORSDOF 5
ENDMDL
MODEL 9
REMARK VINA RESULT:     -10.7      6.367     10.979
REMARK  Name = 24864821
REMARK  5 active torsions:
REMARK  status: ('A' for Active; 'I' for Inactive)
REMARK    1  A    between atoms: C_5  and  C_16
REMARK    2  A    between atoms: C_7  and  C_10
REMARK    3  A    between atoms: C_16  and  O_17
REMARK    4  A    between atoms: O_17  and  C_20
REMARK    5  A    between atoms: C_25  and  O_28
REMARK                            x       y       z     vdW  Elec       q    Type
REMARK                         _______ _______ _______ _____ _____    ______ ____
ROOT
ATOM      1  N   UNL     1      34.214 -14.798 -23.019  0.00  0.00    -0.191 N 
ATOM      2  N   UNL     1      34.597 -15.661 -22.046  0.00  0.00    -0.163 NA
ATOM      3  N   UNL     1      33.478 -12.993 -24.022  0.00  0.00    -0.128 NA
ATOM      4  N   UNL     1      33.777 -13.932 -24.988  0.00  0.00    -0.127 NA
ATOM      5  C   UNL     1      33.745 -13.528 -22.852  0.00  0.00    +0.208 A 
ATOM      6  C   UNL     1      34.218 -15.010 -24.378  0.00  0.00    +0.186 A 
ATOM      7  C   UNL     1      35.015 -16.811 -22.497  0.00  0.00    +0.101 C 
ATOM      8  C   UNL     1      34.657 -16.268 -24.835  0.00  0.00    +0.042 C 
ATOM      9  C   UNL     1      35.057 -17.188 -23.947  0.00  0.00    +0.024 C 
ENDROOT
BRANCH   7  10
ATOM     10  C   UNL     1      35.467 -17.843 -21.528  0.00  0.00    +0.019 C 
ATOM     11  C   UNL     1      36.801 -17.883 -21.124  0.00  0.00    +0.002 C 
ATOM     12  C   UNL     1      34.557 -18.770 -21.021  0.00  0.00    +0.002 C 
ATOM     13  C   UNL     1      37.225 -18.850 -20.213  0.00  0.00    +0.000 C 
ATOM     14  C   UNL     1      34.980 -19.737 -20.110  0.00  0.00    +0.000 C 
ATOM     15  C   UNL     1      36.315 -19.778 -19.705  0.00  0.00    +0.000 C 
ENDBRANCH   7  10
BRANCH   5  16
ATOM     16  C   UNL     1      33.579 -12.885 -21.506  0.00  0.00    +0.272 C 
BRANCH  16  17
ATOM     17  O   UNL     1      32.289 -12.280 -21.435  0.00  0.00    -0.467 OA
BRANCH  17  20
ATOM     18  N   UNL     1      31.760  -9.333 -18.567  0.00  0.00    -0.248 NA
ATOM     19  C   UNL     1      32.250  -9.940 -20.846  0.00  0.00    +0.030 C 
ATOM     20  C   UNL     1      32.120 -11.294 -20.508  0.00  0.00    +0.138 C 
ATOM     21  C   UNL     1      32.060  -8.980 -19.831  0.00  0.00    +0.066 C 
ATOM     22  C   UNL     1      32.563  -9.535 -22.155  0.00  0.00    +0.059 C 
ATOM     23  C   UNL     1      32.190  -7.636 -20.167  0.00  0.00    +0.109 C 
ATOM     24  C   UNL     1      31.810 -11.661 -19.206  0.00  0.00    +0.057 C 
ATOM     25  C   UNL     1      32.501  -7.233 -21.468  0.00  0.00    +0.118 C 
ATOM     26  C   UNL     1      32.687  -8.184 -22.464  0.00  0.00    +0.011 C 
ATOM     27  C   UNL     1      31.642 -10.650 -18.281  0.00  0.00    +0.102 C 
BRANCH  25  28
ATOM     28  O   UNL     1      32.618  -5.909 -21.760  0.00  0.00    -0.476 OA
ATOM     29  C   UNL     1      31.719  -5.017 -21.102  0.00  0.00    +0.252 C 
ENDBRANCH  25  28
ENDBRANCH  17  20
ENDBRANCH  16  17
ENDBRANCH   5  16
TORSDOF 5
ENDMDL
