MODEL 1
REMARK VINA RESULT:     -12.5      0.000      0.000
REMARK  Name = 657140
REMARK  9 active torsions:
REMARK  status: ('A' for Active; 'I' for Inactive)
REMARK    1  A    between atoms: C_1  and  N_8
REMARK    2  A    between atoms: C_2  and  O_20
REMARK    3  A    between atoms: C_9  and  C_11
REMARK    4  A    between atoms: C_14  and  N_19
REMARK    5  A    between atoms: O_20  and  C_21
REMARK    6  A    between atoms: C_22  and  C_28
REMARK    7  A    between atoms: C_24  and  C_32
REMARK    8  A    between atoms: C_28  and  O_29
REMARK    9  A    between atoms: C_32  and  O_33
REMARK                            x       y       z     vdW  Elec       q    Type
REMARK                         _______ _______ _______ _____ _____    ______ ____
ROOT
ATOM      1  C   UNL     1      31.696 -22.808 -15.650  0.00  0.00    +0.086 C 
ATOM      2  C   UNL     1      32.386 -22.981 -14.462  0.00  0.00    +0.159 C 
ATOM      3  C   UNL     1      30.463 -23.405 -15.863  0.00  0.00    +0.018 C 
ATOM      4  C   UNL     1      31.829 -23.775 -13.459  0.00  0.00    +0.039 C 
ATOM      5  C   UNL     1      29.907 -24.199 -14.860  0.00  0.00    +0.001 C 
ATOM      6  C   UNL     1      30.591 -24.383 -13.657  0.00  0.00    +0.003 C 
ENDROOT
BRANCH   1   8
ATOM      7  O   UNL     1      33.825 -23.429 -17.667  0.00  0.00    -0.270 OA
ATOM      8  N   UNL     1      32.246 -22.003 -16.678  0.00  0.00    -0.278 N 
ATOM      9  C   UNL     1      33.246 -22.333 -17.604  0.00  0.00    +0.250 C 
ATOM     10  H   UNL     1      31.879 -21.092 -16.750  0.00  0.00    +0.155 HD
BRANCH   9  11
ATOM     11  C   UNL     1      33.626 -21.279 -18.530  0.00  0.00    +0.055 C 
ATOM     12  C   UNL     1      34.974 -21.001 -18.754  0.00  0.00    +0.029 C 
ATOM     13  C   UNL     1      32.643 -20.547 -19.195  0.00  0.00    +0.005 C 
ATOM     14  C   UNL     1      35.339 -19.990 -19.644  0.00  0.00    +0.143 C 
ATOM     15  C   UNL     1      33.007 -19.536 -20.084  0.00  0.00    +0.002 C 
ATOM     16  C   UNL     1      34.355 -19.258 -20.309  0.00  0.00    +0.024 C 
BRANCH  14  19
ATOM     17  O   UNL     1      37.034 -18.574 -20.306  0.00  0.00    -0.126 OA
ATOM     18  O   UNL     1      37.564 -20.598 -19.642  0.00  0.00    -0.126 OA
ATOM     19  N   UNL     1      36.711 -19.707 -19.875  0.00  0.00    +0.058 N 
ENDBRANCH  14  19
ENDBRANCH   9  11
ENDBRANCH   1   8
BRANCH   2  20
ATOM     20  O   UNL     1      33.597 -22.394 -14.247  0.00  0.00    -0.452 OA
BRANCH  20  21
ATOM     21  C   UNL     1      34.617 -23.191 -13.752  0.00  0.00    +0.146 C 
ATOM     22  C   UNL     1      35.958 -23.929 -11.910  0.00  0.00    +0.085 C 
ATOM     23  C   UNL     1      34.932 -23.126 -12.407  0.00  0.00    +0.044 C 
ATOM     24  C   UNL     1      36.653 -24.783 -12.766  0.00  0.00    +0.082 C 
ATOM     25  C   UNL     1      35.294 -24.032 -14.617  0.00  0.00    +0.038 C 
ATOM     26  C   UNL     1      36.320 -24.835 -14.120  0.00  0.00    +0.010 C 
BRANCH  22  28
ATOM     27  O   UNL     1      37.220 -23.213 -10.008  0.00  0.00    -0.245 OA
ATOM     28  C   UNL     1      36.282 -23.852 -10.491  0.00  0.00    +0.338 C 
BRANCH  28  29
ATOM     29  O   UNL     1      35.422 -24.573  -9.724  0.00  0.00    -0.477 OA
ATOM     30  H   UNL     1      35.632 -24.753  -8.829  0.00  0.00    +0.295 HD
ENDBRANCH  28  29
ENDBRANCH  22  28
BRANCH  24  32
ATOM     31  O   UNL     1      38.813 -25.809 -12.844  0.00  0.00    -0.245 OA
ATOM     32  C   UNL     1      37.730 -25.634 -12.278  0.00  0.00    +0.338 C 
BRANCH  32  33
ATOM     33  O   UNL     1      37.419 -26.238 -11.100  0.00  0.00    -0.477 OA
ATOM     34  H   UNL     1      36.730 -26.871 -11.065  0.00  0.00    +0.295 HD
ENDBRANCH  32  33
ENDBRANCH  24  32
ENDBRANCH  20  21
ENDBRANCH   2  20
TORSDOF 9
ENDMDL
MODEL 2
REMARK VINA RESULT:     -11.8      1.769      2.529
REMARK  Name = 657140
REMARK  9 active torsions:
REMARK  status: ('A' for Active; 'I' for Inactive)
REMARK    1  A    between atoms: C_1  and  N_8
REMARK    2  A    between atoms: C_2  and  O_20
REMARK    3  A    between atoms: C_9  and  C_11
REMARK    4  A    between atoms: C_14  and  N_19
REMARK    5  A    between atoms: O_20  and  C_21
REMARK    6  A    between atoms: C_22  and  C_28
REMARK    7  A    between atoms: C_24  and  C_32
REMARK    8  A    between atoms: C_28  and  O_29
REMARK    9  A    between atoms: C_32  and  O_33
REMARK                            x       y       z     vdW  Elec       q    Type
REMARK                         _______ _______ _______ _____ _____    ______ ____
ROOT
ATOM      1  C   UNL     1      33.064 -22.421 -16.330  0.00  0.00    +0.086 C 
ATOM      2  C   UNL     1      33.576 -23.466 -15.580  0.00  0.00    +0.159 C 
ATOM      3  C   UNL     1      31.722 -22.079 -16.270  0.00  0.00    +0.018 C 
ATOM      4  C   UNL     1      32.723 -24.192 -14.749  0.00  0.00    +0.039 C 
ATOM      5  C   UNL     1      30.869 -22.804 -15.439  0.00  0.00    +0.001 C 
ATOM      6  C   UNL     1      31.370 -23.861 -14.678  0.00  0.00    +0.003 C 
ENDROOT
BRANCH   1   8
ATOM      7  O   UNL     1      32.759 -21.679 -19.219  0.00  0.00    -0.270 OA
ATOM      8  N   UNL     1      33.917 -21.673 -17.179  0.00  0.00    -0.278 N 
ATOM      9  C   UNL     1      33.737 -21.348 -18.530  0.00  0.00    +0.250 C 
ATOM     10  H   UNL     1      34.746 -21.339 -16.764  0.00  0.00    +0.155 HD
BRANCH   9  11
ATOM     11  C   UNL     1      34.810 -20.584 -19.147  0.00  0.00    +0.055 C 
ATOM     12  C   UNL     1      34.515 -19.628 -20.119  0.00  0.00    +0.029 C 
ATOM     13  C   UNL     1      36.133 -20.807 -18.766  0.00  0.00    +0.005 C 
ATOM     14  C   UNL     1      35.545 -18.894 -20.709  0.00  0.00    +0.143 C 
ATOM     15  C   UNL     1      37.162 -20.074 -19.357  0.00  0.00    +0.002 C 
ATOM     16  C   UNL     1      36.868 -19.118 -20.328  0.00  0.00    +0.024 C 
BRANCH  14  19
ATOM     17  O   UNL     1      35.601 -16.730 -21.505  0.00  0.00    -0.126 OA
ATOM     18  O   UNL     1      34.636 -18.271 -22.735  0.00  0.00    -0.126 OA
ATOM     19  N   UNL     1      35.246 -17.919 -21.697  0.00  0.00    +0.058 N 
ENDBRANCH  14  19
ENDBRANCH   9  11
ENDBRANCH   1   8
BRANCH   2  20
ATOM     20  O   UNL     1      34.895 -23.806 -15.634  0.00  0.00    -0.452 OA
BRANCH  20  21
ATOM     21  C   UNL     1      35.689 -23.466 -14.553  0.00  0.00    +0.146 C 
ATOM     22  C   UNL     1      36.541 -23.967 -12.370  0.00  0.00    +0.085 C 
ATOM     23  C   UNL     1      35.740 -24.311 -13.459  0.00  0.00    +0.044 C 
ATOM     24  C   UNL     1      37.279 -22.784 -12.393  0.00  0.00    +0.082 C 
ATOM     25  C   UNL     1      36.415 -22.288 -14.594  0.00  0.00    +0.038 C 
ATOM     26  C   UNL     1      37.216 -21.945 -13.505  0.00  0.00    +0.010 C 
BRANCH  22  28
ATOM     27  O   UNL     1      37.361 -25.816 -11.093  0.00  0.00    -0.245 OA
ATOM     28  C   UNL     1      36.585 -24.865 -11.224  0.00  0.00    +0.338 C 
BRANCH  28  29
ATOM     29  O   UNL     1      35.661 -24.547 -10.279  0.00  0.00    -0.477 OA
ATOM     30  H   UNL     1      35.458 -23.649 -10.106  0.00  0.00    +0.295 HD
ENDBRANCH  28  29
ENDBRANCH  22  28
BRANCH  24  32
ATOM     31  O   UNL     1      39.333 -22.633 -11.175  0.00  0.00    -0.245 OA
ATOM     32  C   UNL     1      38.125 -22.398 -11.272  0.00  0.00    +0.338 C 
BRANCH  32  33
ATOM     33  O   UNL     1      37.435 -21.729 -10.309  0.00  0.00    -0.477 OA
ATOM     34  H   UNL     1      37.896 -21.260  -9.642  0.00  0.00    +0.295 HD
ENDBRANCH  32  33
ENDBRANCH  24  32
ENDBRANCH  20  21
ENDBRANCH   2  20
TORSDOF 9
ENDMDL
MODEL 3
REMARK VINA RESULT:     -11.6      0.880      2.068
REMARK  Name = 657140
REMARK  9 active torsions:
REMARK  status: ('A' for Active; 'I' for Inactive)
REMARK    1  A    between atoms: C_1  and  N_8
REMARK    2  A    between atoms: C_2  and  O_20
REMARK    3  A    between atoms: C_9  and  C_11
REMARK    4  A    between atoms: C_14  and  N_19
REMARK    5  A    between atoms: O_20  and  C_21
REMARK    6  A    between atoms: C_22  and  C_28
REMARK    7  A    between atoms: C_24  and  C_32
REMARK    8  A    between atoms: C_28  and  O_29
REMARK    9  A    between atoms: C_32  and  O_33
REMARK                            x       y       z     vdW  Elec       q    Type
REMARK                         _______ _______ _______ _____ _____    ______ ____
ROOT
ATOM      1  C   UNL     1      31.667 -22.868 -15.570  0.00  0.00    +0.086 C 
ATOM      2  C   UNL     1      32.352 -23.005 -14.374  0.00  0.00    +0.159 C 
ATOM      3  C   UNL     1      30.446 -23.490 -15.779  0.00  0.00    +0.018 C 
ATOM      4  C   UNL     1      31.802 -23.787 -13.359  0.00  0.00    +0.039 C 
ATOM      5  C   UNL     1      29.897 -24.272 -14.763  0.00  0.00    +0.001 C 
ATOM      6  C   UNL     1      30.575 -24.420 -13.553  0.00  0.00    +0.003 C 
ENDROOT
BRANCH   1   8
ATOM      7  O   UNL     1      33.929 -23.431 -17.455  0.00  0.00    -0.270 OA
ATOM      8  N   UNL     1      32.211 -22.075 -16.611  0.00  0.00    -0.278 N 
ATOM      9  C   UNL     1      33.274 -22.377 -17.473  0.00  0.00    +0.250 C 
ATOM     10  H   UNL     1      31.786 -21.197 -16.746  0.00  0.00    +0.155 HD
BRANCH   9  11
ATOM     11  C   UNL     1      33.627 -21.343 -18.432  0.00  0.00    +0.055 C 
ATOM     12  C   UNL     1      34.965 -21.004 -18.632  0.00  0.00    +0.029 C 
ATOM     13  C   UNL     1      32.627 -20.691 -19.154  0.00  0.00    +0.005 C 
ATOM     14  C   UNL     1      35.303 -20.013 -19.554  0.00  0.00    +0.143 C 
ATOM     15  C   UNL     1      32.964 -19.700 -20.076  0.00  0.00    +0.002 C 
ATOM     16  C   UNL     1      34.302 -19.361 -20.275  0.00  0.00    +0.024 C 
BRANCH  14  19
ATOM     17  O   UNL     1      37.534 -20.573 -19.723  0.00  0.00    -0.126 OA
ATOM     18  O   UNL     1      36.963 -18.468 -19.973  0.00  0.00    -0.126 OA
ATOM     19  N   UNL     1      36.665 -19.668 -19.760  0.00  0.00    +0.058 N 
ENDBRANCH  14  19
ENDBRANCH   9  11
ENDBRANCH   1   8
BRANCH   2  20
ATOM     20  O   UNL     1      33.552 -22.393 -14.164  0.00  0.00    -0.452 OA
BRANCH  20  21
ATOM     21  C   UNL     1      34.567 -23.149 -13.602  0.00  0.00    +0.146 C 
ATOM     22  C   UNL     1      36.342 -24.739 -13.847  0.00  0.00    +0.085 C 
ATOM     23  C   UNL     1      35.320 -23.979 -14.414  0.00  0.00    +0.044 C 
ATOM     24  C   UNL     1      36.596 -24.658 -12.478  0.00  0.00    +0.082 C 
ATOM     25  C   UNL     1      34.803 -23.055 -12.242  0.00  0.00    +0.038 C 
ATOM     26  C   UNL     1      35.826 -23.816 -11.676  0.00  0.00    +0.010 C 
BRANCH  22  28
ATOM     27  O   UNL     1      38.360 -25.610 -14.792  0.00  0.00    -0.245 OA
ATOM     28  C   UNL     1      37.128 -25.609 -14.712  0.00  0.00    +0.338 C 
BRANCH  28  29
ATOM     29  O   UNL     1      36.352 -26.448 -15.447  0.00  0.00    -0.477 OA
ATOM     30  H   UNL     1      35.575 -26.127 -15.859  0.00  0.00    +0.295 HD
ENDBRANCH  28  29
ENDBRANCH  22  28
BRANCH  24  32
ATOM     31  O   UNL     1      37.484 -26.391 -11.088  0.00  0.00    -0.245 OA
ATOM     32  C   UNL     1      37.655 -25.439 -11.856  0.00  0.00    +0.338 C 
BRANCH  32  33
ATOM     33  O   UNL     1      38.895 -25.007 -12.212  0.00  0.00    -0.477 OA
ATOM     34  H   UNL     1      39.656 -25.421 -11.856  0.00  0.00    +0.295 HD
ENDBRANCH  32  33
ENDBRANCH  24  32
ENDBRANCH  20  21
ENDBRANCH   2  20
TORSDOF 9
ENDMDL
MODEL 4
REMARK VINA RESULT:     -11.4      2.597      7.739
REMARK  Name = 657140
REMARK  9 active torsions:
REMARK  status: ('A' for Active; 'I' for Inactive)
REMARK    1  A    between atoms: C_1  and  N_8
REMARK    2  A    between atoms: C_2  and  O_20
REMARK    3  A    between atoms: C_9  and  C_11
REMARK    4  A    between atoms: C_14  and  N_19
REMARK    5  A    between atoms: O_20  and  C_21
REMARK    6  A    between atoms: C_22  and  C_28
REMARK    7  A    between atoms: C_24  and  C_32
REMARK    8  A    between atoms: C_28  and  O_29
REMARK    9  A    between atoms: C_32  and  O_33
REMARK                            x       y       z     vdW  Elec       q    Type
REMARK                         _______ _______ _______ _____ _____    ______ ____
ROOT
ATOM      1  C   UNL     1      33.530 -23.059 -15.029  0.00  0.00    +0.086 C 
ATOM      2  C   UNL     1      33.407 -22.762 -16.376  0.00  0.00    +0.159 C 
ATOM      3  C   UNL     1      32.494 -22.822 -14.140  0.00  0.00    +0.018 C 
ATOM      4  C   UNL     1      32.215 -22.211 -16.847  0.00  0.00    +0.039 C 
ATOM      5  C   UNL     1      31.303 -22.271 -14.611  0.00  0.00    +0.001 C 
ATOM      6  C   UNL     1      31.163 -21.965 -15.965  0.00  0.00    +0.003 C 
ENDROOT
BRANCH   1   8
ATOM      7  O   UNL     1      36.124 -21.746 -14.296  0.00  0.00    -0.270 OA
ATOM      8  N   UNL     1      34.733 -23.621 -14.535  0.00  0.00    -0.278 N 
ATOM      9  C   UNL     1      35.929 -22.969 -14.204  0.00  0.00    +0.250 C 
ATOM     10  H   UNL     1      34.729 -24.597 -14.409  0.00  0.00    +0.155 HD
BRANCH   9  11
ATOM     11  C   UNL     1      37.012 -23.824 -13.744  0.00  0.00    +0.055 C 
ATOM     12  C   UNL     1      38.243 -23.802 -14.399  0.00  0.00    +0.029 C 
ATOM     13  C   UNL     1      36.819 -24.664 -12.648  0.00  0.00    +0.005 C 
ATOM     14  C   UNL     1      39.283 -24.621 -13.957  0.00  0.00    +0.143 C 
ATOM     15  C   UNL     1      37.858 -25.484 -12.206  0.00  0.00    +0.002 C 
ATOM     16  C   UNL     1      39.089 -25.462 -12.861  0.00  0.00    +0.024 C 
BRANCH  14  19
ATOM     17  O   UNL     1      40.811 -25.514 -15.435  0.00  0.00    -0.126 OA
ATOM     18  O   UNL     1      41.339 -23.665 -14.376  0.00  0.00    -0.126 OA
ATOM     19  N   UNL     1      40.537 -24.599 -14.621  0.00  0.00    +0.058 N 
ENDBRANCH  14  19
ENDBRANCH   9  11
ENDBRANCH   1   8
BRANCH   2  20
ATOM     20  O   UNL     1      34.422 -22.995 -17.255  0.00  0.00    -0.452 OA
BRANCH  20  21
ATOM     21  C   UNL     1      34.932 -21.909 -17.948  0.00  0.00    +0.146 C 
ATOM     22  C   UNL     1      34.672 -20.209 -19.615  0.00  0.00    +0.085 C 
ATOM     23  C   UNL     1      34.157 -21.302 -18.919  0.00  0.00    +0.044 C 
ATOM     24  C   UNL     1      35.954 -19.740 -19.329  0.00  0.00    +0.082 C 
ATOM     25  C   UNL     1      36.206 -21.459 -17.649  0.00  0.00    +0.038 C 
ATOM     26  C   UNL     1      36.721 -20.365 -18.345  0.00  0.00    +0.010 C 
BRANCH  22  28
ATOM     27  O   UNL     1      34.270 -19.024 -21.654  0.00  0.00    -0.245 OA
ATOM     28  C   UNL     1      33.846 -19.578 -20.636  0.00  0.00    +0.338 C 
BRANCH  28  29
ATOM     29  O   UNL     1      32.519 -19.661 -20.353  0.00  0.00    -0.477 OA
ATOM     30  H   UNL     1      32.065 -20.471 -20.469  0.00  0.00    +0.295 HD
ENDBRANCH  28  29
ENDBRANCH  22  28
BRANCH  24  32
ATOM     31  O   UNL     1      37.528 -18.634 -20.751  0.00  0.00    -0.245 OA
ATOM     32  C   UNL     1      36.520 -18.601 -20.038  0.00  0.00    +0.338 C 
BRANCH  32  33
ATOM     33  O   UNL     1      35.811 -17.459 -19.834  0.00  0.00    -0.477 OA
ATOM     34  H   UNL     1      35.059 -17.468 -19.275  0.00  0.00    +0.295 HD
ENDBRANCH  32  33
ENDBRANCH  24  32
ENDBRANCH  20  21
ENDBRANCH   2  20
TORSDOF 9
ENDMDL
MODEL 5
REMARK VINA RESULT:     -11.4      2.495      7.183
REMARK  Name = 657140
REMARK  9 active torsions:
REMARK  status: ('A' for Active; 'I' for Inactive)
REMARK    1  A    between atoms: C_1  and  N_8
REMARK    2  A    between atoms: C_2  and  O_20
REMARK    3  A    between atoms: C_9  and  C_11
REMARK    4  A    between atoms: C_14  and  N_19
REMARK    5  A    between atoms: O_20  and  C_21
REMARK    6  A    between atoms: C_22  and  C_28
REMARK    7  A    between atoms: C_24  and  C_32
REMARK    8  A    between atoms: C_28  and  O_29
REMARK    9  A    between atoms: C_32  and  O_33
REMARK                            x       y       z     vdW  Elec       q    Type
REMARK                         _______ _______ _______ _____ _____    ______ ____
ROOT
ATOM      1  C   UNL     1      36.142 -24.608 -14.123  0.00  0.00    +0.086 C 
ATOM      2  C   UNL     1      36.998 -23.521 -14.180  0.00  0.00    +0.159 C 
ATOM      3  C   UNL     1      36.622 -25.897 -13.956  0.00  0.00    +0.018 C 
ATOM      4  C   UNL     1      38.373 -23.729 -14.070  0.00  0.00    +0.039 C 
ATOM      5  C   UNL     1      37.997 -26.105 -13.845  0.00  0.00    +0.001 C 
ATOM      6  C   UNL     1      38.872 -25.020 -13.902  0.00  0.00    +0.003 C 
ENDROOT
BRANCH   1   8
ATOM      7  O   UNL     1      34.191 -23.432 -12.174  0.00  0.00    -0.270 OA
ATOM      8  N   UNL     1      34.743 -24.414 -14.232  0.00  0.00    -0.278 N 
ATOM      9  C   UNL     1      33.863 -23.858 -13.293  0.00  0.00    +0.250 C 
ATOM     10  H   UNL     1      34.335 -24.710 -15.078  0.00  0.00    +0.155 HD
BRANCH   9  11
ATOM     11  C   UNL     1      32.463 -23.817 -13.683  0.00  0.00    +0.055 C 
ATOM     12  C   UNL     1      32.058 -23.006 -14.742  0.00  0.00    +0.029 C 
ATOM     13  C   UNL     1      31.525 -24.590 -12.998  0.00  0.00    +0.005 C 
ATOM     14  C   UNL     1      30.714 -22.968 -15.118  0.00  0.00    +0.143 C 
ATOM     15  C   UNL     1      30.182 -24.552 -13.373  0.00  0.00    +0.002 C 
ATOM     16  C   UNL     1      29.777 -23.741 -14.432  0.00  0.00    +0.024 C 
BRANCH  14  19
ATOM     17  O   UNL     1      29.074 -21.993 -16.413  0.00  0.00    -0.126 OA
ATOM     18  O   UNL     1      31.174 -21.587 -16.907  0.00  0.00    -0.126 OA
ATOM     19  N   UNL     1      30.301 -22.143 -16.197  0.00  0.00    +0.058 N 
ENDBRANCH  14  19
ENDBRANCH   9  11
ENDBRANCH   1   8
BRANCH   2  20
ATOM     20  O   UNL     1      36.531 -22.251 -14.343  0.00  0.00    -0.452 OA
BRANCH  20  21
ATOM     21  C   UNL     1      36.442 -21.761 -15.634  0.00  0.00    +0.146 C 
ATOM     22  C   UNL     1      35.264 -21.612 -17.716  0.00  0.00    +0.085 C 
ATOM     23  C   UNL     1      35.353 -22.107 -16.415  0.00  0.00    +0.044 C 
ATOM     24  C   UNL     1      36.265 -20.779 -18.215  0.00  0.00    +0.082 C 
ATOM     25  C   UNL     1      37.445 -20.935 -16.112  0.00  0.00    +0.038 C 
ATOM     26  C   UNL     1      37.355 -20.441 -17.413  0.00  0.00    +0.010 C 
BRANCH  22  28
ATOM     27  O   UNL     1      33.961 -23.070 -19.093  0.00  0.00    -0.245 OA
ATOM     28  C   UNL     1      34.114 -21.984 -18.528  0.00  0.00    +0.338 C 
BRANCH  28  29
ATOM     29  O   UNL     1      33.191 -20.988 -18.607  0.00  0.00    -0.477 OA
ATOM     30  H   UNL     1      32.800 -20.649 -17.826  0.00  0.00    +0.295 HD
ENDBRANCH  28  29
ENDBRANCH  22  28
BRANCH  24  32
ATOM     31  O   UNL     1      36.720 -20.762 -20.564  0.00  0.00    -0.245 OA
ATOM     32  C   UNL     1      36.202 -20.246 -19.569  0.00  0.00    +0.338 C 
BRANCH  32  33
ATOM     33  O   UNL     1      35.494 -19.087 -19.637  0.00  0.00    -0.477 OA
ATOM     34  H   UNL     1      35.170 -18.688 -18.853  0.00  0.00    +0.295 HD
ENDBRANCH  32  33
ENDBRANCH  24  32
ENDBRANCH  20  21
ENDBRANCH   2  20
TORSDOF 9
ENDMDL
MODEL 6
REMARK VINA RESULT:     -11.3      2.555      5.922
REMARK  Name = 657140
REMARK  9 active torsions:
REMARK  status: ('A' for Active; 'I' for Inactive)
REMARK    1  A    between atoms: C_1  and  N_8
REMARK    2  A    between atoms: C_2  and  O_20
REMARK    3  A    between atoms: C_9  and  C_11
REMARK    4  A    between atoms: C_14  and  N_19
REMARK    5  A    between atoms: O_20  and  C_21
REMARK    6  A    between atoms: C_22  and  C_28
REMARK    7  A    between atoms: C_24  and  C_32
REMARK    8  A    between atoms: C_28  and  O_29
REMARK    9  A    between atoms: C_32  and  O_33
REMARK                            x       y       z     vdW  Elec       q    Type
REMARK                         _______ _______ _______ _____ _____    ______ ____
ROOT
ATOM      1  C   UNL     1      35.019 -21.572 -17.703  0.00  0.00    +0.086 C 
ATOM      2  C   UNL     1      36.183 -21.208 -17.047  0.00  0.00    +0.159 C 
ATOM      3  C   UNL     1      34.910 -21.487 -19.082  0.00  0.00    +0.018 C 
ATOM      4  C   UNL     1      37.268 -20.745 -17.791  0.00  0.00    +0.039 C 
ATOM      5  C   UNL     1      35.995 -21.023 -19.825  0.00  0.00    +0.001 C 
ATOM      6  C   UNL     1      37.175 -20.652 -19.179  0.00  0.00    +0.003 C 
ENDROOT
BRANCH   1   8
ATOM      7  O   UNL     1      32.105 -20.906 -17.941  0.00  0.00    -0.270 OA
ATOM      8  N   UNL     1      33.908 -22.046 -16.963  0.00  0.00    -0.278 N 
ATOM      9  C   UNL     1      32.555 -21.708 -17.107  0.00  0.00    +0.250 C 
ATOM     10  H   UNL     1      34.113 -22.699 -16.255  0.00  0.00    +0.155 HD
BRANCH   9  11
ATOM     11  C   UNL     1      31.639 -22.344 -16.173  0.00  0.00    +0.055 C 
ATOM     12  C   UNL     1      30.271 -22.365 -16.444  0.00  0.00    +0.029 C 
ATOM     13  C   UNL     1      32.129 -22.934 -15.008  0.00  0.00    +0.005 C 
ATOM     14  C   UNL     1      29.393 -22.978 -15.549  0.00  0.00    +0.143 C 
ATOM     15  C   UNL     1      31.252 -23.545 -14.113  0.00  0.00    +0.002 C 
ATOM     16  C   UNL     1      29.884 -23.567 -14.384  0.00  0.00    +0.024 C 
BRANCH  14  19
ATOM     17  O   UNL     1      27.596 -23.568 -16.869  0.00  0.00    -0.126 OA
ATOM     18  O   UNL     1      27.211 -22.457 -15.016  0.00  0.00    -0.126 OA
ATOM     19  N   UNL     1      28.000 -23.002 -15.824  0.00  0.00    +0.058 N 
ENDBRANCH  14  19
ENDBRANCH   9  11
ENDBRANCH   1   8
BRANCH   2  20
ATOM     20  O   UNL     1      36.295 -21.292 -15.692  0.00  0.00    -0.452 OA
BRANCH  20  21
ATOM     21  C   UNL     1      36.697 -22.503 -15.155  0.00  0.00    +0.146 C 
ATOM     22  C   UNL     1      38.450 -24.011 -14.528  0.00  0.00    +0.085 C 
ATOM     23  C   UNL     1      38.047 -22.791 -15.070  0.00  0.00    +0.044 C 
ATOM     24  C   UNL     1      37.496 -24.924 -14.080  0.00  0.00    +0.082 C 
ATOM     25  C   UNL     1      35.735 -23.396 -14.715  0.00  0.00    +0.038 C 
ATOM     26  C   UNL     1      36.139 -24.617 -14.173  0.00  0.00    +0.010 C 
BRANCH  22  28
ATOM     27  O   UNL     1      40.610 -24.000 -13.501  0.00  0.00    -0.245 OA
ATOM     28  C   UNL     1      39.875 -24.303 -14.444  0.00  0.00    +0.338 C 
BRANCH  28  29
ATOM     29  O   UNL     1      40.334 -24.963 -15.540  0.00  0.00    -0.477 OA
ATOM     30  H   UNL     1      40.974 -25.640 -15.445  0.00  0.00    +0.295 HD
ENDBRANCH  28  29
ENDBRANCH  22  28
BRANCH  24  32
ATOM     31  O   UNL     1      38.681 -27.002 -14.017  0.00  0.00    -0.245 OA
ATOM     32  C   UNL     1      37.884 -26.207 -13.510  0.00  0.00    +0.338 C 
BRANCH  32  33
ATOM     33  O   UNL     1      37.264 -26.456 -12.325  0.00  0.00    -0.477 OA
ATOM     34  H   UNL     1      36.441 -26.053 -12.133  0.00  0.00    +0.295 HD
ENDBRANCH  32  33
ENDBRANCH  24  32
ENDBRANCH  20  21
ENDBRANCH   2  20
TORSDOF 9
ENDMDL
MODEL 7
REMARK VINA RESULT:     -11.0      2.444      5.743
REMARK  Name = 657140
REMARK  9 active torsions:
REMARK  status: ('A' for Active; 'I' for Inactive)
REMARK    1  A    between atoms: C_1  and  N_8
REMARK    2  A    between atoms: C_2  and  O_20
REMARK    3  A    between atoms: C_9  and  C_11
REMARK    4  A    between atoms: C_14  and  N_19
REMARK    5  A    between atoms: O_20  and  C_21
REMARK    6  A    between atoms: C_22  and  C_28
REMARK    7  A    between atoms: C_24  and  C_32
REMARK    8  A    between atoms: C_28  and  O_29
REMARK    9  A    between atoms: C_32  and  O_33
REMARK                            x       y       z     vdW  Elec       q    Type
REMARK                         _______ _______ _______ _____ _____    ______ ____
ROOT
ATOM      1  C   UNL     1      34.889 -21.613 -17.679  0.00  0.00    +0.086 C 
ATOM      2  C   UNL     1      36.068 -21.257 -17.044  0.00  0.00    +0.159 C 
ATOM      3  C   UNL     1      34.758 -21.533 -19.056  0.00  0.00    +0.018 C 
ATOM      4  C   UNL     1      37.144 -20.805 -17.807  0.00  0.00    +0.039 C 
ATOM      5  C   UNL     1      35.834 -21.081 -19.819  0.00  0.00    +0.001 C 
ATOM      6  C   UNL     1      37.028 -20.718 -19.194  0.00  0.00    +0.003 C 
ENDROOT
BRANCH   1   8
ATOM      7  O   UNL     1      31.972 -20.961 -17.901  0.00  0.00    -0.270 OA
ATOM      8  N   UNL     1      33.787 -22.076 -16.918  0.00  0.00    -0.278 N 
ATOM      9  C   UNL     1      32.432 -21.744 -17.055  0.00  0.00    +0.250 C 
ATOM     10  H   UNL     1      34.002 -22.712 -16.198  0.00  0.00    +0.155 HD
BRANCH   9  11
ATOM     11  C   UNL     1      31.528 -22.363 -16.099  0.00  0.00    +0.055 C 
ATOM     12  C   UNL     1      32.023 -22.863 -14.894  0.00  0.00    +0.029 C 
ATOM     13  C   UNL     1      30.166 -22.455 -16.385  0.00  0.00    +0.005 C 
ATOM     14  C   UNL     1      31.155 -23.456 -13.976  0.00  0.00    +0.143 C 
ATOM     15  C   UNL     1      29.298 -23.047 -15.468  0.00  0.00    +0.002 C 
ATOM     16  C   UNL     1      29.793 -23.548 -14.264  0.00  0.00    +0.024 C 
BRANCH  14  19
ATOM     17  O   UNL     1      30.847 -24.265 -11.839  0.00  0.00    -0.126 OA
ATOM     18  O   UNL     1      32.896 -24.098 -12.608  0.00  0.00    -0.126 OA
ATOM     19  N   UNL     1      31.657 -23.964 -12.749  0.00  0.00    +0.058 N 
ENDBRANCH  14  19
ENDBRANCH   9  11
ENDBRANCH   1   8
BRANCH   2  20
ATOM     20  O   UNL     1      36.202 -21.336 -15.690  0.00  0.00    -0.452 OA
BRANCH  20  21
ATOM     21  C   UNL     1      36.623 -22.542 -15.157  0.00  0.00    +0.146 C 
ATOM     22  C   UNL     1      38.400 -24.025 -14.537  0.00  0.00    +0.085 C 
ATOM     23  C   UNL     1      37.978 -22.809 -15.075  0.00  0.00    +0.044 C 
ATOM     24  C   UNL     1      37.462 -24.953 -14.089  0.00  0.00    +0.082 C 
ATOM     25  C   UNL     1      35.676 -23.451 -14.717  0.00  0.00    +0.038 C 
ATOM     26  C   UNL     1      36.100 -24.666 -14.179  0.00  0.00    +0.010 C 
BRANCH  22  28
ATOM     27  O   UNL     1      40.564 -23.976 -13.518  0.00  0.00    -0.245 OA
ATOM     28  C   UNL     1      39.830 -24.294 -14.457  0.00  0.00    +0.338 C 
BRANCH  28  29
ATOM     29  O   UNL     1      40.296 -24.953 -15.551  0.00  0.00    -0.477 OA
ATOM     30  H   UNL     1      40.856 -24.514 -16.159  0.00  0.00    +0.295 HD
ENDBRANCH  28  29
ENDBRANCH  22  28
BRANCH  24  32
ATOM     31  O   UNL     1      38.678 -27.013 -14.034  0.00  0.00    -0.245 OA
ATOM     32  C   UNL     1      37.871 -26.231 -13.523  0.00  0.00    +0.338 C 
BRANCH  32  33
ATOM     33  O   UNL     1      37.258 -26.492 -12.337  0.00  0.00    -0.477 OA
ATOM     34  H   UNL     1      37.166 -25.814 -11.697  0.00  0.00    +0.295 HD
ENDBRANCH  32  33
ENDBRANCH  24  32
ENDBRANCH  20  21
ENDBRANCH   2  20
TORSDOF 9
ENDMDL
MODEL 8
REMARK VINA RESULT:     -10.8      2.247      7.756
REMARK  Name = 657140
REMARK  9 active torsions:
REMARK  status: ('A' for Active; 'I' for Inactive)
REMARK    1  A    between atoms: C_1  and  N_8
REMARK    2  A    between atoms: C_2  and  O_20
REMARK    3  A    between atoms: C_9  and  C_11
REMARK    4  A    between atoms: C_14  and  N_19
REMARK    5  A    between atoms: O_20  and  C_21
REMARK    6  A    between atoms: C_22  and  C_28
REMARK    7  A    between atoms: C_24  and  C_32
REMARK    8  A    between atoms: C_28  and  O_29
REMARK    9  A    between atoms: C_32  and  O_33
REMARK                            x       y       z     vdW  Elec       q    Type
REMARK                         _______ _______ _______ _____ _____    ______ ____
ROOT
ATOM      1  C   UNL     1      33.294 -22.869 -14.637  0.00  0.00    +0.086 C 
ATOM      2  C   UNL     1      33.011 -22.738 -15.987  0.00  0.00    +0.159 C 
ATOM      3  C   UNL     1      32.311 -22.709 -13.675  0.00  0.00    +0.018 C 
ATOM      4  C   UNL     1      31.709 -22.437 -16.384  0.00  0.00    +0.039 C 
ATOM      5  C   UNL     1      31.009 -22.408 -14.072  0.00  0.00    +0.001 C 
ATOM      6  C   UNL     1      30.708 -22.272 -15.428  0.00  0.00    +0.003 C 
ENDROOT
BRANCH   1   8
ATOM      7  O   UNL     1      35.000 -25.269 -15.206  0.00  0.00    -0.270 OA
ATOM      8  N   UNL     1      34.612 -23.177 -14.217  0.00  0.00    -0.278 N 
ATOM      9  C   UNL     1      35.377 -24.316 -14.506  0.00  0.00    +0.250 C 
ATOM     10  H   UNL     1      35.046 -22.503 -13.646  0.00  0.00    +0.155 HD
BRANCH   9  11
ATOM     11  C   UNL     1      36.699 -24.362 -13.902  0.00  0.00    +0.055 C 
ATOM     12  C   UNL     1      37.009 -23.514 -12.839  0.00  0.00    +0.029 C 
ATOM     13  C   UNL     1      37.656 -25.254 -14.385  0.00  0.00    +0.005 C 
ATOM     14  C   UNL     1      38.277 -23.560 -12.258  0.00  0.00    +0.143 C 
ATOM     15  C   UNL     1      38.923 -25.300 -13.806  0.00  0.00    +0.002 C 
ATOM     16  C   UNL     1      39.234 -24.452 -12.742  0.00  0.00    +0.024 C 
BRANCH  14  19
ATOM     17  O   UNL     1      39.797 -22.424 -10.947  0.00  0.00    -0.126 OA
ATOM     18  O   UNL     1      37.662 -22.236 -10.472  0.00  0.00    -0.126 OA
ATOM     19  N   UNL     1      38.594 -22.699 -11.174  0.00  0.00    +0.058 N 
ENDBRANCH  14  19
ENDBRANCH   9  11
ENDBRANCH   1   8
BRANCH   2  20
ATOM     20  O   UNL     1      33.975 -22.896 -16.938  0.00  0.00    -0.452 OA
BRANCH  20  21
ATOM     21  C   UNL     1      34.162 -21.862 -17.839  0.00  0.00    +0.146 C 
ATOM     22  C   UNL     1      35.638 -20.437 -19.077  0.00  0.00    +0.085 C 
ATOM     23  C   UNL     1      35.450 -21.479 -18.169  0.00  0.00    +0.044 C 
ATOM     24  C   UNL     1      34.535 -19.795 -19.641  0.00  0.00    +0.082 C 
ATOM     25  C   UNL     1      33.056 -21.238 -18.387  0.00  0.00    +0.038 C 
ATOM     26  C   UNL     1      33.244 -20.196 -19.296  0.00  0.00    +0.010 C 
BRANCH  22  28
ATOM     27  O   UNL     1      37.795 -20.722 -20.070  0.00  0.00    -0.245 OA
ATOM     28  C   UNL     1      36.998 -20.043 -19.417  0.00  0.00    +0.338 C 
BRANCH  28  29
ATOM     29  O   UNL     1      37.319 -18.814 -18.932  0.00  0.00    -0.477 OA
ATOM     30  H   UNL     1      38.217 -18.561 -18.853  0.00  0.00    +0.295 HD
ENDBRANCH  28  29
ENDBRANCH  22  28
BRANCH  24  32
ATOM     31  O   UNL     1      35.077 -17.563 -20.310  0.00  0.00    -0.245 OA
ATOM     32  C   UNL     1      34.698 -18.704 -20.591  0.00  0.00    +0.338 C 
BRANCH  32  33
ATOM     33  O   UNL     1      34.382 -19.073 -21.862  0.00  0.00    -0.477 OA
ATOM     34  H   UNL     1      35.034 -19.043 -22.534  0.00  0.00    +0.295 HD
ENDBRANCH  32  33
ENDBRANCH  24  32
ENDBRANCH  20  21
ENDBRANCH   2  20
TORSDOF 9
ENDMDL
MODEL 9
REMARK VINA RESULT:     -10.8      2.166      7.768
REMARK  Name = 657140
REMARK  9 active torsions:
REMARK  status: ('A' for Active; 'I' for Inactive)
REMARK    1  A    between atoms: C_1  and  N_8
REMARK    2  A    between atoms: C_2  and  O_20
REMARK    3  A    between atoms: C_9  and  C_11
REMARK    4  A    between atoms: C_14  and  N_19
REMARK    5  A    between atoms: O_20  and  C_21
REMARK    6  A    between atoms: C_22  and  C_28
REMARK    7  A    between atoms: C_24  and  C_32
REMARK    8  A    between atoms: C_28  and  O_29
REMARK    9  A    between atoms: C_32  and  O_33
REMARK                            x       y       z     vdW  Elec       q    Type
REMARK                         _______ _______ _______ _____ _____    ______ ____
ROOT
ATOM      1  C   UNL     1      33.149 -22.715 -14.572  0.00  0.00    +0.086 C 
ATOM      2  C   UNL     1      32.949 -22.668 -15.942  0.00  0.00    +0.159 C 
ATOM      3  C   UNL     1      32.097 -22.561 -13.684  0.00  0.00    +0.018 C 
ATOM      4  C   UNL     1      31.662 -22.461 -16.437  0.00  0.00    +0.039 C 
ATOM      5  C   UNL     1      30.810 -22.353 -14.178  0.00  0.00    +0.001 C 
ATOM      6  C   UNL     1      30.592 -22.304 -15.556  0.00  0.00    +0.003 C 
ENDROOT
BRANCH   1   8
ATOM      7  O   UNL     1      34.024 -23.853 -11.940  0.00  0.00    -0.270 OA
ATOM      8  N   UNL     1      34.450 -22.927 -14.053  0.00  0.00    -0.278 N 
ATOM      9  C   UNL     1      34.818 -23.463 -12.812  0.00  0.00    +0.250 C 
ATOM     10  H   UNL     1      35.194 -22.661 -14.642  0.00  0.00    +0.155 HD
BRANCH   9  11
ATOM     11  C   UNL     1      36.246 -23.531 -12.547  0.00  0.00    +0.055 C 
ATOM     12  C   UNL     1      37.035 -24.467 -13.216  0.00  0.00    +0.029 C 
ATOM     13  C   UNL     1      36.828 -22.658 -11.628  0.00  0.00    +0.005 C 
ATOM     14  C   UNL     1      38.406 -24.530 -12.964  0.00  0.00    +0.143 C 
ATOM     15  C   UNL     1      38.198 -22.722 -11.375  0.00  0.00    +0.002 C 
ATOM     16  C   UNL     1      38.987 -23.658 -12.043  0.00  0.00    +0.024 C 
BRANCH  14  19
ATOM     17  O   UNL     1      40.418 -25.213 -13.862  0.00  0.00    -0.126 OA
ATOM     18  O   UNL     1      38.694 -26.564 -14.013  0.00  0.00    -0.126 OA
ATOM     19  N   UNL     1      39.211 -25.481 -13.646  0.00  0.00    +0.058 N 
ENDBRANCH  14  19
ENDBRANCH   9  11
ENDBRANCH   1   8
BRANCH   2  20
ATOM     20  O   UNL     1      33.980 -22.821 -16.820  0.00  0.00    -0.452 OA
BRANCH  20  21
ATOM     21  C   UNL     1      34.157 -21.837 -17.778  0.00  0.00    +0.146 C 
ATOM     22  C   UNL     1      35.617 -20.450 -19.077  0.00  0.00    +0.085 C 
ATOM     23  C   UNL     1      35.440 -21.440 -18.111  0.00  0.00    +0.044 C 
ATOM     24  C   UNL     1      34.509 -19.871 -19.694  0.00  0.00    +0.082 C 
ATOM     25  C   UNL     1      33.045 -21.275 -18.380  0.00  0.00    +0.038 C 
ATOM     26  C   UNL     1      33.222 -20.284 -19.346  0.00  0.00    +0.010 C 
BRANCH  22  28
ATOM     27  O   UNL     1      37.820 -20.760 -19.955  0.00  0.00    -0.245 OA
ATOM     28  C   UNL     1      36.973 -20.041 -19.419  0.00  0.00    +0.338 C 
BRANCH  28  29
ATOM     29  O   UNL     1      37.226 -18.749 -19.080  0.00  0.00    -0.477 OA
ATOM     30  H   UNL     1      37.497 -18.537 -18.209  0.00  0.00    +0.295 HD
ENDBRANCH  28  29
ENDBRANCH  22  28
BRANCH  24  32
ATOM     31  O   UNL     1      34.533 -19.000 -21.922  0.00  0.00    -0.245 OA
ATOM     32  C   UNL     1      34.660 -18.834 -20.706  0.00  0.00    +0.338 C 
BRANCH  32  33
ATOM     33  O   UNL     1      34.965 -17.624 -20.165  0.00  0.00    -0.477 OA
ATOM     34  H   UNL     1      35.400 -17.577 -19.337  0.00  0.00    +0.295 HD
ENDBRANCH  32  33
ENDBRANCH  24  32
ENDBRANCH  20  21
ENDBRANCH   2  20
TORSDOF 9
ENDMDL
