MODEL 1
REMARK VINA RESULT:     -12.6      0.000      0.000
REMARK  Name = 16040279
REMARK  5 active torsions:
REMARK  status: ('A' for Active; 'I' for Inactive)
REMARK    1  A    between atoms: N_2  and  C_21
REMARK    2  A    between atoms: C_3  and  C_11
REMARK    3  A    between atoms: C_4  and  N_17
REMARK    4  A    between atoms: C_21  and  C_22
REMARK    5  A    between atoms: C_22  and  C_25
REMARK                            x       y       z     vdW  Elec       q    Type
REMARK                         _______ _______ _______ _____ _____    ______ ____
ROOT
ATOM      1  O   UNL     1      35.430 -15.505 -19.375  0.00  0.00    -0.275 OA
ATOM      2  N   UNL     1      35.156 -15.894 -21.646  0.00  0.00    -0.281 N 
ATOM      3  C   UNL     1      34.309 -13.167 -21.971  0.00  0.00    +0.015 C 
ATOM      4  C   UNL     1      33.912 -14.209 -23.031  0.00  0.00    -0.041 C 
ATOM      5  C   UNL     1      34.917 -15.358 -22.985  0.00  0.00    +0.072 C 
ATOM      6  C   UNL     1      34.263 -13.836 -20.594  0.00  0.00    +0.088 C 
ATOM      7  C   UNL     1      35.033 -15.138 -20.484  0.00  0.00    +0.226 C 
ENDROOT
BRANCH   3  11
ATOM      8  F   UNL     1      34.910 -10.873 -23.530  0.00  0.00    -0.204 F 
ATOM      9  F   UNL     1      30.422 -10.651 -20.410  0.00  0.00    -0.202 F 
ATOM     10  F   UNL     1      31.120  -8.511 -21.963  0.00  0.00    -0.202 F 
ATOM     11  C   UNL     1      33.452 -11.912 -21.970  0.00  0.00    +0.006 C 
ATOM     12  C   UNL     1      33.812 -10.825 -22.762  0.00  0.00    +0.138 C 
ATOM     13  C   UNL     1      32.311 -11.858 -21.175  0.00  0.00    +0.030 C 
ATOM     14  C   UNL     1      31.521 -10.707 -21.173  0.00  0.00    +0.167 C 
ATOM     15  C   UNL     1      33.023  -9.674 -22.759  0.00  0.00    +0.061 C 
ATOM     16  C   UNL     1      31.878  -9.616 -21.965  0.00  0.00    +0.170 C 
ENDBRANCH   3  11
BRANCH   4  17
ATOM     17  N   UNL     1      33.916 -13.647 -24.384  0.00  0.00    +0.383 N 
ATOM     18  H   UNL     1      34.866 -13.659 -24.754  0.00  0.00    -0.089 HD
ATOM     19  H   UNL     1      33.575 -12.685 -24.353  0.00  0.00    -0.089 HD
ATOM     20  H   UNL     1      33.309 -14.203 -24.986  0.00  0.00    -0.089 HD
ENDBRANCH   4  17
BRANCH   2  21
ATOM     21  C   UNL     1      35.801 -17.200 -21.591  0.00  0.00    +0.098 C 
BRANCH  21  22
ATOM     22  C   UNL     1      34.805 -18.351 -21.721  0.00  0.00    +0.048 C 
BRANCH  22  25
ATOM     23  O   UNL     1      32.816 -21.434 -18.417  0.00  0.00    -0.435 OA
ATOM     24  O   UNL     1      34.962 -21.996 -17.477  0.00  0.00    -0.435 OA
ATOM     25  C   UNL     1      34.885 -19.330 -20.576  0.00  0.00    -0.017 C 
ATOM     26  C   UNL     1      33.714 -19.892 -20.084  0.00  0.00    +0.036 C 
ATOM     27  C   UNL     1      36.136 -19.646 -20.040  0.00  0.00    -0.001 C 
ATOM     28  C   UNL     1      33.838 -20.782 -19.036  0.00  0.00    +0.176 C 
ATOM     29  C   UNL     1      35.064 -21.103 -18.499  0.00  0.00    +0.176 C 
ATOM     30  C   UNL     1      36.233 -20.551 -18.980  0.00  0.00    +0.040 C 
ATOM     31  C   UNL     1      33.536 -22.202 -17.431  0.00  0.00    +0.429 C 
ENDBRANCH  22  25
ENDBRANCH  21  22
ENDBRANCH   2  21
TORSDOF 5
ENDMDL
MODEL 2
REMARK VINA RESULT:     -12.6      4.614      7.393
REMARK  Name = 16040279
REMARK  5 active torsions:
REMARK  status: ('A' for Active; 'I' for Inactive)
REMARK    1  A    between atoms: N_2  and  C_21
REMARK    2  A    between atoms: C_3  and  C_11
REMARK    3  A    between atoms: C_4  and  N_17
REMARK    4  A    between atoms: C_21  and  C_22
REMARK    5  A    between atoms: C_22  and  C_25
REMARK                            x       y       z     vdW  Elec       q    Type
REMARK                         _______ _______ _______ _____ _____    ______ ____
ROOT
ATOM      1  O   UNL     1      32.514 -21.336 -18.122  0.00  0.00    -0.275 OA
ATOM      2  N   UNL     1      34.826 -21.498 -18.001  0.00  0.00    -0.281 N 
ATOM      3  C   UNL     1      35.036 -19.255 -19.785  0.00  0.00    +0.015 C 
ATOM      4  C   UNL     1      36.226 -20.222 -19.650  0.00  0.00    -0.041 C 
ATOM      5  C   UNL     1      36.135 -20.917 -18.293  0.00  0.00    +0.072 C 
ATOM      6  C   UNL     1      33.740 -20.068 -19.709  0.00  0.00    +0.088 C 
ATOM      7  C   UNL     1      33.633 -20.999 -18.517  0.00  0.00    +0.226 C 
ENDROOT
BRANCH   3  11
ATOM      8  F   UNL     1      35.730 -16.504 -19.817  0.00  0.00    -0.204 F 
ATOM      9  F   UNL     1      34.399 -18.783 -24.607  0.00  0.00    -0.202 F 
ATOM     10  F   UNL     1      35.088 -16.140 -24.491  0.00  0.00    -0.202 F 
ATOM     11  C   UNL     1      35.050 -18.414 -21.051  0.00  0.00    +0.006 C 
ATOM     12  C   UNL     1      35.402 -17.069 -20.987  0.00  0.00    +0.138 C 
ATOM     13  C   UNL     1      34.711 -18.996 -22.269  0.00  0.00    +0.030 C 
ATOM     14  C   UNL     1      34.724 -18.227 -23.433  0.00  0.00    +0.167 C 
ATOM     15  C   UNL     1      35.414 -16.299 -22.151  0.00  0.00    +0.061 C 
ATOM     16  C   UNL     1      35.075 -16.879 -23.374  0.00  0.00    +0.170 C 
ENDBRANCH   3  11
BRANCH   4  17
ATOM     17  N   UNL     1      37.512 -19.526 -19.727  0.00  0.00    +0.383 N 
ATOM     18  H   UNL     1      37.377 -18.538 -19.513  0.00  0.00    -0.089 HD
ATOM     19  H   UNL     1      37.895 -19.622 -20.669  0.00  0.00    -0.089 HD
ATOM     20  H   UNL     1      38.161 -19.934 -19.053  0.00  0.00    -0.089 HD
ENDBRANCH   4  17
BRANCH   2  21
ATOM     21  C   UNL     1      34.790 -22.471 -16.917  0.00  0.00    +0.098 C 
BRANCH  21  22
ATOM     22  C   UNL     1      35.569 -22.008 -15.688  0.00  0.00    +0.048 C 
BRANCH  22  25
ATOM     23  O   UNL     1      39.859 -23.846 -14.075  0.00  0.00    -0.435 OA
ATOM     24  O   UNL     1      38.862 -25.959 -13.481  0.00  0.00    -0.435 OA
ATOM     25  C   UNL     1      36.428 -23.095 -15.090  0.00  0.00    -0.017 C 
ATOM     26  C   UNL     1      37.781 -22.857 -14.893  0.00  0.00    +0.036 C 
ATOM     27  C   UNL     1      35.837 -24.315 -14.752  0.00  0.00    -0.001 C 
ATOM     28  C   UNL     1      38.525 -23.882 -14.344  0.00  0.00    +0.176 C 
ATOM     29  C   UNL     1      37.956 -25.089 -14.005  0.00  0.00    +0.176 C 
ATOM     30  C   UNL     1      36.612 -25.337 -14.197  0.00  0.00    +0.040 C 
ATOM     31  C   UNL     1      40.065 -25.165 -13.529  0.00  0.00    +0.429 C 
ENDBRANCH  22  25
ENDBRANCH  21  22
ENDBRANCH   2  21
TORSDOF 5
ENDMDL
MODEL 3
REMARK VINA RESULT:     -11.9      0.766      1.602
REMARK  Name = 16040279
REMARK  5 active torsions:
REMARK  status: ('A' for Active; 'I' for Inactive)
REMARK    1  A    between atoms: N_2  and  C_21
REMARK    2  A    between atoms: C_3  and  C_11
REMARK    3  A    between atoms: C_4  and  N_17
REMARK    4  A    between atoms: C_21  and  C_22
REMARK    5  A    between atoms: C_22  and  C_25
REMARK                            x       y       z     vdW  Elec       q    Type
REMARK                         _______ _______ _______ _____ _____    ______ ____
ROOT
ATOM      1  O   UNL     1      35.472 -15.755 -19.578  0.00  0.00    -0.275 OA
ATOM      2  N   UNL     1      35.109 -16.130 -21.840  0.00  0.00    -0.281 N 
ATOM      3  C   UNL     1      34.431 -13.355 -22.151  0.00  0.00    +0.015 C 
ATOM      4  C   UNL     1      33.937 -14.371 -23.196  0.00  0.00    -0.041 C 
ATOM      5  C   UNL     1      34.868 -15.582 -23.173  0.00  0.00    +0.072 C 
ATOM      6  C   UNL     1      34.382 -14.016 -20.770  0.00  0.00    +0.088 C 
ATOM      7  C   UNL     1      35.068 -15.365 -20.677  0.00  0.00    +0.226 C 
ENDROOT
BRANCH   3  11
ATOM      8  F   UNL     1      31.959 -13.030 -20.793  0.00  0.00    -0.204 F 
ATOM      9  F   UNL     1      33.936  -8.665 -23.430  0.00  0.00    -0.202 F 
ATOM     10  F   UNL     1      31.564  -8.494 -22.081  0.00  0.00    -0.202 F 
ATOM     11  C   UNL     1      33.656 -12.047 -22.130  0.00  0.00    +0.006 C 
ATOM     12  C   UNL     1      32.450 -11.965 -21.442  0.00  0.00    +0.138 C 
ATOM     13  C   UNL     1      34.162 -10.938 -22.803  0.00  0.00    +0.030 C 
ATOM     14  C   UNL     1      33.454  -9.735 -22.786  0.00  0.00    +0.167 C 
ATOM     15  C   UNL     1      31.741 -10.763 -21.426  0.00  0.00    +0.061 C 
ATOM     16  C   UNL     1      32.244  -9.648 -22.098  0.00  0.00    +0.170 C 
ENDBRANCH   3  11
BRANCH   4  17
ATOM     17  N   UNL     1      33.939 -13.813 -24.550  0.00  0.00    +0.383 N 
ATOM     18  H   UNL     1      33.594 -12.853 -24.522  0.00  0.00    -0.089 HD
ATOM     19  H   UNL     1      33.333 -14.375 -25.150  0.00  0.00    -0.089 HD
ATOM     20  H   UNL     1      34.889 -13.822 -24.921  0.00  0.00    -0.089 HD
ENDBRANCH   4  17
BRANCH   2  21
ATOM     21  C   UNL     1      35.670 -17.474 -21.798  0.00  0.00    +0.098 C 
BRANCH  21  22
ATOM     22  C   UNL     1      34.595 -18.554 -21.696  0.00  0.00    +0.048 C 
BRANCH  22  25
ATOM     23  O   UNL     1      32.990 -21.611 -18.166  0.00  0.00    -0.435 OA
ATOM     24  O   UNL     1      35.216 -22.004 -17.332  0.00  0.00    -0.435 OA
ATOM     25  C   UNL     1      34.799 -19.479 -20.521  0.00  0.00    -0.017 C 
ATOM     26  C   UNL     1      33.696 -20.089 -19.940  0.00  0.00    +0.036 C 
ATOM     27  C   UNL     1      36.096 -19.697 -20.048  0.00  0.00    -0.001 C 
ATOM     28  C   UNL     1      33.932 -20.926 -18.868  0.00  0.00    +0.176 C 
ATOM     29  C   UNL     1      35.205 -21.150 -18.392  0.00  0.00    +0.176 C 
ATOM     30  C   UNL     1      36.309 -20.549 -18.961  0.00  0.00    +0.040 C 
ATOM     31  C   UNL     1      33.811 -22.292 -17.195  0.00  0.00    +0.429 C 
ENDBRANCH  22  25
ENDBRANCH  21  22
ENDBRANCH   2  21
TORSDOF 5
ENDMDL
MODEL 4
REMARK VINA RESULT:     -11.9      1.629      2.765
REMARK  Name = 16040279
REMARK  5 active torsions:
REMARK  status: ('A' for Active; 'I' for Inactive)
REMARK    1  A    between atoms: N_2  and  C_21
REMARK    2  A    between atoms: C_3  and  C_11
REMARK    3  A    between atoms: C_4  and  N_17
REMARK    4  A    between atoms: C_21  and  C_22
REMARK    5  A    between atoms: C_22  and  C_25
REMARK                            x       y       z     vdW  Elec       q    Type
REMARK                         _______ _______ _______ _____ _____    ______ ____
ROOT
ATOM      1  O   UNL     1      34.393 -16.540 -24.890  0.00  0.00    -0.275 OA
ATOM      2  N   UNL     1      35.119 -16.438 -22.689  0.00  0.00    -0.281 N 
ATOM      3  C   UNL     1      33.879 -13.857 -22.441  0.00  0.00    +0.015 C 
ATOM      4  C   UNL     1      35.005 -14.247 -21.467  0.00  0.00    -0.041 C 
ATOM      5  C   UNL     1      35.074 -15.770 -21.389  0.00  0.00    +0.072 C 
ATOM      6  C   UNL     1      34.214 -14.428 -23.822  0.00  0.00    +0.088 C 
ATOM      7  C   UNL     1      34.551 -15.907 -23.844  0.00  0.00    +0.226 C 
ENDROOT
BRANCH   3  11
ATOM      8  F   UNL     1      31.905 -12.508 -20.914  0.00  0.00    -0.204 F 
ATOM      9  F   UNL     1      34.880  -9.475 -24.358  0.00  0.00    -0.202 F 
ATOM     10  F   UNL     1      32.943  -8.305 -22.825  0.00  0.00    -0.202 F 
ATOM     11  C   UNL     1      33.625 -12.362 -22.543  0.00  0.00    +0.006 C 
ATOM     12  C   UNL     1      32.638 -11.771 -21.760  0.00  0.00    +0.138 C 
ATOM     13  C   UNL     1      34.383 -11.592 -23.420  0.00  0.00    +0.030 C 
ATOM     14  C   UNL     1      34.153 -10.219 -23.516  0.00  0.00    +0.167 C 
ATOM     15  C   UNL     1      32.406 -10.398 -21.856  0.00  0.00    +0.061 C 
ATOM     16  C   UNL     1      33.164  -9.623 -22.733  0.00  0.00    +0.170 C 
ENDBRANCH   3  11
BRANCH   4  17
ATOM     17  N   UNL     1      34.770 -13.726 -20.118  0.00  0.00    +0.383 N 
ATOM     18  H   UNL     1      34.305 -12.820 -20.180  0.00  0.00    -0.089 HD
ATOM     19  H   UNL     1      35.663 -13.617 -19.635  0.00  0.00    -0.089 HD
ATOM     20  H   UNL     1      34.180 -14.377 -19.600  0.00  0.00    -0.089 HD
ENDBRANCH   4  17
BRANCH   2  21
ATOM     21  C   UNL     1      35.553 -17.829 -22.674  0.00  0.00    +0.098 C 
BRANCH  21  22
ATOM     22  C   UNL     1      36.170 -18.236 -21.337  0.00  0.00    +0.048 C 
BRANCH  22  25
ATOM     23  O   UNL     1      35.372 -21.730 -17.941  0.00  0.00    -0.435 OA
ATOM     24  O   UNL     1      32.990 -21.698 -18.300  0.00  0.00    -0.435 OA
ATOM     25  C   UNL     1      35.283 -19.156 -20.536  0.00  0.00    -0.017 C 
ATOM     26  C   UNL     1      35.858 -20.007 -19.602  0.00  0.00    +0.036 C 
ATOM     27  C   UNL     1      33.903 -19.127 -20.755  0.00  0.00    -0.001 C 
ATOM     28  C   UNL     1      35.006 -20.830 -18.893  0.00  0.00    +0.176 C 
ATOM     29  C   UNL     1      33.645 -20.812 -19.099  0.00  0.00    +0.176 C 
ATOM     30  C   UNL     1      33.062 -19.970 -20.024  0.00  0.00    +0.040 C 
ATOM     31  C   UNL     1      34.090 -22.276 -17.570  0.00  0.00    +0.429 C 
ENDBRANCH  22  25
ENDBRANCH  21  22
ENDBRANCH   2  21
TORSDOF 5
ENDMDL
MODEL 5
REMARK VINA RESULT:     -11.7      4.195      6.764
REMARK  Name = 16040279
REMARK  5 active torsions:
REMARK  status: ('A' for Active; 'I' for Inactive)
REMARK    1  A    between atoms: N_2  and  C_21
REMARK    2  A    between atoms: C_3  and  C_11
REMARK    3  A    between atoms: C_4  and  N_17
REMARK    4  A    between atoms: C_21  and  C_22
REMARK    5  A    between atoms: C_22  and  C_25
REMARK                            x       y       z     vdW  Elec       q    Type
REMARK                         _______ _______ _______ _____ _____    ______ ____
ROOT
ATOM      1  O   UNL     1      36.859 -21.502 -17.796  0.00  0.00    -0.275 OA
ATOM      2  N   UNL     1      34.580 -21.615 -18.222  0.00  0.00    -0.281 N 
ATOM      3  C   UNL     1      34.909 -19.648 -20.291  0.00  0.00    +0.015 C 
ATOM      4  C   UNL     1      33.519 -19.853 -19.663  0.00  0.00    -0.041 C 
ATOM      5  C   UNL     1      33.452 -21.264 -19.083  0.00  0.00    +0.072 C 
ATOM      6  C   UNL     1      35.965 -19.804 -19.193  0.00  0.00    +0.088 C 
ATOM      7  C   UNL     1      35.853 -21.070 -18.366  0.00  0.00    +0.226 C 
ENDROOT
BRANCH   3  11
ATOM      8  F   UNL     1      35.124 -19.406 -23.111  0.00  0.00    -0.204 F 
ATOM      9  F   UNL     1      35.379 -14.785 -20.196  0.00  0.00    -0.202 F 
ATOM     10  F   UNL     1      35.572 -14.699 -22.922  0.00  0.00    -0.202 F 
ATOM     11  C   UNL     1      35.088 -18.316 -21.002  0.00  0.00    +0.006 C 
ATOM     12  C   UNL     1      35.186 -18.278 -22.390  0.00  0.00    +0.138 C 
ATOM     13  C   UNL     1      35.153 -17.142 -20.258  0.00  0.00    +0.030 C 
ATOM     14  C   UNL     1      35.317 -15.918 -20.907  0.00  0.00    +0.167 C 
ATOM     15  C   UNL     1      35.350 -17.054 -23.040  0.00  0.00    +0.061 C 
ATOM     16  C   UNL     1      35.415 -15.874 -22.298  0.00  0.00    +0.170 C 
ENDBRANCH   3  11
BRANCH   4  17
ATOM     17  N   UNL     1      32.444 -19.707 -20.647  0.00  0.00    +0.383 N 
ATOM     18  H   UNL     1      32.533 -18.806 -21.117  0.00  0.00    -0.089 HD
ATOM     19  H   UNL     1      31.541 -19.755 -20.173  0.00  0.00    -0.089 HD
ATOM     20  H   UNL     1      32.508 -20.457 -21.335  0.00  0.00    -0.089 HD
ENDBRANCH   4  17
BRANCH   2  21
ATOM     21  C   UNL     1      34.387 -22.776 -17.363  0.00  0.00    +0.098 C 
BRANCH  21  22
ATOM     22  C   UNL     1      34.047 -22.392 -15.925  0.00  0.00    +0.048 C 
BRANCH  22  25
ATOM     23  O   UNL     1      29.166 -21.985 -16.551  0.00  0.00    -0.435 OA
ATOM     24  O   UNL     1      28.689 -23.417 -14.672  0.00  0.00    -0.435 OA
ATOM     25  C   UNL     1      32.614 -22.690 -15.559  0.00  0.00    -0.017 C 
ATOM     26  C   UNL     1      31.592 -22.131 -16.316  0.00  0.00    +0.036 C 
ATOM     27  C   UNL     1      32.352 -23.521 -14.467  0.00  0.00    -0.001 C 
ATOM     28  C   UNL     1      30.298 -22.432 -15.942  0.00  0.00    +0.176 C 
ATOM     29  C   UNL     1      30.025 -23.250 -14.869  0.00  0.00    +0.176 C 
ATOM     30  C   UNL     1      31.032 -23.810 -14.110  0.00  0.00    +0.040 C 
ATOM     31  C   UNL     1      28.151 -22.613 -15.742  0.00  0.00    +0.429 C 
ENDBRANCH  22  25
ENDBRANCH  21  22
ENDBRANCH   2  21
TORSDOF 5
ENDMDL
MODEL 6
REMARK VINA RESULT:     -11.5      4.320      7.145
REMARK  Name = 16040279
REMARK  5 active torsions:
REMARK  status: ('A' for Active; 'I' for Inactive)
REMARK    1  A    between atoms: N_2  and  C_21
REMARK    2  A    between atoms: C_3  and  C_11
REMARK    3  A    between atoms: C_4  and  N_17
REMARK    4  A    between atoms: C_21  and  C_22
REMARK    5  A    between atoms: C_22  and  C_25
REMARK                            x       y       z     vdW  Elec       q    Type
REMARK                         _______ _______ _______ _____ _____    ______ ____
ROOT
ATOM      1  O   UNL     1      37.208 -21.302 -17.690  0.00  0.00    -0.275 OA
ATOM      2  N   UNL     1      34.912 -21.501 -17.966  0.00  0.00    -0.281 N 
ATOM      3  C   UNL     1      35.057 -19.659 -20.166  0.00  0.00    +0.015 C 
ATOM      4  C   UNL     1      33.714 -19.861 -19.442  0.00  0.00    -0.041 C 
ATOM      5  C   UNL     1      33.724 -21.235 -18.775  0.00  0.00    +0.072 C 
ATOM      6  C   UNL     1      36.181 -19.718 -19.128  0.00  0.00    +0.088 C 
ATOM      7  C   UNL     1      36.157 -20.933 -18.221  0.00  0.00    +0.226 C 
ENDROOT
BRANCH   3  11
ATOM      8  F   UNL     1      35.127 -19.589 -23.003  0.00  0.00    -0.204 F 
ATOM      9  F   UNL     1      35.351 -14.787 -20.395  0.00  0.00    -0.202 F 
ATOM     10  F   UNL     1      35.411 -14.867 -23.128  0.00  0.00    -0.202 F 
ATOM     11  C   UNL     1      35.152 -18.370 -20.967  0.00  0.00    +0.006 C 
ATOM     12  C   UNL     1      35.182 -18.416 -22.357  0.00  0.00    +0.138 C 
ATOM     13  C   UNL     1      35.210 -17.149 -20.301  0.00  0.00    +0.030 C 
ATOM     14  C   UNL     1      35.297 -15.964 -21.031  0.00  0.00    +0.167 C 
ATOM     15  C   UNL     1      35.270 -17.231 -23.089  0.00  0.00    +0.061 C 
ATOM     16  C   UNL     1      35.327 -16.005 -22.425  0.00  0.00    +0.170 C 
ENDBRANCH   3  11
BRANCH   4  17
ATOM     17  N   UNL     1      32.578 -19.805 -20.365  0.00  0.00    +0.383 N 
ATOM     18  H   UNL     1      32.488 -18.859 -20.736  0.00  0.00    -0.089 HD
ATOM     19  H   UNL     1      31.723 -20.058 -19.867  0.00  0.00    -0.089 HD
ATOM     20  H   UNL     1      32.730 -20.459 -21.133  0.00  0.00    -0.089 HD
ENDBRANCH   4  17
BRANCH   2  21
ATOM     21  C   UNL     1      34.807 -22.612 -17.029  0.00  0.00    +0.098 C 
BRANCH  21  22
ATOM     22  C   UNL     1      35.297 -22.246 -15.629  0.00  0.00    +0.048 C 
BRANCH  22  25
ATOM     23  O   UNL     1      39.682 -23.765 -13.944  0.00  0.00    -0.435 OA
ATOM     24  O   UNL     1      38.860 -25.978 -13.462  0.00  0.00    -0.435 OA
ATOM     25  C   UNL     1      36.230 -23.277 -15.044  0.00  0.00    -0.017 C 
ATOM     26  C   UNL     1      37.551 -22.930 -14.793  0.00  0.00    +0.036 C 
ATOM     27  C   UNL     1      35.740 -24.557 -14.770  0.00  0.00    -0.001 C 
ATOM     28  C   UNL     1      38.366 -23.907 -14.258  0.00  0.00    +0.176 C 
ATOM     29  C   UNL     1      37.896 -25.171 -13.983  0.00  0.00    +0.176 C 
ATOM     30  C   UNL     1      36.586 -25.528 -14.228  0.00  0.00    +0.040 C 
ATOM     31  C   UNL     1      39.988 -25.081 -13.440  0.00  0.00    +0.429 C 
ENDBRANCH  22  25
ENDBRANCH  21  22
ENDBRANCH   2  21
TORSDOF 5
ENDMDL
MODEL 7
REMARK VINA RESULT:     -11.5      4.197      6.625
REMARK  Name = 16040279
REMARK  5 active torsions:
REMARK  status: ('A' for Active; 'I' for Inactive)
REMARK    1  A    between atoms: N_2  and  C_21
REMARK    2  A    between atoms: C_3  and  C_11
REMARK    3  A    between atoms: C_4  and  N_17
REMARK    4  A    between atoms: C_21  and  C_22
REMARK    5  A    between atoms: C_22  and  C_25
REMARK                            x       y       z     vdW  Elec       q    Type
REMARK                         _______ _______ _______ _____ _____    ______ ____
ROOT
ATOM      1  O   UNL     1      32.498 -21.148 -18.799  0.00  0.00    -0.275 OA
ATOM      2  N   UNL     1      34.811 -21.292 -18.676  0.00  0.00    -0.281 N 
ATOM      3  C   UNL     1      35.003 -18.847 -20.174  0.00  0.00    +0.015 C 
ATOM      4  C   UNL     1      36.205 -19.807 -20.145  0.00  0.00    -0.041 C 
ATOM      5  C   UNL     1      36.113 -20.661 -18.882  0.00  0.00    +0.072 C 
ATOM      6  C   UNL     1      33.718 -19.680 -20.209  0.00  0.00    +0.088 C 
ATOM      7  C   UNL     1      33.615 -20.750 -19.139  0.00  0.00    +0.226 C 
ENDROOT
BRANCH   3  11
ATOM      8  F   UNL     1      35.609 -16.093 -19.859  0.00  0.00    -0.204 F 
ATOM      9  F   UNL     1      34.446 -17.815 -24.918  0.00  0.00    -0.202 F 
ATOM     10  F   UNL     1      35.047 -15.186 -24.469  0.00  0.00    -0.202 F 
ATOM     11  C   UNL     1      35.015 -17.859 -21.330  0.00  0.00    +0.006 C 
ATOM     12  C   UNL     1      35.322 -16.522 -21.096  0.00  0.00    +0.138 C 
ATOM     13  C   UNL     1      34.719 -18.300 -22.616  0.00  0.00    +0.030 C 
ATOM     14  C   UNL     1      34.730 -17.396 -23.679  0.00  0.00    +0.167 C 
ATOM     15  C   UNL     1      35.332 -15.617 -22.158  0.00  0.00    +0.061 C 
ATOM     16  C   UNL     1      35.037 -16.054 -23.449  0.00  0.00    +0.170 C 
ENDBRANCH   3  11
BRANCH   4  17
ATOM     17  N   UNL     1      37.482 -19.089 -20.124  0.00  0.00    +0.383 N 
ATOM     18  H   UNL     1      37.684 -18.783 -19.173  0.00  0.00    -0.089 HD
ATOM     19  H   UNL     1      37.424 -18.276 -20.739  0.00  0.00    -0.089 HD
ATOM     20  H   UNL     1      38.226 -19.708 -20.448  0.00  0.00    -0.089 HD
ENDBRANCH   4  17
BRANCH   2  21
ATOM     21  C   UNL     1      34.780 -22.389 -17.717  0.00  0.00    +0.098 C 
BRANCH  21  22
ATOM     22  C   UNL     1      35.165 -21.945 -16.307  0.00  0.00    +0.048 C 
BRANCH  22  25
ATOM     23  O   UNL     1      30.905 -23.691 -14.523  0.00  0.00    -0.435 OA
ATOM     24  O   UNL     1      31.904 -24.306 -12.419  0.00  0.00    -0.435 OA
ATOM     25  C   UNL     1      34.315 -22.584 -15.236  0.00  0.00    -0.017 C 
ATOM     26  C   UNL     1      32.968 -22.807 -15.485  0.00  0.00    +0.036 C 
ATOM     27  C   UNL     1      34.908 -22.934 -14.020  0.00  0.00    -0.001 C 
ATOM     28  C   UNL     1      32.231 -23.393 -14.475  0.00  0.00    +0.176 C 
ATOM     29  C   UNL     1      32.802 -23.744 -13.273  0.00  0.00    +0.176 C 
ATOM     30  C   UNL     1      34.140 -23.527 -13.014  0.00  0.00    +0.040 C 
ATOM     31  C   UNL     1      30.705 -24.269 -13.217  0.00  0.00    +0.429 C 
ENDBRANCH  22  25
ENDBRANCH  21  22
ENDBRANCH   2  21
TORSDOF 5
ENDMDL
MODEL 8
REMARK VINA RESULT:     -11.4      4.601      9.291
REMARK  Name = 16040279
REMARK  5 active torsions:
REMARK  status: ('A' for Active; 'I' for Inactive)
REMARK    1  A    between atoms: N_2  and  C_21
REMARK    2  A    between atoms: C_3  and  C_11
REMARK    3  A    between atoms: C_4  and  N_17
REMARK    4  A    between atoms: C_21  and  C_22
REMARK    5  A    between atoms: C_22  and  C_25
REMARK                            x       y       z     vdW  Elec       q    Type
REMARK                         _______ _______ _______ _____ _____    ______ ____
ROOT
ATOM      1  O   UNL     1      34.368 -18.131 -24.978  0.00  0.00    -0.275 OA
ATOM      2  N   UNL     1      34.832 -16.391 -23.515  0.00  0.00    -0.281 N 
ATOM      3  C   UNL     1      35.387 -18.320 -21.459  0.00  0.00    +0.015 C 
ATOM      4  C   UNL     1      35.022 -16.879 -21.059  0.00  0.00    -0.041 C 
ATOM      5  C   UNL     1      35.360 -15.952 -22.225  0.00  0.00    +0.072 C 
ATOM      6  C   UNL     1      34.555 -18.709 -22.684  0.00  0.00    +0.088 C 
ATOM      7  C   UNL     1      34.608 -17.726 -23.838  0.00  0.00    +0.226 C 
ENDROOT
BRANCH   3  11
ATOM      8  F   UNL     1      37.551 -19.575 -20.118  0.00  0.00    -0.204 F 
ATOM      9  F   UNL     1      32.505 -20.997 -18.561  0.00  0.00    -0.202 F 
ATOM     10  F   UNL     1      34.682 -22.128 -17.354  0.00  0.00    -0.202 F 
ATOM     11  C   UNL     1      35.200 -19.346 -20.353  0.00  0.00    +0.006 C 
ATOM     12  C   UNL     1      36.311 -19.919 -19.742  0.00  0.00    +0.138 C 
ATOM     13  C   UNL     1      33.915 -19.706 -19.959  0.00  0.00    +0.030 C 
ATOM     14  C   UNL     1      33.739 -20.647 -18.944  0.00  0.00    +0.167 C 
ATOM     15  C   UNL     1      36.136 -20.861 -18.727  0.00  0.00    +0.061 C 
ATOM     16  C   UNL     1      34.850 -21.224 -18.328  0.00  0.00    +0.170 C 
ENDBRANCH   3  11
BRANCH   4  17
ATOM     17  N   UNL     1      35.768 -16.429 -19.881  0.00  0.00    +0.383 N 
ATOM     18  H   UNL     1      35.241 -16.658 -19.038  0.00  0.00    -0.089 HD
ATOM     19  H   UNL     1      35.907 -15.419 -19.932  0.00  0.00    -0.089 HD
ATOM     20  H   UNL     1      36.674 -16.896 -19.853  0.00  0.00    -0.089 HD
ENDBRANCH   4  17
BRANCH   2  21
ATOM     21  C   UNL     1      34.801 -15.382 -24.566  0.00  0.00    +0.098 C 
BRANCH  21  22
ATOM     22  C   UNL     1      33.473 -14.629 -24.617  0.00  0.00    +0.048 C 
BRANCH  22  25
ATOM     23  O   UNL     1      34.470  -9.818 -25.114  0.00  0.00    -0.435 OA
ATOM     24  O   UNL     1      33.904  -9.346 -22.820  0.00  0.00    -0.435 OA
ATOM     25  C   UNL     1      33.578 -13.216 -24.099  0.00  0.00    -0.017 C 
ATOM     26  C   UNL     1      33.999 -12.209 -24.958  0.00  0.00    +0.036 C 
ATOM     27  C   UNL     1      33.247 -12.956 -22.766  0.00  0.00    -0.001 C 
ATOM     28  C   UNL     1      34.079 -10.933 -24.439  0.00  0.00    +0.176 C 
ATOM     29  C   UNL     1      33.757 -10.663 -23.128  0.00  0.00    +0.176 C 
ATOM     30  C   UNL     1      33.337 -11.655 -22.265  0.00  0.00    +0.040 C 
ATOM     31  C   UNL     1      34.356  -8.817 -24.083  0.00  0.00    +0.429 C 
ENDBRANCH  22  25
ENDBRANCH  21  22
ENDBRANCH   2  21
TORSDOF 5
ENDMDL
MODEL 9
REMARK VINA RESULT:     -11.1      4.268      6.852
REMARK  Name = 16040279
REMARK  5 active torsions:
REMARK  status: ('A' for Active; 'I' for Inactive)
REMARK    1  A    between atoms: N_2  and  C_21
REMARK    2  A    between atoms: C_3  and  C_11
REMARK    3  A    between atoms: C_4  and  N_17
REMARK    4  A    between atoms: C_21  and  C_22
REMARK    5  A    between atoms: C_22  and  C_25
REMARK                            x       y       z     vdW  Elec       q    Type
REMARK                         _______ _______ _______ _____ _____    ______ ____
ROOT
ATOM      1  O   UNL     1      32.517 -21.187 -18.735  0.00  0.00    -0.275 OA
ATOM      2  N   UNL     1      34.831 -21.279 -18.580  0.00  0.00    -0.281 N 
ATOM      3  C   UNL     1      34.993 -18.894 -20.175  0.00  0.00    +0.015 C 
ATOM      4  C   UNL     1      36.214 -19.828 -20.093  0.00  0.00    -0.041 C 
ATOM      5  C   UNL     1      36.123 -20.632 -18.797  0.00  0.00    +0.072 C 
ATOM      6  C   UNL     1      33.726 -19.754 -20.191  0.00  0.00    +0.088 C 
ATOM      7  C   UNL     1      33.630 -20.781 -19.079  0.00  0.00    +0.226 C 
ENDROOT
BRANCH   3  11
ATOM      8  F   UNL     1      35.656 -16.141 -19.984  0.00  0.00    -0.204 F 
ATOM      9  F   UNL     1      34.359 -18.044 -24.945  0.00  0.00    -0.202 F 
ATOM     10  F   UNL     1      35.018 -15.411 -24.616  0.00  0.00    -0.202 F 
ATOM     11  C   UNL     1      35.000 -17.954 -21.370  0.00  0.00    +0.006 C 
ATOM     12  C   UNL     1      35.337 -16.615 -21.197  0.00  0.00    +0.138 C 
ATOM     13  C   UNL     1      34.669 -18.441 -22.631  0.00  0.00    +0.030 C 
ATOM     14  C   UNL     1      34.675 -17.581 -23.730  0.00  0.00    +0.167 C 
ATOM     15  C   UNL     1      35.342 -15.754 -22.295  0.00  0.00    +0.061 C 
ATOM     16  C   UNL     1      35.012 -16.237 -23.562  0.00  0.00    +0.170 C 
ENDBRANCH   3  11
BRANCH   4  17
ATOM     17  N   UNL     1      37.476 -19.085 -20.087  0.00  0.00    +0.383 N 
ATOM     18  H   UNL     1      38.220 -19.681 -19.725  0.00  0.00    -0.089 HD
ATOM     19  H   UNL     1      37.381 -18.259 -19.494  0.00  0.00    -0.089 HD
ATOM     20  H   UNL     1      37.704 -18.795 -21.039  0.00  0.00    -0.089 HD
ENDBRANCH   4  17
BRANCH   2  21
ATOM     21  C   UNL     1      34.810 -22.336 -17.577  0.00  0.00    +0.098 C 
BRANCH  21  22
ATOM     22  C   UNL     1      33.565 -22.280 -16.693  0.00  0.00    +0.048 C 
BRANCH  22  25
ATOM     23  O   UNL     1      36.540 -23.538 -12.958  0.00  0.00    -0.435 OA
ATOM     24  O   UNL     1      34.693 -23.880 -11.450  0.00  0.00    -0.435 OA
ATOM     25  C   UNL     1      33.833 -22.711 -15.272  0.00  0.00    -0.017 C 
ATOM     26  C   UNL     1      35.144 -22.903 -14.859  0.00  0.00    +0.036 C 
ATOM     27  C   UNL     1      32.752 -22.907 -14.409  0.00  0.00    -0.001 C 
ATOM     28  C   UNL     1      35.339 -23.298 -13.551  0.00  0.00    +0.176 C 
ATOM     29  C   UNL     1      34.283 -23.494 -12.689  0.00  0.00    +0.176 C 
ATOM     30  C   UNL     1      32.976 -23.307 -13.089  0.00  0.00    +0.040 C 
ATOM     31  C   UNL     1      36.123 -23.906 -11.628  0.00  0.00    +0.429 C 
ENDBRANCH  22  25
ENDBRANCH  21  22
ENDBRANCH   2  21
TORSDOF 5
ENDMDL
