MODEL 1
REMARK VINA RESULT:     -11.2      0.000      0.000
REMARK  Name = 4449
REMARK  10 active torsions:
REMARK  status: ('A' for Active; 'I' for Inactive)
REMARK    1  A    between atoms: N_2  and  C_9
REMARK    2  A    between atoms: N_3  and  C_26
REMARK    3  A    between atoms: C_6  and  C_7
REMARK    4  A    between atoms: C_9  and  C_10
REMARK    5  A    between atoms: C_10  and  C_11
REMARK    6  A    between atoms: C_11  and  N_12
REMARK    7  A    between atoms: N_13  and  C_20
REMARK    8  A    between atoms: C_26  and  C_27
REMARK    9  A    between atoms: C_27  and  O_28
REMARK   10  A    between atoms: O_28  and  C_29
REMARK                            x       y       z     vdW  Elec       q    Type
REMARK                         _______ _______ _______ _____ _____    ______ ____
ROOT
ATOM      1  O   UNL     1      35.357 -15.590 -19.627  0.00  0.00    -0.245 OA
ATOM      2  N   UNL     1      34.387 -14.120 -21.189  0.00  0.00    -0.201 N 
ATOM      3  N   UNL     1      35.381 -15.942 -21.943  0.00  0.00    -0.263 N 
ATOM      4  N   UNL     1      34.271 -14.101 -22.554  0.00  0.00    -0.152 NA
ATOM      5  C   UNL     1      35.082 -15.266 -20.773  0.00  0.00    +0.348 A 
ATOM      6  C   UNL     1      34.873 -15.187 -22.941  0.00  0.00    +0.144 A 
ENDROOT
BRANCH   6   7
ATOM      7  C   UNL     1      34.996 -15.598 -24.369  0.00  0.00    +0.066 C 
ATOM      8  C   UNL     1      33.687 -15.382 -25.100  0.00  0.00    +0.008 C 
ENDBRANCH   6   7
BRANCH   2   9
ATOM      9  C   UNL     1      33.841 -13.071 -20.372  0.00  0.00    +0.130 C 
BRANCH   9  10
ATOM     10  C   UNL     1      32.314 -13.110 -20.314  0.00  0.00    +0.004 C 
BRANCH  10  11
ATOM     11  C   UNL     1      31.681 -11.948 -19.542  0.00  0.00    -0.075 C 
BRANCH  11  12
ATOM     12  N   UNL     1      32.178 -10.651 -20.000  0.00  0.00    +0.389 N 
ATOM     13  N   UNL     1      31.979  -7.913 -20.786  0.00  0.00    -0.312 N 
ATOM     14  C   UNL     1      31.897  -9.611 -19.004  0.00  0.00    -0.055 C 
ATOM     15  C   UNL     1      31.567 -10.291 -21.285  0.00  0.00    -0.055 C 
ATOM     16  C   UNL     1      32.462  -8.258 -19.446  0.00  0.00    +0.068 C 
ATOM     17  C   UNL     1      32.122  -8.961 -21.804  0.00  0.00    +0.068 C 
ATOM     18  H   UNL     1      33.188 -10.724 -20.123  0.00  0.00    -0.080 HD
BRANCH  13  20
ATOM     19 CL   UNL     1      32.020  -4.581 -24.676  0.00  0.00    -0.082 Cl
ATOM     20  C   UNL     1      32.003  -6.579 -21.210  0.00  0.00    +0.049 C 
ATOM     21  C   UNL     1      32.002  -6.280 -22.572  0.00  0.00    +0.026 C 
ATOM     22  C   UNL     1      32.023  -5.549 -20.269  0.00  0.00    +0.015 C 
ATOM     23  C   UNL     1      32.021  -4.951 -22.994  0.00  0.00    +0.059 C 
ATOM     24  C   UNL     1      32.042  -4.220 -20.691  0.00  0.00    +0.002 C 
ATOM     25  C   UNL     1      32.040  -3.921 -22.054  0.00  0.00    +0.011 C 
ENDBRANCH  13  20
ENDBRANCH  11  12
ENDBRANCH  10  11
ENDBRANCH   9  10
ENDBRANCH   2   9
BRANCH   3  26
ATOM     26  C   UNL     1      36.098 -17.199 -22.041  0.00  0.00    +0.159 C 
BRANCH  26  27
ATOM     27  C   UNL     1      35.227 -18.370 -21.624  0.00  0.00    +0.230 C 
BRANCH  27  28
ATOM     28  O   UNL     1      35.895 -19.121 -20.618  0.00  0.00    -0.473 OA
BRANCH  28  29
ATOM     29  C   UNL     1      35.113 -19.899 -19.805  0.00  0.00    +0.139 C 
ATOM     30  C   UNL     1      35.708 -20.781 -18.903  0.00  0.00    +0.037 C 
ATOM     31  C   UNL     1      33.724 -19.808 -19.879  0.00  0.00    +0.037 C 
ATOM     32  C   UNL     1      34.912 -21.573 -18.075  0.00  0.00    +0.003 C 
ATOM     33  C   UNL     1      32.928 -20.599 -19.051  0.00  0.00    +0.003 C 
ATOM     34  C   UNL     1      33.522 -21.481 -18.149  0.00  0.00    +0.000 C 
ENDBRANCH  28  29
ENDBRANCH  27  28
ENDBRANCH  26  27
ENDBRANCH   3  26
TORSDOF 10
ENDMDL
MODEL 2
REMARK VINA RESULT:     -11.0      7.058     11.164
REMARK  Name = 4449
REMARK  10 active torsions:
REMARK  status: ('A' for Active; 'I' for Inactive)
REMARK    1  A    between atoms: N_2  and  C_9
REMARK    2  A    between atoms: N_3  and  C_26
REMARK    3  A    between atoms: C_6  and  C_7
REMARK    4  A    between atoms: C_9  and  C_10
REMARK    5  A    between atoms: C_10  and  C_11
REMARK    6  A    between atoms: C_11  and  N_12
REMARK    7  A    between atoms: N_13  and  C_20
REMARK    8  A    between atoms: C_26  and  C_27
REMARK    9  A    between atoms: C_27  and  O_28
REMARK   10  A    between atoms: O_28  and  C_29
REMARK                            x       y       z     vdW  Elec       q    Type
REMARK                         _______ _______ _______ _____ _____    ______ ____
ROOT
ATOM      1  O   UNL     1      33.055 -23.278 -12.507  0.00  0.00    -0.245 OA
ATOM      2  N   UNL     1      33.805 -22.836 -14.695  0.00  0.00    -0.201 N 
ATOM      3  N   UNL     1      35.291 -22.858 -13.063  0.00  0.00    -0.263 N 
ATOM      4  N   UNL     1      35.022 -22.567 -15.262  0.00  0.00    -0.152 NA
ATOM      5  C   UNL     1      33.941 -23.024 -13.311  0.00  0.00    +0.348 A 
ATOM      6  C   UNL     1      35.853 -22.590 -14.261  0.00  0.00    +0.144 A 
ENDROOT
BRANCH   6   7
ATOM      7  C   UNL     1      37.318 -22.352 -14.400  0.00  0.00    +0.066 C 
ATOM      8  C   UNL     1      37.618 -21.613 -15.688  0.00  0.00    +0.008 C 
ENDBRANCH   6   7
BRANCH   2   9
ATOM      9  C   UNL     1      32.604 -22.900 -15.483  0.00  0.00    +0.130 C 
BRANCH   9  10
ATOM     10  C   UNL     1      32.740 -22.166 -16.816  0.00  0.00    +0.004 C 
BRANCH  10  11
ATOM     11  C   UNL     1      33.890 -22.663 -17.698  0.00  0.00    -0.075 C 
BRANCH  11  12
ATOM     12  N   UNL     1      34.135 -21.770 -18.830  0.00  0.00    +0.389 N 
ATOM     13  N   UNL     1      34.737 -19.291 -20.114  0.00  0.00    -0.312 N 
ATOM     14  C   UNL     1      35.487 -21.204 -18.756  0.00  0.00    -0.055 C 
ATOM     15  C   UNL     1      33.142 -20.690 -18.860  0.00  0.00    -0.055 C 
ATOM     16  C   UNL     1      35.778 -20.312 -19.966  0.00  0.00    +0.068 C 
ATOM     17  C   UNL     1      33.354 -19.782 -20.074  0.00  0.00    +0.068 C 
ATOM     18  H   UNL     1      34.054 -22.317 -19.688  0.00  0.00    -0.080 HD
BRANCH  13  20
ATOM     19 CL   UNL     1      35.022 -14.179 -20.240  0.00  0.00    -0.082 Cl
ATOM     20  C   UNL     1      35.001 -18.132 -20.853  0.00  0.00    +0.049 C 
ATOM     21  C   UNL     1      34.891 -16.880 -20.249  0.00  0.00    +0.026 C 
ATOM     22  C   UNL     1      35.380 -18.231 -22.192  0.00  0.00    +0.015 C 
ATOM     23  C   UNL     1      35.159 -15.726 -20.984  0.00  0.00    +0.059 C 
ATOM     24  C   UNL     1      35.648 -17.076 -22.927  0.00  0.00    +0.002 C 
ATOM     25  C   UNL     1      35.538 -15.823 -22.323  0.00  0.00    +0.011 C 
ENDBRANCH  13  20
ENDBRANCH  11  12
ENDBRANCH  10  11
ENDBRANCH   9  10
ENDBRANCH   2   9
BRANCH   3  26
ATOM     26  C   UNL     1      35.938 -22.958 -11.769  0.00  0.00    +0.159 C 
BRANCH  26  27
ATOM     27  C   UNL     1      35.738 -24.330 -11.150  0.00  0.00    +0.230 C 
BRANCH  27  28
ATOM     28  O   UNL     1      37.005 -24.912 -10.873  0.00  0.00    -0.473 OA
BRANCH  28  29
ATOM     29  C   UNL     1      37.843 -25.107 -11.940  0.00  0.00    +0.139 C 
ATOM     30  C   UNL     1      37.520 -26.047 -12.917  0.00  0.00    +0.037 C 
ATOM     31  C   UNL     1      39.018 -24.364 -12.049  0.00  0.00    +0.037 C 
ATOM     32  C   UNL     1      38.371 -26.246 -14.004  0.00  0.00    +0.003 C 
ATOM     33  C   UNL     1      39.870 -24.561 -13.135  0.00  0.00    +0.003 C 
ATOM     34  C   UNL     1      39.547 -25.502 -14.112  0.00  0.00    +0.000 C 
ENDBRANCH  28  29
ENDBRANCH  27  28
ENDBRANCH  26  27
ENDBRANCH   3  26
TORSDOF 10
ENDMDL
MODEL 3
REMARK VINA RESULT:     -10.9      5.271     12.465
REMARK  Name = 4449
REMARK  10 active torsions:
REMARK  status: ('A' for Active; 'I' for Inactive)
REMARK    1  A    between atoms: N_2  and  C_9
REMARK    2  A    between atoms: N_3  and  C_26
REMARK    3  A    between atoms: C_6  and  C_7
REMARK    4  A    between atoms: C_9  and  C_10
REMARK    5  A    between atoms: C_10  and  C_11
REMARK    6  A    between atoms: C_11  and  N_12
REMARK    7  A    between atoms: N_13  and  C_20
REMARK    8  A    between atoms: C_26  and  C_27
REMARK    9  A    between atoms: C_27  and  O_28
REMARK   10  A    between atoms: O_28  and  C_29
REMARK                            x       y       z     vdW  Elec       q    Type
REMARK                         _______ _______ _______ _____ _____    ______ ____
ROOT
ATOM      1  O   UNL     1      35.269 -15.219 -19.674  0.00  0.00    -0.245 OA
ATOM      2  N   UNL     1      35.686 -16.888 -21.281  0.00  0.00    -0.201 N 
ATOM      3  N   UNL     1      35.018 -14.903 -21.982  0.00  0.00    -0.263 N 
ATOM      4  N   UNL     1      35.616 -16.951 -22.648  0.00  0.00    -0.152 NA
ATOM      5  C   UNL     1      35.315 -15.611 -20.831  0.00  0.00    +0.348 A 
ATOM      6  C   UNL     1      35.217 -15.764 -23.002  0.00  0.00    +0.144 A 
ENDROOT
BRANCH   6   7
ATOM      7  C   UNL     1      35.000 -15.356 -24.420  0.00  0.00    +0.066 C 
ATOM      8  C   UNL     1      33.672 -15.880 -24.926  0.00  0.00    +0.008 C 
ENDBRANCH   6   7
BRANCH   2   9
ATOM      9  C   UNL     1      36.096 -18.019 -20.495  0.00  0.00    +0.130 C 
BRANCH   9  10
ATOM     10  C   UNL     1      34.941 -18.977 -20.204  0.00  0.00    +0.004 C 
BRANCH  10  11
ATOM     11  C   UNL     1      35.374 -20.413 -19.890  0.00  0.00    -0.075 C 
BRANCH  11  12
ATOM     12  N   UNL     1      35.451 -20.657 -18.450  0.00  0.00    +0.389 N 
ATOM     13  N   UNL     1      36.021 -22.156 -16.086  0.00  0.00    -0.312 N 
ATOM     14  C   UNL     1      36.839 -20.902 -18.042  0.00  0.00    -0.055 C 
ATOM     15  C   UNL     1      34.611 -21.802 -18.076  0.00  0.00    -0.055 C 
ATOM     16  C   UNL     1      36.941 -21.104 -16.528  0.00  0.00    +0.068 C 
ATOM     17  C   UNL     1      34.638 -22.033 -16.563  0.00  0.00    +0.068 C 
ATOM     18  H   UNL     1      35.108 -19.826 -17.968  0.00  0.00    -0.080 HD
BRANCH  13  20
ATOM     19 CL   UNL     1      39.304 -24.468 -12.908  0.00  0.00    -0.082 Cl
ATOM     20  C   UNL     1      36.239 -22.800 -14.863  0.00  0.00    +0.049 C 
ATOM     21  C   UNL     1      37.514 -23.260 -14.535  0.00  0.00    +0.026 C 
ATOM     22  C   UNL     1      35.182 -22.976 -13.970  0.00  0.00    +0.015 C 
ATOM     23  C   UNL     1      37.731 -23.898 -13.314  0.00  0.00    +0.059 C 
ATOM     24  C   UNL     1      35.399 -23.613 -12.749  0.00  0.00    +0.002 C 
ATOM     25  C   UNL     1      36.674 -24.075 -12.420  0.00  0.00    +0.011 C 
ENDBRANCH  13  20
ENDBRANCH  11  12
ENDBRANCH  10  11
ENDBRANCH   9  10
ENDBRANCH   2   9
BRANCH   3  26
ATOM     26  C   UNL     1      34.583 -13.521 -22.042  0.00  0.00    +0.159 C 
BRANCH  26  27
ATOM     27  C   UNL     1      33.094 -13.393 -21.776  0.00  0.00    +0.230 C 
BRANCH  27  28
ATOM     28  O   UNL     1      32.681 -12.058 -22.039  0.00  0.00    -0.473 OA
BRANCH  28  29
ATOM     29  C   UNL     1      32.301 -11.305 -20.959  0.00  0.00    +0.139 C 
ATOM     30  C   UNL     1      32.188  -9.920 -21.080  0.00  0.00    +0.037 C 
ATOM     31  C   UNL     1      32.027 -11.922 -19.739  0.00  0.00    +0.037 C 
ATOM     32  C   UNL     1      31.801  -9.152 -19.982  0.00  0.00    +0.003 C 
ATOM     33  C   UNL     1      31.639 -11.156 -18.640  0.00  0.00    +0.003 C 
ATOM     34  C   UNL     1      31.526  -9.771 -18.761  0.00  0.00    +0.000 C 
ENDBRANCH  28  29
ENDBRANCH  27  28
ENDBRANCH  26  27
ENDBRANCH   3  26
TORSDOF 10
ENDMDL
MODEL 4
REMARK VINA RESULT:     -10.9      4.187     11.361
REMARK  Name = 4449
REMARK  10 active torsions:
REMARK  status: ('A' for Active; 'I' for Inactive)
REMARK    1  A    between atoms: N_2  and  C_9
REMARK    2  A    between atoms: N_3  and  C_26
REMARK    3  A    between atoms: C_6  and  C_7
REMARK    4  A    between atoms: C_9  and  C_10
REMARK    5  A    between atoms: C_10  and  C_11
REMARK    6  A    between atoms: C_11  and  N_12
REMARK    7  A    between atoms: N_13  and  C_20
REMARK    8  A    between atoms: C_26  and  C_27
REMARK    9  A    between atoms: C_27  and  O_28
REMARK   10  A    between atoms: O_28  and  C_29
REMARK                            x       y       z     vdW  Elec       q    Type
REMARK                         _______ _______ _______ _____ _____    ______ ____
ROOT
ATOM      1  O   UNL     1      34.215 -10.970 -25.393  0.00  0.00    -0.245 OA
ATOM      2  N   UNL     1      33.467 -12.846 -24.183  0.00  0.00    -0.201 N 
ATOM      3  N   UNL     1      33.643 -10.917 -23.122  0.00  0.00    -0.263 N 
ATOM      4  N   UNL     1      33.082 -13.067 -22.887  0.00  0.00    -0.152 NA
ATOM      5  C   UNL     1      33.827 -11.501 -24.363  0.00  0.00    +0.348 A 
ATOM      6  C   UNL     1      33.208 -11.907 -22.314  0.00  0.00    +0.144 A 
ENDROOT
BRANCH   6   7
ATOM      7  C   UNL     1      32.893 -11.658 -20.877  0.00  0.00    +0.066 C 
ATOM      8  C   UNL     1      32.312 -12.901 -20.237  0.00  0.00    +0.008 C 
ENDBRANCH   6   7
BRANCH   2   9
ATOM      9  C   UNL     1      33.470 -13.901 -25.159  0.00  0.00    +0.130 C 
BRANCH   9  10
ATOM     10  C   UNL     1      33.906 -15.241 -24.570  0.00  0.00    +0.004 C 
BRANCH  10  11
ATOM     11  C   UNL     1      35.358 -15.275 -24.083  0.00  0.00    -0.075 C 
BRANCH  11  12
ATOM     12  N   UNL     1      35.612 -16.413 -23.199  0.00  0.00    +0.389 N 
ATOM     13  N   UNL     1      34.972 -18.373 -21.223  0.00  0.00    -0.312 N 
ATOM     14  C   UNL     1      34.711 -17.525 -23.521  0.00  0.00    -0.055 C 
ATOM     15  C   UNL     1      35.441 -16.022 -21.794  0.00  0.00    -0.055 C 
ATOM     16  C   UNL     1      35.004 -18.743 -22.640  0.00  0.00    +0.068 C 
ATOM     17  C   UNL     1      35.759 -17.190 -20.857  0.00  0.00    +0.068 C 
ATOM     18  H   UNL     1      36.575 -16.717 -23.342  0.00  0.00    -0.080 HD
BRANCH  13  20
ATOM     19 CL   UNL     1      37.005 -21.345 -17.582  0.00  0.00    -0.082 Cl
ATOM     20  C   UNL     1      34.782 -19.362 -20.251  0.00  0.00    +0.049 C 
ATOM     21  C   UNL     1      35.862 -19.809 -19.491  0.00  0.00    +0.026 C 
ATOM     22  C   UNL     1      33.511 -19.896 -20.039  0.00  0.00    +0.015 C 
ATOM     23  C   UNL     1      35.672 -20.791 -18.520  0.00  0.00    +0.059 C 
ATOM     24  C   UNL     1      33.320 -20.878 -19.068  0.00  0.00    +0.002 C 
ATOM     25  C   UNL     1      34.401 -21.326 -18.307  0.00  0.00    +0.011 C 
ENDBRANCH  13  20
ENDBRANCH  11  12
ENDBRANCH  10  11
ENDBRANCH   9  10
ENDBRANCH   2   9
BRANCH   3  26
ATOM     26  C   UNL     1      33.880  -9.524 -22.793  0.00  0.00    +0.159 C 
BRANCH  26  27
ATOM     27  C   UNL     1      32.716  -8.646 -23.215  0.00  0.00    +0.230 C 
BRANCH  27  28
ATOM     28  O   UNL     1      31.800  -8.526 -22.135  0.00  0.00    -0.473 OA
BRANCH  28  29
ATOM     29  C   UNL     1      31.921  -7.414 -21.342  0.00  0.00    +0.139 C 
ATOM     30  C   UNL     1      32.479  -7.524 -20.069  0.00  0.00    +0.037 C 
ATOM     31  C   UNL     1      31.486  -6.175 -21.809  0.00  0.00    +0.037 C 
ATOM     32  C   UNL     1      32.603  -6.393 -19.262  0.00  0.00    +0.003 C 
ATOM     33  C   UNL     1      31.610  -5.043 -21.003  0.00  0.00    +0.003 C 
ATOM     34  C   UNL     1      32.168  -5.152 -19.729  0.00  0.00    +0.000 C 
ENDBRANCH  28  29
ENDBRANCH  27  28
ENDBRANCH  26  27
ENDBRANCH   3  26
TORSDOF 10
ENDMDL
MODEL 5
REMARK VINA RESULT:     -10.8      6.873     11.010
REMARK  Name = 4449
REMARK  10 active torsions:
REMARK  status: ('A' for Active; 'I' for Inactive)
REMARK    1  A    between atoms: N_2  and  C_9
REMARK    2  A    between atoms: N_3  and  C_26
REMARK    3  A    between atoms: C_6  and  C_7
REMARK    4  A    between atoms: C_9  and  C_10
REMARK    5  A    between atoms: C_10  and  C_11
REMARK    6  A    between atoms: C_11  and  N_12
REMARK    7  A    between atoms: N_13  and  C_20
REMARK    8  A    between atoms: C_26  and  C_27
REMARK    9  A    between atoms: C_27  and  O_28
REMARK   10  A    between atoms: O_28  and  C_29
REMARK                            x       y       z     vdW  Elec       q    Type
REMARK                         _______ _______ _______ _____ _____    ______ ____
ROOT
ATOM      1  O   UNL     1      35.315 -21.745 -14.715  0.00  0.00    -0.245 OA
ATOM      2  N   UNL     1      37.575 -22.407 -14.726  0.00  0.00    -0.201 N 
ATOM      3  N   UNL     1      36.305 -23.044 -13.036  0.00  0.00    -0.263 N 
ATOM      4  N   UNL     1      38.369 -23.144 -13.888  0.00  0.00    -0.152 NA
ATOM      5  C   UNL     1      36.270 -22.326 -14.217  0.00  0.00    +0.348 A 
ATOM      6  C   UNL     1      37.575 -23.488 -12.916  0.00  0.00    +0.144 A 
ENDROOT
BRANCH   6   7
ATOM      7  C   UNL     1      38.005 -24.316 -11.753  0.00  0.00    +0.066 C 
ATOM      8  C   UNL     1      37.830 -25.790 -12.056  0.00  0.00    +0.008 C 
ENDBRANCH   6   7
BRANCH   2   9
ATOM      9  C   UNL     1      38.088 -21.835 -15.941  0.00  0.00    +0.130 C 
BRANCH   9  10
ATOM     10  C   UNL     1      37.128 -20.822 -16.562  0.00  0.00    +0.004 C 
BRANCH  10  11
ATOM     11  C   UNL     1      36.483 -21.283 -17.873  0.00  0.00    -0.075 C 
BRANCH  11  12
ATOM     12  N   UNL     1      36.025 -20.155 -18.683  0.00  0.00    +0.389 N 
ATOM     13  N   UNL     1      35.401 -18.761 -21.096  0.00  0.00    -0.312 N 
ATOM     14  C   UNL     1      34.852 -20.536 -19.478  0.00  0.00    -0.055 C 
ATOM     15  C   UNL     1      37.098 -19.685 -19.567  0.00  0.00    -0.055 C 
ATOM     16  C   UNL     1      34.327 -19.347 -20.289  0.00  0.00    +0.068 C 
ATOM     17  C   UNL     1      36.648 -18.468 -20.379  0.00  0.00    +0.068 C 
ATOM     18  H   UNL     1      35.762 -19.397 -18.052  0.00  0.00    -0.080 HD
BRANCH  13  20
ATOM     19 CL   UNL     1      35.046 -14.088 -23.162  0.00  0.00    -0.082 Cl
ATOM     20  C   UNL     1      35.082 -17.973 -22.208  0.00  0.00    +0.049 C 
ATOM     21  C   UNL     1      35.207 -16.586 -22.138  0.00  0.00    +0.026 C 
ATOM     22  C   UNL     1      34.645 -18.576 -23.387  0.00  0.00    +0.015 C 
ATOM     23  C   UNL     1      34.894 -15.801 -23.248  0.00  0.00    +0.059 C 
ATOM     24  C   UNL     1      34.332 -17.791 -24.497  0.00  0.00    +0.002 C 
ATOM     25  C   UNL     1      34.457 -16.403 -24.428  0.00  0.00    +0.011 C 
ENDBRANCH  13  20
ENDBRANCH  11  12
ENDBRANCH  10  11
ENDBRANCH   9  10
ENDBRANCH   2   9
BRANCH   3  26
ATOM     26  C   UNL     1      35.190 -23.257 -12.134  0.00  0.00    +0.159 C 
BRANCH  26  27
ATOM     27  C   UNL     1      34.054 -23.998 -12.817  0.00  0.00    +0.230 C 
BRANCH  27  28
ATOM     28  O   UNL     1      32.817 -23.391 -12.467  0.00  0.00    -0.473 OA
BRANCH  28  29
ATOM     29  C   UNL     1      31.822 -23.430 -13.408  0.00  0.00    +0.139 C 
ATOM     30  C   UNL     1      30.806 -24.381 -13.310  0.00  0.00    +0.037 C 
ATOM     31  C   UNL     1      31.824 -22.520 -14.464  0.00  0.00    +0.037 C 
ATOM     32  C   UNL     1      29.793 -24.422 -14.267  0.00  0.00    +0.003 C 
ATOM     33  C   UNL     1      30.810 -22.559 -15.422  0.00  0.00    +0.003 C 
ATOM     34  C   UNL     1      29.795 -23.510 -15.324  0.00  0.00    +0.000 C 
ENDBRANCH  28  29
ENDBRANCH  27  28
ENDBRANCH  26  27
ENDBRANCH   3  26
TORSDOF 10
ENDMDL
MODEL 6
REMARK VINA RESULT:     -10.6      4.319     12.131
REMARK  Name = 4449
REMARK  10 active torsions:
REMARK  status: ('A' for Active; 'I' for Inactive)
REMARK    1  A    between atoms: N_2  and  C_9
REMARK    2  A    between atoms: N_3  and  C_26
REMARK    3  A    between atoms: C_6  and  C_7
REMARK    4  A    between atoms: C_9  and  C_10
REMARK    5  A    between atoms: C_10  and  C_11
REMARK    6  A    between atoms: C_11  and  N_12
REMARK    7  A    between atoms: N_13  and  C_20
REMARK    8  A    between atoms: C_26  and  C_27
REMARK    9  A    between atoms: C_27  and  O_28
REMARK   10  A    between atoms: O_28  and  C_29
REMARK                            x       y       z     vdW  Elec       q    Type
REMARK                         _______ _______ _______ _____ _____    ______ ____
ROOT
ATOM      1  O   UNL     1      32.204 -11.278 -21.397  0.00  0.00    -0.245 OA
ATOM      2  N   UNL     1      33.650 -11.812 -23.176  0.00  0.00    -0.201 N 
ATOM      3  N   UNL     1      33.444  -9.692 -22.594  0.00  0.00    -0.263 N 
ATOM      4  N   UNL     1      34.461 -11.090 -24.011  0.00  0.00    -0.152 NA
ATOM      5  C   UNL     1      32.995 -10.961 -22.273  0.00  0.00    +0.348 A 
ATOM      6  C   UNL     1      34.298  -9.858 -23.627  0.00  0.00    +0.144 A 
ENDROOT
BRANCH   6   7
ATOM      7  C   UNL     1      34.997  -8.699 -24.254  0.00  0.00    +0.066 C 
ATOM      8  C   UNL     1      35.963  -9.174 -25.319  0.00  0.00    +0.008 C 
ENDBRANCH   6   7
BRANCH   2   9
ATOM      9  C   UNL     1      33.545 -13.242 -23.279  0.00  0.00    +0.130 C 
BRANCH   9  10
ATOM     10  C   UNL     1      34.803 -13.957 -22.788  0.00  0.00    +0.004 C 
BRANCH  10  11
ATOM     11  C   UNL     1      35.227 -15.152 -23.648  0.00  0.00    -0.075 C 
BRANCH  11  12
ATOM     12  N   UNL     1      35.539 -16.327 -22.835  0.00  0.00    +0.389 N 
ATOM     13  N   UNL     1      35.008 -18.421 -20.967  0.00  0.00    -0.312 N 
ATOM     14  C   UNL     1      34.677 -17.455 -23.208  0.00  0.00    -0.055 C 
ATOM     15  C   UNL     1      35.377 -16.025 -21.408  0.00  0.00    -0.055 C 
ATOM     16  C   UNL     1      35.032 -18.708 -22.403  0.00  0.00    +0.068 C 
ATOM     17  C   UNL     1      35.755 -17.230 -20.544  0.00  0.00    +0.068 C 
ATOM     18  H   UNL     1      36.511 -16.585 -23.009  0.00  0.00    -0.080 HD
BRANCH  13  20
ATOM     19 CL   UNL     1      37.176 -21.407 -17.415  0.00  0.00    -0.082 Cl
ATOM     20  C   UNL     1      34.872 -19.471 -20.050  0.00  0.00    +0.049 C 
ATOM     21  C   UNL     1      35.965 -19.870 -19.281  0.00  0.00    +0.026 C 
ATOM     22  C   UNL     1      33.643 -20.113 -19.904  0.00  0.00    +0.015 C 
ATOM     23  C   UNL     1      35.828 -20.912 -18.365  0.00  0.00    +0.059 C 
ATOM     24  C   UNL     1      33.506 -21.156 -18.988  0.00  0.00    +0.002 C 
ATOM     25  C   UNL     1      34.599 -21.556 -18.218  0.00  0.00    +0.011 C 
ENDBRANCH  13  20
ENDBRANCH  11  12
ENDBRANCH  10  11
ENDBRANCH   9  10
ENDBRANCH   2   9
BRANCH   3  26
ATOM     26  C   UNL     1      33.055  -8.459 -21.937  0.00  0.00    +0.159 C 
BRANCH  26  27
ATOM     27  C   UNL     1      31.778  -7.891 -22.529  0.00  0.00    +0.230 C 
BRANCH  27  28
ATOM     28  O   UNL     1      31.518  -6.616 -21.954  0.00  0.00    -0.473 OA
BRANCH  28  29
ATOM     29  C   UNL     1      31.816  -5.520 -22.720  0.00  0.00    +0.139 C 
ATOM     30  C   UNL     1      31.959  -4.269 -22.121  0.00  0.00    +0.037 C 
ATOM     31  C   UNL     1      31.978  -5.656 -24.098  0.00  0.00    +0.037 C 
ATOM     32  C   UNL     1      32.263  -3.153 -22.901  0.00  0.00    +0.003 C 
ATOM     33  C   UNL     1      32.283  -4.540 -24.879  0.00  0.00    +0.003 C 
ATOM     34  C   UNL     1      32.425  -3.289 -24.280  0.00  0.00    +0.000 C 
ENDBRANCH  28  29
ENDBRANCH  27  28
ENDBRANCH  26  27
ENDBRANCH   3  26
TORSDOF 10
ENDMDL
MODEL 7
REMARK VINA RESULT:     -10.6      4.307     10.736
REMARK  Name = 4449
REMARK  10 active torsions:
REMARK  status: ('A' for Active; 'I' for Inactive)
REMARK    1  A    between atoms: N_2  and  C_9
REMARK    2  A    between atoms: N_3  and  C_26
REMARK    3  A    between atoms: C_6  and  C_7
REMARK    4  A    between atoms: C_9  and  C_10
REMARK    5  A    between atoms: C_10  and  C_11
REMARK    6  A    between atoms: C_11  and  N_12
REMARK    7  A    between atoms: N_13  and  C_20
REMARK    8  A    between atoms: C_26  and  C_27
REMARK    9  A    between atoms: C_27  and  O_28
REMARK   10  A    between atoms: O_28  and  C_29
REMARK                            x       y       z     vdW  Elec       q    Type
REMARK                         _______ _______ _______ _____ _____    ______ ____
ROOT
ATOM      1  O   UNL     1      33.155 -11.887 -22.087  0.00  0.00    -0.245 OA
ATOM      2  N   UNL     1      33.774 -12.275 -24.325  0.00  0.00    -0.201 N 
ATOM      3  N   UNL     1      33.972 -10.227 -23.523  0.00  0.00    -0.263 N 
ATOM      4  N   UNL     1      34.264 -11.497 -25.340  0.00  0.00    -0.152 NA
ATOM      5  C   UNL     1      33.579 -11.505 -23.168  0.00  0.00    +0.348 A 
ATOM      6  C   UNL     1      34.357 -10.310 -24.815  0.00  0.00    +0.144 A 
ENDROOT
BRANCH   6   7
ATOM      7  C   UNL     1      34.856  -9.116 -25.557  0.00  0.00    +0.066 C 
ATOM      8  C   UNL     1      36.371  -9.103 -25.586  0.00  0.00    +0.008 C 
ENDBRANCH   6   7
BRANCH   2   9
ATOM      9  C   UNL     1      33.525 -13.679 -24.506  0.00  0.00    +0.130 C 
BRANCH   9  10
ATOM     10  C   UNL     1      34.271 -14.541 -23.488  0.00  0.00    +0.004 C 
BRANCH  10  11
ATOM     11  C   UNL     1      35.242 -15.551 -24.107  0.00  0.00    -0.075 C 
BRANCH  11  12
ATOM     12  N   UNL     1      35.535 -16.657 -23.195  0.00  0.00    +0.389 N 
ATOM     13  N   UNL     1      34.975 -18.559 -21.139  0.00  0.00    -0.312 N 
ATOM     14  C   UNL     1      34.636 -17.788 -23.454  0.00  0.00    -0.055 C 
ATOM     15  C   UNL     1      35.403 -16.223 -21.799  0.00  0.00    -0.055 C 
ATOM     16  C   UNL     1      34.969 -18.974 -22.544  0.00  0.00    +0.068 C 
ATOM     17  C   UNL     1      35.762 -17.357 -20.835  0.00  0.00    +0.068 C 
ATOM     18  H   UNL     1      36.496 -16.957 -23.358  0.00  0.00    -0.080 HD
BRANCH  13  20
ATOM     19 CL   UNL     1      37.149 -21.391 -17.467  0.00  0.00    -0.082 Cl
ATOM     20  C   UNL     1      34.826 -19.518 -20.130  0.00  0.00    +0.049 C 
ATOM     21  C   UNL     1      35.933 -19.929 -19.390  0.00  0.00    +0.026 C 
ATOM     22  C   UNL     1      33.567 -20.057 -19.863  0.00  0.00    +0.015 C 
ATOM     23  C   UNL     1      35.783 -20.881 -18.382  0.00  0.00    +0.059 C 
ATOM     24  C   UNL     1      33.417 -21.009 -18.855  0.00  0.00    +0.002 C 
ATOM     25  C   UNL     1      34.525 -21.421 -18.114  0.00  0.00    +0.011 C 
ENDBRANCH  13  20
ENDBRANCH  11  12
ENDBRANCH  10  11
ENDBRANCH   9  10
ENDBRANCH   2   9
BRANCH   3  26
ATOM     26  C   UNL     1      33.960  -9.061 -22.661  0.00  0.00    +0.159 C 
BRANCH  26  27
ATOM     27  C   UNL     1      32.579  -8.434 -22.592  0.00  0.00    +0.230 C 
BRANCH  27  28
ATOM     28  O   UNL     1      32.360  -7.918 -21.285  0.00  0.00    -0.473 OA
BRANCH  28  29
ATOM     29  C   UNL     1      31.988  -8.818 -20.320  0.00  0.00    +0.139 C 
ATOM     30  C   UNL     1      32.465  -8.679 -19.016  0.00  0.00    +0.037 C 
ATOM     31  C   UNL     1      31.133  -9.870 -20.641  0.00  0.00    +0.037 C 
ATOM     32  C   UNL     1      32.087  -9.593 -18.034  0.00  0.00    +0.003 C 
ATOM     33  C   UNL     1      30.753 -10.785 -19.658  0.00  0.00    +0.003 C 
ATOM     34  C   UNL     1      31.230 -10.647 -18.355  0.00  0.00    +0.000 C 
ENDBRANCH  28  29
ENDBRANCH  27  28
ENDBRANCH  26  27
ENDBRANCH   3  26
TORSDOF 10
ENDMDL
MODEL 8
REMARK VINA RESULT:     -10.6      5.220     12.154
REMARK  Name = 4449
REMARK  10 active torsions:
REMARK  status: ('A' for Active; 'I' for Inactive)
REMARK    1  A    between atoms: N_2  and  C_9
REMARK    2  A    between atoms: N_3  and  C_26
REMARK    3  A    between atoms: C_6  and  C_7
REMARK    4  A    between atoms: C_9  and  C_10
REMARK    5  A    between atoms: C_10  and  C_11
REMARK    6  A    between atoms: C_11  and  N_12
REMARK    7  A    between atoms: N_13  and  C_20
REMARK    8  A    between atoms: C_26  and  C_27
REMARK    9  A    between atoms: C_27  and  O_28
REMARK   10  A    between atoms: O_28  and  C_29
REMARK                            x       y       z     vdW  Elec       q    Type
REMARK                         _______ _______ _______ _____ _____    ______ ____
ROOT
ATOM      1  O   UNL     1      33.770 -16.197 -25.446  0.00  0.00    -0.245 OA
ATOM      2  N   UNL     1      34.954 -16.312 -23.414  0.00  0.00    -0.201 N 
ATOM      3  N   UNL     1      33.988 -14.402 -23.958  0.00  0.00    -0.263 N 
ATOM      4  N   UNL     1      35.220 -15.429 -22.401  0.00  0.00    -0.152 NA
ATOM      5  C   UNL     1      34.181 -15.695 -24.410  0.00  0.00    +0.348 A 
ATOM      6  C   UNL     1      34.634 -14.329 -22.774  0.00  0.00    +0.144 A 
ENDROOT
BRANCH   6   7
ATOM      7  C   UNL     1      34.649 -13.073 -21.970  0.00  0.00    +0.066 C 
ATOM      8  C   UNL     1      33.545 -13.092 -20.932  0.00  0.00    +0.008 C 
ENDBRANCH   6   7
BRANCH   2   9
ATOM      9  C   UNL     1      35.438 -17.665 -23.380  0.00  0.00    +0.130 C 
BRANCH   9  10
ATOM     10  C   UNL     1      35.685 -18.162 -21.957  0.00  0.00    +0.004 C 
BRANCH  10  11
ATOM     11  C   UNL     1      34.516 -18.943 -21.348  0.00  0.00    -0.075 C 
BRANCH  11  12
ATOM     12  N   UNL     1      34.973 -19.967 -20.409  0.00  0.00    +0.389 N 
ATOM     13  N   UNL     1      35.640 -21.049 -17.851  0.00  0.00    -0.312 N 
ATOM     14  C   UNL     1      33.919 -20.283 -19.438  0.00  0.00    -0.055 C 
ATOM     15  C   UNL     1      36.182 -19.520 -19.707  0.00  0.00    -0.055 C 
ATOM     16  C   UNL     1      34.364 -21.394 -18.484  0.00  0.00    +0.068 C 
ATOM     17  C   UNL     1      36.703 -20.607 -18.763  0.00  0.00    +0.068 C 
ATOM     18  H   UNL     1      35.193 -20.810 -20.941  0.00  0.00    -0.080 HD
BRANCH  13  20
ATOM     19 CL   UNL     1      34.289 -23.899 -13.816  0.00  0.00    -0.082 Cl
ATOM     20  C   UNL     1      36.017 -21.678 -16.659  0.00  0.00    +0.049 C 
ATOM     21  C   UNL     1      35.075 -22.390 -15.918  0.00  0.00    +0.026 C 
ATOM     22  C   UNL     1      37.338 -21.598 -16.217  0.00  0.00    +0.015 C 
ATOM     23  C   UNL     1      35.452 -23.021 -14.733  0.00  0.00    +0.059 C 
ATOM     24  C   UNL     1      37.715 -22.228 -15.031  0.00  0.00    +0.002 C 
ATOM     25  C   UNL     1      36.772 -22.941 -14.289  0.00  0.00    +0.011 C 
ENDBRANCH  13  20
ENDBRANCH  11  12
ENDBRANCH  10  11
ENDBRANCH   9  10
ENDBRANCH   2   9
BRANCH   3  26
ATOM     26  C   UNL     1      33.242 -13.363 -24.641  0.00  0.00    +0.159 C 
BRANCH  26  27
ATOM     27  C   UNL     1      34.066 -12.714 -25.738  0.00  0.00    +0.230 C 
BRANCH  27  28
ATOM     28  O   UNL     1      33.631 -11.373 -25.924  0.00  0.00    -0.473 OA
BRANCH  28  29
ATOM     29  C   UNL     1      34.329 -10.399 -25.258  0.00  0.00    +0.139 C 
ATOM     30  C   UNL     1      33.893  -9.962 -24.007  0.00  0.00    +0.037 C 
ATOM     31  C   UNL     1      35.473  -9.846 -25.829  0.00  0.00    +0.037 C 
ATOM     32  C   UNL     1      34.602  -8.972 -23.328  0.00  0.00    +0.003 C 
ATOM     33  C   UNL     1      36.184  -8.856 -25.151  0.00  0.00    +0.003 C 
ATOM     34  C   UNL     1      35.748  -8.418 -23.900  0.00  0.00    +0.000 C 
ENDBRANCH  28  29
ENDBRANCH  27  28
ENDBRANCH  26  27
ENDBRANCH   3  26
TORSDOF 10
ENDMDL
MODEL 9
REMARK VINA RESULT:     -10.6      4.146     11.858
REMARK  Name = 4449
REMARK  10 active torsions:
REMARK  status: ('A' for Active; 'I' for Inactive)
REMARK    1  A    between atoms: N_2  and  C_9
REMARK    2  A    between atoms: N_3  and  C_26
REMARK    3  A    between atoms: C_6  and  C_7
REMARK    4  A    between atoms: C_9  and  C_10
REMARK    5  A    between atoms: C_10  and  C_11
REMARK    6  A    between atoms: C_11  and  N_12
REMARK    7  A    between atoms: N_13  and  C_20
REMARK    8  A    between atoms: C_26  and  C_27
REMARK    9  A    between atoms: C_27  and  O_28
REMARK   10  A    between atoms: O_28  and  C_29
REMARK                            x       y       z     vdW  Elec       q    Type
REMARK                         _______ _______ _______ _____ _____    ______ ____
ROOT
ATOM      1  O   UNL     1      33.603  -9.764 -23.549  0.00  0.00    -0.245 OA
ATOM      2  N   UNL     1      33.482 -11.865 -22.494  0.00  0.00    -0.201 N 
ATOM      3  N   UNL     1      32.278 -10.208 -21.668  0.00  0.00    -0.263 N 
ATOM      4  N   UNL     1      32.803 -12.365 -21.414  0.00  0.00    -0.152 NA
ATOM      5  C   UNL     1      33.173 -10.509 -22.680  0.00  0.00    +0.348 A 
ATOM      6  C   UNL     1      32.119 -11.352 -20.969  0.00  0.00    +0.144 A 
ENDROOT
BRANCH   6   7
ATOM      7  C   UNL     1      31.213 -11.423 -19.787  0.00  0.00    +0.066 C 
ATOM      8  C   UNL     1      31.942 -10.995 -18.531  0.00  0.00    +0.008 C 
ENDBRANCH   6   7
BRANCH   2   9
ATOM      9  C   UNL     1      34.366 -12.687 -23.274  0.00  0.00    +0.130 C 
BRANCH   9  10
ATOM     10  C   UNL     1      34.121 -14.179 -23.057  0.00  0.00    +0.004 C 
BRANCH  10  11
ATOM     11  C   UNL     1      35.124 -15.094 -23.767  0.00  0.00    -0.075 C 
BRANCH  11  12
ATOM     12  N   UNL     1      35.448 -16.275 -22.967  0.00  0.00    +0.389 N 
ATOM     13  N   UNL     1      34.951 -18.371 -21.093  0.00  0.00    -0.312 N 
ATOM     14  C   UNL     1      34.569 -17.394 -23.321  0.00  0.00    -0.055 C 
ATOM     15  C   UNL     1      35.325 -15.976 -21.535  0.00  0.00    -0.055 C 
ATOM     16  C   UNL     1      34.935 -18.654 -22.530  0.00  0.00    +0.068 C 
ATOM     17  C   UNL     1      35.717 -17.188 -20.685  0.00  0.00    +0.068 C 
ATOM     18  H   UNL     1      36.413 -16.538 -23.167  0.00  0.00    -0.080 HD
BRANCH  13  20
ATOM     19 CL   UNL     1      37.172 -21.341 -17.561  0.00  0.00    -0.082 Cl
ATOM     20  C   UNL     1      34.832 -19.424 -20.177  0.00  0.00    +0.049 C 
ATOM     21  C   UNL     1      35.933 -19.813 -19.416  0.00  0.00    +0.026 C 
ATOM     22  C   UNL     1      33.609 -20.078 -20.023  0.00  0.00    +0.015 C 
ATOM     23  C   UNL     1      35.813 -20.858 -18.500  0.00  0.00    +0.059 C 
ATOM     24  C   UNL     1      33.489 -21.123 -19.107  0.00  0.00    +0.002 C 
ATOM     25  C   UNL     1      34.591 -21.514 -18.345  0.00  0.00    +0.011 C 
ENDBRANCH  13  20
ENDBRANCH  11  12
ENDBRANCH  10  11
ENDBRANCH   9  10
ENDBRANCH   2   9
BRANCH   3  26
ATOM     26  C   UNL     1      31.659  -8.917 -21.435  0.00  0.00    +0.159 C 
BRANCH  26  27
ATOM     27  C   UNL     1      32.481  -8.069 -20.482  0.00  0.00    +0.230 C 
BRANCH  27  28
ATOM     28  O   UNL     1      33.427  -7.309 -21.222  0.00  0.00    -0.473 OA
BRANCH  28  29
ATOM     29  C   UNL     1      32.940  -6.255 -21.949  0.00  0.00    +0.139 C 
ATOM     30  C   UNL     1      32.428  -5.134 -21.295  0.00  0.00    +0.037 C 
ATOM     31  C   UNL     1      32.957  -6.301 -23.342  0.00  0.00    +0.037 C 
ATOM     32  C   UNL     1      31.933  -4.060 -22.035  0.00  0.00    +0.003 C 
ATOM     33  C   UNL     1      32.462  -5.227 -24.083  0.00  0.00    +0.003 C 
ATOM     34  C   UNL     1      31.950  -4.107 -23.429  0.00  0.00    +0.000 C 
ENDBRANCH  28  29
ENDBRANCH  27  28
ENDBRANCH  26  27
ENDBRANCH   3  26
TORSDOF 10
ENDMDL
