MODEL 1
REMARK VINA RESULT:     -11.3      0.000      0.000
REMARK  Name = 9963057
REMARK  12 active torsions:
REMARK  status: ('A' for Active; 'I' for Inactive)
REMARK    1  A    between atoms: N_1  and  C_4
REMARK    2  A    between atoms: N_1  and  C_21
REMARK    3  A    between atoms: C_12  and  O_14
REMARK    4  A    between atoms: O_14  and  C_15
REMARK    5  A    between atoms: C_15  and  C_18
REMARK    6  A    between atoms: C_21  and  C_22
REMARK    7  A    between atoms: C_22  and  C_23
REMARK    8  A    between atoms: C_22  and  O_35
REMARK    9  A    between atoms: C_26  and  C_31
REMARK   10  A    between atoms: C_28  and  O_29
REMARK   11  A    between atoms: C_31  and  C_32
REMARK   12  A    between atoms: C_32  and  O_33
REMARK                            x       y       z     vdW  Elec       q    Type
REMARK                         _______ _______ _______ _____ _____    ______ ____
ROOT
ATOM      1  N   UNL     1      35.849 -20.509 -19.659  0.00  0.00    +0.387 N 
ATOM      2  H   UNL     1      36.006 -21.334 -20.238  0.00  0.00    -0.084 HD
ATOM      3  H   UNL     1      36.738 -20.063 -19.427  0.00  0.00    -0.084 HD
ENDROOT
BRANCH   1   4
ATOM      4  C   UNL     1      35.189 -20.912 -18.418  0.00  0.00    -0.057 C 
ATOM      5  C   UNL     1      34.269 -22.106 -18.676  0.00  0.00    -0.016 C 
ATOM      6  C   UNL     1      36.230 -21.274 -17.351  0.00  0.00    +0.005 C 
ATOM      7  C   UNL     1      33.490 -22.461 -17.410  0.00  0.00    +0.024 C 
ATOM      8  C   UNL     1      35.626 -21.931 -16.134  0.00  0.00    -0.025 C 
ATOM      9  C   UNL     1      34.352 -22.526 -16.174  0.00  0.00    -0.026 C 
ATOM     10  C   UNL     1      36.381 -22.000 -14.952  0.00  0.00    +0.032 C 
ATOM     11  C   UNL     1      33.844 -23.146 -15.023  0.00  0.00    -0.001 C 
ATOM     12  C   UNL     1      35.869 -22.628 -13.817  0.00  0.00    +0.139 C 
ATOM     13  C   UNL     1      34.599 -23.199 -13.852  0.00  0.00    +0.037 C 
BRANCH  12  14
ATOM     14  O   UNL     1      36.609 -22.684 -12.677  0.00  0.00    -0.466 OA
BRANCH  14  15
ATOM     15  C   UNL     1      37.053 -23.971 -12.252  0.00  0.00    +0.290 C 
BRANCH  15  18
ATOM     16  O   UNL     1      39.312 -23.362 -11.878  0.00  0.00    -0.271 OA
ATOM     17  N   UNL     1      38.960 -25.071 -13.411  0.00  0.00    -0.273 N 
ATOM     18  C   UNL     1      38.542 -24.103 -12.497  0.00  0.00    +0.270 C 
ATOM     19  C   UNL     1      40.383 -25.242 -13.672  0.00  0.00    +0.115 C 
ATOM     20  C   UNL     1      38.081 -25.974 -14.149  0.00  0.00    +0.115 C 
ENDBRANCH  15  18
ENDBRANCH  14  15
ENDBRANCH  12  14
ENDBRANCH   1   4
BRANCH   1  21
ATOM     21  C   UNL     1      35.028 -19.559 -20.394  0.00  0.00    -0.047 C 
BRANCH  21  22
ATOM     22  C   UNL     1      35.886 -18.421 -20.961  0.00  0.00    +0.112 C 
BRANCH  22  23
ATOM     23  C   UNL     1      35.279 -17.845 -22.222  0.00  0.00    +0.002 C 
ATOM     24  C   UNL     1      35.309 -16.469 -22.444  0.00  0.00    -0.003 C 
ATOM     25  C   UNL     1      34.689 -18.691 -23.162  0.00  0.00    +0.001 C 
ATOM     26  C   UNL     1      34.749 -15.938 -23.606  0.00  0.00    +0.014 C 
ATOM     27  C   UNL     1      34.128 -18.160 -24.323  0.00  0.00    +0.036 C 
ATOM     28  C   UNL     1      34.158 -16.783 -24.545  0.00  0.00    +0.130 C 
BRANCH  28  29
ATOM     29  O   UNL     1      33.608 -16.281 -25.685  0.00  0.00    -0.506 OA
ATOM     30  H   UNL     1      32.786 -16.610 -25.995  0.00  0.00    +0.292 HD
ENDBRANCH  28  29
BRANCH  26  31
ATOM     31  C   UNL     1      34.790 -14.462 -23.828  0.00  0.00    +0.061 C 
BRANCH  31  32
ATOM     32  C   UNL     1      33.401 -13.817 -23.804  0.00  0.00    +0.142 C 
BRANCH  32  33
ATOM     33  O   UNL     1      32.976 -13.551 -25.134  0.00  0.00    -0.382 OA
ATOM     34  H   UNL     1      33.752 -13.482 -25.714  0.00  0.00    +0.210 HD
ENDBRANCH  32  33
ENDBRANCH  31  32
ENDBRANCH  26  31
ENDBRANCH  22  23
BRANCH  22  35
ATOM     35  O   UNL     1      36.010 -17.370 -20.005  0.00  0.00    -0.382 OA
ATOM     36  H   UNL     1      36.945 -17.253 -19.773  0.00  0.00    +0.211 HD
ENDBRANCH  22  35
ENDBRANCH  21  22
ENDBRANCH   1  21
TORSDOF 12
ENDMDL
MODEL 2
REMARK VINA RESULT:     -11.2      3.693     11.061
REMARK  Name = 9963057
REMARK  12 active torsions:
REMARK  status: ('A' for Active; 'I' for Inactive)
REMARK    1  A    between atoms: N_1  and  C_4
REMARK    2  A    between atoms: N_1  and  C_21
REMARK    3  A    between atoms: C_12  and  O_14
REMARK    4  A    between atoms: O_14  and  C_15
REMARK    5  A    between atoms: C_15  and  C_18
REMARK    6  A    between atoms: C_21  and  C_22
REMARK    7  A    between atoms: C_22  and  C_23
REMARK    8  A    between atoms: C_22  and  O_35
REMARK    9  A    between atoms: C_26  and  C_31
REMARK   10  A    between atoms: C_28  and  O_29
REMARK   11  A    between atoms: C_31  and  C_32
REMARK   12  A    between atoms: C_32  and  O_33
REMARK                            x       y       z     vdW  Elec       q    Type
REMARK                         _______ _______ _______ _____ _____    ______ ____
ROOT
ATOM      1  N   UNL     1      33.040 -21.918 -17.972  0.00  0.00    +0.387 N 
ATOM      2  H   UNL     1      32.743 -22.464 -18.781  0.00  0.00    -0.084 HD
ATOM      3  H   UNL     1      32.237 -21.462 -17.538  0.00  0.00    -0.084 HD
ENDROOT
BRANCH   1   4
ATOM      4  C   UNL     1      33.984 -20.890 -18.408  0.00  0.00    -0.057 C 
ATOM      5  C   UNL     1      35.410 -21.444 -18.390  0.00  0.00    -0.016 C 
ATOM      6  C   UNL     1      33.630 -20.401 -19.818  0.00  0.00    +0.005 C 
ATOM      7  C   UNL     1      36.413 -20.343 -18.735  0.00  0.00    +0.024 C 
ATOM      8  C   UNL     1      34.698 -19.524 -20.426  0.00  0.00    -0.025 C 
ATOM      9  C   UNL     1      36.018 -19.528 -19.941  0.00  0.00    -0.026 C 
ATOM     10  C   UNL     1      34.376 -18.731 -21.538  0.00  0.00    +0.032 C 
ATOM     11  C   UNL     1      36.981 -18.713 -20.555  0.00  0.00    -0.001 C 
ATOM     12  C   UNL     1      35.344 -17.933 -22.147  0.00  0.00    +0.139 C 
ATOM     13  C   UNL     1      36.646 -17.923 -21.653  0.00  0.00    +0.037 C 
BRANCH  12  14
ATOM     14  O   UNL     1      35.018 -17.166 -23.222  0.00  0.00    -0.466 OA
BRANCH  14  15
ATOM     15  C   UNL     1      35.256 -15.764 -23.117  0.00  0.00    +0.290 C 
BRANCH  15  18
ATOM     16  O   UNL     1      34.656 -15.606 -25.404  0.00  0.00    -0.271 OA
ATOM     17  N   UNL     1      34.065 -13.799 -24.070  0.00  0.00    -0.273 N 
ATOM     18  C   UNL     1      34.636 -15.051 -24.301  0.00  0.00    +0.270 C 
ATOM     19  C   UNL     1      33.448 -13.078 -25.176  0.00  0.00    +0.115 C 
ATOM     20  C   UNL     1      34.010 -13.118 -22.779  0.00  0.00    +0.115 C 
ENDBRANCH  15  18
ENDBRANCH  14  15
ENDBRANCH  12  14
ENDBRANCH   1   4
BRANCH   1  21
ATOM     21  C   UNL     1      33.657 -22.805 -16.998  0.00  0.00    -0.047 C 
BRANCH  21  22
ATOM     22  C   UNL     1      33.306 -22.373 -15.569  0.00  0.00    +0.112 C 
BRANCH  22  23
ATOM     23  C   UNL     1      32.058 -23.069 -15.071  0.00  0.00    +0.002 C 
ATOM     24  C   UNL     1      30.835 -22.842 -15.702  0.00  0.00    -0.003 C 
ATOM     25  C   UNL     1      32.130 -23.936 -13.981  0.00  0.00    +0.001 C 
ATOM     26  C   UNL     1      29.684 -23.483 -15.243  0.00  0.00    +0.014 C 
ATOM     27  C   UNL     1      30.979 -24.576 -13.521  0.00  0.00    +0.036 C 
ATOM     28  C   UNL     1      29.757 -24.349 -14.152  0.00  0.00    +0.130 C 
BRANCH  28  29
ATOM     29  O   UNL     1      28.642 -24.983 -13.692  0.00  0.00    -0.506 OA
ATOM     30  H   UNL     1      27.924 -24.484 -13.355  0.00  0.00    +0.292 HD
ENDBRANCH  28  29
BRANCH  26  31
ATOM     31  C   UNL     1      28.383 -23.229 -15.931  0.00  0.00    +0.061 C 
BRANCH  31  32
ATOM     32  C   UNL     1      27.645 -22.008 -15.376  0.00  0.00    +0.142 C 
BRANCH  32  33
ATOM     33  O   UNL     1      27.452 -21.056 -16.415  0.00  0.00    -0.382 OA
ATOM     34  H   UNL     1      27.368 -20.169 -16.030  0.00  0.00    +0.210 HD
ENDBRANCH  32  33
ENDBRANCH  31  32
ENDBRANCH  26  31
ENDBRANCH  22  23
BRANCH  22  35
ATOM     35  O   UNL     1      34.377 -22.687 -14.679  0.00  0.00    -0.382 OA
ATOM     36  H   UNL     1      34.921 -21.897 -14.538  0.00  0.00    +0.211 HD
ENDBRANCH  22  35
ENDBRANCH  21  22
ENDBRANCH   1  21
TORSDOF 12
ENDMDL
MODEL 3
REMARK VINA RESULT:     -11.0      2.093     11.363
REMARK  Name = 9963057
REMARK  12 active torsions:
REMARK  status: ('A' for Active; 'I' for Inactive)
REMARK    1  A    between atoms: N_1  and  C_4
REMARK    2  A    between atoms: N_1  and  C_21
REMARK    3  A    between atoms: C_12  and  O_14
REMARK    4  A    between atoms: O_14  and  C_15
REMARK    5  A    between atoms: C_15  and  C_18
REMARK    6  A    between atoms: C_21  and  C_22
REMARK    7  A    between atoms: C_22  and  C_23
REMARK    8  A    between atoms: C_22  and  O_35
REMARK    9  A    between atoms: C_26  and  C_31
REMARK   10  A    between atoms: C_28  and  O_29
REMARK   11  A    between atoms: C_31  and  C_32
REMARK   12  A    between atoms: C_32  and  O_33
REMARK                            x       y       z     vdW  Elec       q    Type
REMARK                         _______ _______ _______ _____ _____    ______ ____
ROOT
ATOM      1  N   UNL     1      33.872 -22.747 -16.447  0.00  0.00    +0.387 N 
ATOM      2  H   UNL     1      34.259 -23.624 -16.796  0.00  0.00    -0.084 HD
ATOM      3  H   UNL     1      32.876 -22.689 -16.660  0.00  0.00    -0.084 HD
ENDROOT
BRANCH   1   4
ATOM      4  C   UNL     1      34.556 -21.629 -17.098  0.00  0.00    -0.057 C 
ATOM      5  C   UNL     1      36.051 -21.927 -17.220  0.00  0.00    -0.016 C 
ATOM      6  C   UNL     1      33.958 -21.372 -18.487  0.00  0.00    +0.005 C 
ATOM      7  C   UNL     1      36.789 -20.718 -17.795  0.00  0.00    +0.024 C 
ATOM      8  C   UNL     1      34.770 -20.401 -19.310  0.00  0.00    -0.025 C 
ATOM      9  C   UNL     1      36.116 -20.126 -19.007  0.00  0.00    -0.026 C 
ATOM     10  C   UNL     1      34.183 -19.807 -20.438  0.00  0.00    +0.032 C 
ATOM     11  C   UNL     1      36.836 -19.235 -19.817  0.00  0.00    -0.001 C 
ATOM     12  C   UNL     1      34.913 -18.930 -21.241  0.00  0.00    +0.139 C 
ATOM     13  C   UNL     1      36.238 -18.643 -20.928  0.00  0.00    +0.037 C 
BRANCH  12  14
ATOM     14  O   UNL     1      34.330 -18.358 -22.329  0.00  0.00    -0.466 OA
BRANCH  14  15
ATOM     15  C   UNL     1      35.198 -17.842 -23.336  0.00  0.00    +0.290 C 
BRANCH  15  18
ATOM     16  O   UNL     1      33.805 -17.368 -25.193  0.00  0.00    -0.271 OA
ATOM     17  N   UNL     1      34.466 -15.539 -23.924  0.00  0.00    -0.273 N 
ATOM     18  C   UNL     1      34.430 -16.898 -24.237  0.00  0.00    +0.270 C 
ATOM     19  C   UNL     1      33.735 -14.592 -24.757  0.00  0.00    +0.115 C 
ATOM     20  C   UNL     1      35.180 -14.948 -22.795  0.00  0.00    +0.115 C 
ENDBRANCH  15  18
ENDBRANCH  14  15
ENDBRANCH  12  14
ENDBRANCH   1   4
BRANCH   1  21
ATOM     21  C   UNL     1      34.046 -22.688 -15.004  0.00  0.00    -0.047 C 
BRANCH  21  22
ATOM     22  C   UNL     1      34.602 -24.012 -14.468  0.00  0.00    +0.112 C 
BRANCH  22  23
ATOM     23  C   UNL     1      35.845 -23.794 -13.633  0.00  0.00    +0.002 C 
ATOM     24  C   UNL     1      36.992 -24.549 -13.880  0.00  0.00    -0.003 C 
ATOM     25  C   UNL     1      35.845 -22.838 -12.617  0.00  0.00    +0.001 C 
ATOM     26  C   UNL     1      38.138 -24.347 -13.111  0.00  0.00    +0.014 C 
ATOM     27  C   UNL     1      36.990 -22.637 -11.847  0.00  0.00    +0.036 C 
ATOM     28  C   UNL     1      38.136 -23.392 -12.094  0.00  0.00    +0.130 C 
BRANCH  28  29
ATOM     29  O   UNL     1      39.248 -23.183 -11.334  0.00  0.00    -0.506 OA
ATOM     30  H   UNL     1      39.996 -22.756 -11.705  0.00  0.00    +0.292 HD
ENDBRANCH  28  29
BRANCH  26  31
ATOM     31  C   UNL     1      39.357 -25.163 -13.388  0.00  0.00    +0.061 C 
BRANCH  31  32
ATOM     32  C   UNL     1      40.324 -24.478 -14.357  0.00  0.00    +0.142 C 
BRANCH  32  33
ATOM     33  O   UNL     1      40.579 -25.337 -15.462  0.00  0.00    -0.382 OA
ATOM     34  H   UNL     1      40.921 -24.814 -16.205  0.00  0.00    +0.210 HD
ENDBRANCH  32  33
ENDBRANCH  31  32
ENDBRANCH  26  31
ENDBRANCH  22  23
BRANCH  22  35
ATOM     35  O   UNL     1      33.628 -24.666 -13.655  0.00  0.00    -0.382 OA
ATOM     36  H   UNL     1      33.829 -25.613 -13.610  0.00  0.00    +0.211 HD
ENDBRANCH  22  35
ENDBRANCH  21  22
ENDBRANCH   1  21
TORSDOF 12
ENDMDL
MODEL 4
REMARK VINA RESULT:     -10.9      1.567      2.714
REMARK  Name = 9963057
REMARK  12 active torsions:
REMARK  status: ('A' for Active; 'I' for Inactive)
REMARK    1  A    between atoms: N_1  and  C_4
REMARK    2  A    between atoms: N_1  and  C_21
REMARK    3  A    between atoms: C_12  and  O_14
REMARK    4  A    between atoms: O_14  and  C_15
REMARK    5  A    between atoms: C_15  and  C_18
REMARK    6  A    between atoms: C_21  and  C_22
REMARK    7  A    between atoms: C_22  and  C_23
REMARK    8  A    between atoms: C_22  and  O_35
REMARK    9  A    between atoms: C_26  and  C_31
REMARK   10  A    between atoms: C_28  and  O_29
REMARK   11  A    between atoms: C_31  and  C_32
REMARK   12  A    between atoms: C_32  and  O_33
REMARK                            x       y       z     vdW  Elec       q    Type
REMARK                         _______ _______ _______ _____ _____    ______ ____
ROOT
ATOM      1  N   UNL     1      36.748 -18.452 -20.986  0.00  0.00    +0.387 N 
ATOM      2  H   UNL     1      37.296 -19.211 -21.391  0.00  0.00    -0.084 HD
ATOM      3  H   UNL     1      37.357 -17.802 -20.487  0.00  0.00    -0.084 HD
ENDROOT
BRANCH   1   4
ATOM      4  C   UNL     1      35.783 -19.009 -20.039  0.00  0.00    -0.057 C 
ATOM      5  C   UNL     1      34.582 -19.585 -20.791  0.00  0.00    -0.016 C 
ATOM      6  C   UNL     1      36.440 -20.102 -19.186  0.00  0.00    +0.005 C 
ATOM      7  C   UNL     1      33.518 -20.066 -19.804  0.00  0.00    +0.024 C 
ATOM      8  C   UNL     1      35.447 -20.887 -18.363  0.00  0.00    -0.025 C 
ATOM      9  C   UNL     1      34.076 -20.902 -18.680  0.00  0.00    -0.026 C 
ATOM     10  C   UNL     1      35.914 -21.666 -17.293  0.00  0.00    +0.032 C 
ATOM     11  C   UNL     1      33.197 -21.667 -17.900  0.00  0.00    -0.001 C 
ATOM     12  C   UNL     1      35.031 -22.430 -16.531  0.00  0.00    +0.139 C 
ATOM     13  C   UNL     1      33.672 -22.428 -16.833  0.00  0.00    +0.037 C 
BRANCH  12  14
ATOM     14  O   UNL     1      35.497 -23.177 -15.493  0.00  0.00    -0.466 OA
BRANCH  14  15
ATOM     15  C   UNL     1      36.059 -22.474 -14.387  0.00  0.00    +0.290 C 
BRANCH  15  18
ATOM     16  O   UNL     1      38.378 -22.646 -14.838  0.00  0.00    -0.271 OA
ATOM     17  N   UNL     1      37.606 -23.852 -13.011  0.00  0.00    -0.273 N 
ATOM     18  C   UNL     1      37.451 -22.998 -14.103  0.00  0.00    +0.270 C 
ATOM     19  C   UNL     1      38.928 -24.376 -12.692  0.00  0.00    +0.115 C 
ATOM     20  C   UNL     1      36.537 -24.280 -12.112  0.00  0.00    +0.115 C 
ENDBRANCH  15  18
ENDBRANCH  14  15
ENDBRANCH  12  14
ENDBRANCH   1   4
BRANCH   1  21
ATOM     21  C   UNL     1      36.068 -17.732 -22.051  0.00  0.00    -0.047 C 
BRANCH  21  22
ATOM     22  C   UNL     1      35.957 -16.240 -21.717  0.00  0.00    +0.112 C 
BRANCH  22  23
ATOM     23  C   UNL     1      35.120 -15.503 -22.740  0.00  0.00    +0.002 C 
ATOM     24  C   UNL     1      34.664 -14.214 -22.469  0.00  0.00    -0.003 C 
ATOM     25  C   UNL     1      34.805 -16.114 -23.954  0.00  0.00    +0.001 C 
ATOM     26  C   UNL     1      33.893 -13.535 -23.413  0.00  0.00    +0.014 C 
ATOM     27  C   UNL     1      34.033 -15.436 -24.897  0.00  0.00    +0.036 C 
ATOM     28  C   UNL     1      33.577 -14.146 -24.626  0.00  0.00    +0.130 C 
BRANCH  28  29
ATOM     29  O   UNL     1      32.825 -13.497 -25.558  0.00  0.00    -0.506 OA
ATOM     30  H   UNL     1      32.414 -12.682 -25.344  0.00  0.00    +0.292 HD
ENDBRANCH  28  29
BRANCH  26  31
ATOM     31  C   UNL     1      33.413 -12.154 -23.107  0.00  0.00    +0.061 C 
BRANCH  31  32
ATOM     32  C   UNL     1      34.372 -11.067 -23.599  0.00  0.00    +0.142 C 
BRANCH  32  33
ATOM     33  O   UNL     1      34.138 -10.813 -24.978  0.00  0.00    -0.382 OA
ATOM     34  H   UNL     1      33.370 -10.227 -25.073  0.00  0.00    +0.210 HD
ENDBRANCH  32  33
ENDBRANCH  31  32
ENDBRANCH  26  31
ENDBRANCH  22  23
BRANCH  22  35
ATOM     35  O   UNL     1      35.354 -16.062 -20.436  0.00  0.00    -0.382 OA
ATOM     36  H   UNL     1      34.513 -16.544 -20.406  0.00  0.00    +0.211 HD
ENDBRANCH  22  35
ENDBRANCH  21  22
ENDBRANCH   1  21
TORSDOF 12
ENDMDL
MODEL 5
REMARK VINA RESULT:     -10.8      2.211     11.004
REMARK  Name = 9963057
REMARK  12 active torsions:
REMARK  status: ('A' for Active; 'I' for Inactive)
REMARK    1  A    between atoms: N_1  and  C_4
REMARK    2  A    between atoms: N_1  and  C_21
REMARK    3  A    between atoms: C_12  and  O_14
REMARK    4  A    between atoms: O_14  and  C_15
REMARK    5  A    between atoms: C_15  and  C_18
REMARK    6  A    between atoms: C_21  and  C_22
REMARK    7  A    between atoms: C_22  and  C_23
REMARK    8  A    between atoms: C_22  and  O_35
REMARK    9  A    between atoms: C_26  and  C_31
REMARK   10  A    between atoms: C_28  and  O_29
REMARK   11  A    between atoms: C_31  and  C_32
REMARK   12  A    between atoms: C_32  and  O_33
REMARK                            x       y       z     vdW  Elec       q    Type
REMARK                         _______ _______ _______ _____ _____    ______ ____
ROOT
ATOM      1  N   UNL     1      35.320 -23.207 -15.478  0.00  0.00    +0.387 N 
ATOM      2  H   UNL     1      36.129 -22.631 -15.247  0.00  0.00    -0.084 HD
ATOM      3  H   UNL     1      35.604 -24.177 -15.621  0.00  0.00    -0.084 HD
ENDROOT
BRANCH   1   4
ATOM      4  C   UNL     1      34.714 -22.711 -16.713  0.00  0.00    -0.057 C 
ATOM      5  C   UNL     1      33.325 -22.139 -16.423  0.00  0.00    -0.016 C 
ATOM      6  C   UNL     1      35.601 -21.633 -17.349  0.00  0.00    +0.005 C 
ATOM      7  C   UNL     1      32.639 -21.721 -17.724  0.00  0.00    +0.024 C 
ATOM      8  C   UNL     1      34.925 -20.905 -18.485  0.00  0.00    -0.025 C 
ATOM      9  C   UNL     1      33.526 -20.913 -18.637  0.00  0.00    -0.026 C 
ATOM     10  C   UNL     1      35.709 -20.154 -19.375  0.00  0.00    +0.032 C 
ATOM     11  C   UNL     1      32.944 -20.201 -19.695  0.00  0.00    -0.001 C 
ATOM     12  C   UNL     1      35.117 -19.441 -20.418  0.00  0.00    +0.139 C 
ATOM     13  C   UNL     1      33.734 -19.468 -20.578  0.00  0.00    +0.037 C 
BRANCH  12  14
ATOM     14  O   UNL     1      35.889 -18.722 -21.275  0.00  0.00    -0.466 OA
BRANCH  14  15
ATOM     15  C   UNL     1      36.163 -17.367 -20.923  0.00  0.00    +0.290 C 
BRANCH  15  18
ATOM     16  O   UNL     1      35.570 -16.777 -23.139  0.00  0.00    -0.271 OA
ATOM     17  N   UNL     1      34.994 -15.246 -21.491  0.00  0.00    -0.273 N 
ATOM     18  C   UNL     1      35.553 -16.438 -21.952  0.00  0.00    +0.270 C 
ATOM     19  C   UNL     1      34.387 -14.324 -22.442  0.00  0.00    +0.115 C 
ATOM     20  C   UNL     1      34.943 -14.819 -20.095  0.00  0.00    +0.115 C 
ENDBRANCH  15  18
ENDBRANCH  14  15
ENDBRANCH  12  14
ENDBRANCH   1   4
BRANCH   1  21
ATOM     21  C   UNL     1      34.368 -23.156 -14.379  0.00  0.00    -0.047 C 
BRANCH  21  22
ATOM     22  C   UNL     1      34.783 -24.110 -13.253  0.00  0.00    +0.112 C 
BRANCH  22  23
ATOM     23  C   UNL     1      36.119 -23.718 -12.660  0.00  0.00    +0.002 C 
ATOM     24  C   UNL     1      37.295 -24.279 -13.159  0.00  0.00    -0.003 C 
ATOM     25  C   UNL     1      36.175 -22.796 -11.614  0.00  0.00    +0.001 C 
ATOM     26  C   UNL     1      38.526 -23.917 -12.612  0.00  0.00    +0.014 C 
ATOM     27  C   UNL     1      37.406 -22.436 -11.067  0.00  0.00    +0.036 C 
ATOM     28  C   UNL     1      38.581 -22.997 -11.566  0.00  0.00    +0.130 C 
BRANCH  28  29
ATOM     29  O   UNL     1      39.776 -22.633 -11.021  0.00  0.00    -0.506 OA
ATOM     30  H   UNL     1      40.218 -23.212 -10.431  0.00  0.00    +0.292 HD
ENDBRANCH  28  29
BRANCH  26  31
ATOM     31  C   UNL     1      39.775 -24.527 -13.159  0.00  0.00    +0.061 C 
BRANCH  31  32
ATOM     32  C   UNL     1      39.527 -25.369 -14.413  0.00  0.00    +0.142 C 
BRANCH  32  33
ATOM     33  O   UNL     1      40.637 -25.250 -15.293  0.00  0.00    -0.382 OA
ATOM     34  H   UNL     1      41.027 -24.366 -15.205  0.00  0.00    +0.210 HD
ENDBRANCH  32  33
ENDBRANCH  31  32
ENDBRANCH  26  31
ENDBRANCH  22  23
BRANCH  22  35
ATOM     35  O   UNL     1      33.811 -24.097 -12.208  0.00  0.00    -0.382 OA
ATOM     36  H   UNL     1      33.851 -24.934 -11.720  0.00  0.00    +0.211 HD
ENDBRANCH  22  35
ENDBRANCH  21  22
ENDBRANCH   1  21
TORSDOF 12
ENDMDL
MODEL 6
REMARK VINA RESULT:     -10.5      4.074      5.925
REMARK  Name = 9963057
REMARK  12 active torsions:
REMARK  status: ('A' for Active; 'I' for Inactive)
REMARK    1  A    between atoms: N_1  and  C_4
REMARK    2  A    between atoms: N_1  and  C_21
REMARK    3  A    between atoms: C_12  and  O_14
REMARK    4  A    between atoms: O_14  and  C_15
REMARK    5  A    between atoms: C_15  and  C_18
REMARK    6  A    between atoms: C_21  and  C_22
REMARK    7  A    between atoms: C_22  and  C_23
REMARK    8  A    between atoms: C_22  and  O_35
REMARK    9  A    between atoms: C_26  and  C_31
REMARK   10  A    between atoms: C_28  and  O_29
REMARK   11  A    between atoms: C_31  and  C_32
REMARK   12  A    between atoms: C_32  and  O_33
REMARK                            x       y       z     vdW  Elec       q    Type
REMARK                         _______ _______ _______ _____ _____    ______ ____
ROOT
ATOM      1  N   UNL     1      35.765 -16.694 -22.640  0.00  0.00    +0.387 N 
ATOM      2  H   UNL     1      35.619 -16.894 -23.629  0.00  0.00    -0.084 HD
ATOM      3  H   UNL     1      36.618 -16.149 -22.509  0.00  0.00    -0.084 HD
ENDROOT
BRANCH   1   4
ATOM      4  C   UNL     1      35.898 -17.955 -21.912  0.00  0.00    -0.057 C 
ATOM      5  C   UNL     1      37.110 -17.897 -20.979  0.00  0.00    -0.016 C 
ATOM      6  C   UNL     1      34.628 -18.244 -21.102  0.00  0.00    +0.005 C 
ATOM      7  C   UNL     1      37.323 -19.250 -20.299  0.00  0.00    +0.024 C 
ATOM      8  C   UNL     1      34.788 -19.395 -20.139  0.00  0.00    -0.025 C 
ATOM      9  C   UNL     1      36.058 -19.841 -19.729  0.00  0.00    -0.026 C 
ATOM     10  C   UNL     1      33.640 -19.993 -19.596  0.00  0.00    +0.032 C 
ATOM     11  C   UNL     1      36.154 -20.899 -18.813  0.00  0.00    -0.001 C 
ATOM     12  C   UNL     1      33.749 -21.037 -18.677  0.00  0.00    +0.139 C 
ATOM     13  C   UNL     1      35.006 -21.491 -18.289  0.00  0.00    +0.037 C 
BRANCH  12  14
ATOM     14  O   UNL     1      32.629 -21.610 -18.162  0.00  0.00    -0.466 OA
BRANCH  14  15
ATOM     15  C   UNL     1      32.781 -22.380 -16.971  0.00  0.00    +0.290 C 
BRANCH  15  18
ATOM     16  O   UNL     1      30.495 -21.844 -16.656  0.00  0.00    -0.271 OA
ATOM     17  N   UNL     1      31.609 -22.675 -14.796  0.00  0.00    -0.273 N 
ATOM     18  C   UNL     1      31.527 -22.272 -16.129  0.00  0.00    +0.270 C 
ATOM     19  C   UNL     1      30.426 -22.597 -13.949  0.00  0.00    +0.115 C 
ATOM     20  C   UNL     1      32.807 -23.198 -14.143  0.00  0.00    +0.115 C 
ENDBRANCH  15  18
ENDBRANCH  14  15
ENDBRANCH  12  14
ENDBRANCH   1   4
BRANCH   1  21
ATOM     21  C   UNL     1      34.637 -15.926 -22.136  0.00  0.00    -0.047 C 
BRANCH  21  22
ATOM     22  C   UNL     1      35.119 -14.743 -21.287  0.00  0.00    +0.112 C 
BRANCH  22  23
ATOM     23  C   UNL     1      34.108 -13.617 -21.282  0.00  0.00    +0.002 C 
ATOM     24  C   UNL     1      34.230 -12.567 -22.192  0.00  0.00    -0.003 C 
ATOM     25  C   UNL     1      33.056 -13.628 -20.367  0.00  0.00    +0.001 C 
ATOM     26  C   UNL     1      33.298 -11.529 -22.187  0.00  0.00    +0.014 C 
ATOM     27  C   UNL     1      32.125 -12.590 -20.361  0.00  0.00    +0.036 C 
ATOM     28  C   UNL     1      32.247 -11.540 -21.271  0.00  0.00    +0.130 C 
BRANCH  28  29
ATOM     29  O   UNL     1      31.328 -10.534 -21.253  0.00  0.00    -0.506 OA
ATOM     30  H   UNL     1      31.190 -10.011 -22.019  0.00  0.00    +0.292 HD
ENDBRANCH  28  29
BRANCH  26  31
ATOM     31  C   UNL     1      33.443 -10.413 -23.169  0.00  0.00    +0.061 C 
BRANCH  31  32
ATOM     32  C   UNL     1      34.472 -10.711 -24.262  0.00  0.00    +0.142 C 
BRANCH  32  33
ATOM     33  O   UNL     1      35.601  -9.862 -24.097  0.00  0.00    -0.382 OA
ATOM     34  H   UNL     1      36.060  -9.766 -24.947  0.00  0.00    +0.210 HD
ENDBRANCH  32  33
ENDBRANCH  31  32
ENDBRANCH  26  31
ENDBRANCH  22  23
BRANCH  22  35
ATOM     35  O   UNL     1      35.334 -15.156 -19.938  0.00  0.00    -0.382 OA
ATOM     36  H   UNL     1      34.494 -15.127 -19.454  0.00  0.00    +0.211 HD
ENDBRANCH  22  35
ENDBRANCH  21  22
ENDBRANCH   1  21
TORSDOF 12
ENDMDL
MODEL 7
REMARK VINA RESULT:     -10.5      4.222      6.036
REMARK  Name = 9963057
REMARK  12 active torsions:
REMARK  status: ('A' for Active; 'I' for Inactive)
REMARK    1  A    between atoms: N_1  and  C_4
REMARK    2  A    between atoms: N_1  and  C_21
REMARK    3  A    between atoms: C_12  and  O_14
REMARK    4  A    between atoms: O_14  and  C_15
REMARK    5  A    between atoms: C_15  and  C_18
REMARK    6  A    between atoms: C_21  and  C_22
REMARK    7  A    between atoms: C_22  and  C_23
REMARK    8  A    between atoms: C_22  and  O_35
REMARK    9  A    between atoms: C_26  and  C_31
REMARK   10  A    between atoms: C_28  and  O_29
REMARK   11  A    between atoms: C_31  and  C_32
REMARK   12  A    between atoms: C_32  and  O_33
REMARK                            x       y       z     vdW  Elec       q    Type
REMARK                         _______ _______ _______ _____ _____    ______ ____
ROOT
ATOM      1  N   UNL     1      35.879 -17.230 -22.437  0.00  0.00    +0.387 N 
ATOM      2  H   UNL     1      35.734 -17.494 -23.411  0.00  0.00    -0.084 HD
ATOM      3  H   UNL     1      36.757 -16.720 -22.334  0.00  0.00    -0.084 HD
ENDROOT
BRANCH   1   4
ATOM      4  C   UNL     1      35.941 -18.439 -21.616  0.00  0.00    -0.057 C 
ATOM      5  C   UNL     1      37.091 -18.334 -20.613  0.00  0.00    -0.016 C 
ATOM      6  C   UNL     1      34.615 -18.650 -20.872  0.00  0.00    +0.005 C 
ATOM      7  C   UNL     1      37.233 -19.639 -19.829  0.00  0.00    +0.024 C 
ATOM      8  C   UNL     1      34.691 -19.732 -19.824  0.00  0.00    -0.025 C 
ATOM      9  C   UNL     1      35.923 -20.168 -19.303  0.00  0.00    -0.026 C 
ATOM     10  C   UNL     1      33.499 -20.273 -19.316  0.00  0.00    +0.032 C 
ATOM     11  C   UNL     1      35.940 -21.161 -18.312  0.00  0.00    -0.001 C 
ATOM     12  C   UNL     1      33.529 -21.252 -18.322  0.00  0.00    +0.139 C 
ATOM     13  C   UNL     1      34.749 -21.697 -17.823  0.00  0.00    +0.037 C 
BRANCH  12  14
ATOM     14  O   UNL     1      32.367 -21.770 -17.843  0.00  0.00    -0.466 OA
BRANCH  14  15
ATOM     15  C   UNL     1      32.356 -22.189 -16.479  0.00  0.00    +0.290 C 
BRANCH  15  18
ATOM     16  O   UNL     1      30.007 -21.920 -16.647  0.00  0.00    -0.271 OA
ATOM     17  N   UNL     1      30.749 -23.359 -14.982  0.00  0.00    -0.273 N 
ATOM     18  C   UNL     1      30.933 -22.473 -16.044  0.00  0.00    +0.270 C 
ATOM     19  C   UNL     1      29.398 -23.670 -14.533  0.00  0.00    +0.115 C 
ATOM     20  C   UNL     1      31.817 -24.041 -14.255  0.00  0.00    +0.115 C 
ENDBRANCH  15  18
ENDBRANCH  14  15
ENDBRANCH  12  14
ENDBRANCH   1   4
BRANCH   1  21
ATOM     21  C   UNL     1      34.786 -16.371 -22.007  0.00  0.00    -0.047 C 
BRANCH  21  22
ATOM     22  C   UNL     1      35.311 -15.195 -21.176  0.00  0.00    +0.112 C 
BRANCH  22  23
ATOM     23  C   UNL     1      34.487 -13.946 -21.399  0.00  0.00    +0.002 C 
ATOM     24  C   UNL     1      33.545 -13.553 -20.448  0.00  0.00    -0.003 C 
ATOM     25  C   UNL     1      34.668 -13.188 -22.556  0.00  0.00    +0.001 C 
ATOM     26  C   UNL     1      32.785 -12.402 -20.654  0.00  0.00    +0.014 C 
ATOM     27  C   UNL     1      33.907 -12.038 -22.763  0.00  0.00    +0.036 C 
ATOM     28  C   UNL     1      32.965 -11.645 -21.812  0.00  0.00    +0.130 C 
BRANCH  28  29
ATOM     29  O   UNL     1      32.231 -10.518 -22.028  0.00  0.00    -0.506 OA
ATOM     30  H   UNL     1      31.653 -10.200 -21.362  0.00  0.00    +0.292 HD
ENDBRANCH  28  29
BRANCH  26  31
ATOM     31  C   UNL     1      31.781 -11.995 -19.626  0.00  0.00    +0.061 C 
BRANCH  31  32
ATOM     32  C   UNL     1      32.113 -10.653 -18.968  0.00  0.00    +0.142 C 
BRANCH  32  33
ATOM     33  O   UNL     1      31.408 -10.538 -17.739  0.00  0.00    -0.382 OA
ATOM     34  H   UNL     1      30.456 -10.464 -17.917  0.00  0.00    +0.210 HD
ENDBRANCH  32  33
ENDBRANCH  31  32
ENDBRANCH  26  31
ENDBRANCH  22  23
BRANCH  22  35
ATOM     35  O   UNL     1      35.271 -15.513 -19.785  0.00  0.00    -0.382 OA
ATOM     36  H   UNL     1      34.689 -14.887 -19.327  0.00  0.00    +0.211 HD
ENDBRANCH  22  35
ENDBRANCH  21  22
ENDBRANCH   1  21
TORSDOF 12
ENDMDL
MODEL 8
REMARK VINA RESULT:     -10.4      4.005      5.453
REMARK  Name = 9963057
REMARK  12 active torsions:
REMARK  status: ('A' for Active; 'I' for Inactive)
REMARK    1  A    between atoms: N_1  and  C_4
REMARK    2  A    between atoms: N_1  and  C_21
REMARK    3  A    between atoms: C_12  and  O_14
REMARK    4  A    between atoms: O_14  and  C_15
REMARK    5  A    between atoms: C_15  and  C_18
REMARK    6  A    between atoms: C_21  and  C_22
REMARK    7  A    between atoms: C_22  and  C_23
REMARK    8  A    between atoms: C_22  and  O_35
REMARK    9  A    between atoms: C_26  and  C_31
REMARK   10  A    between atoms: C_28  and  O_29
REMARK   11  A    between atoms: C_31  and  C_32
REMARK   12  A    between atoms: C_32  and  O_33
REMARK                            x       y       z     vdW  Elec       q    Type
REMARK                         _______ _______ _______ _____ _____    ______ ____
ROOT
ATOM      1  N   UNL     1      36.072 -17.847 -22.194  0.00  0.00    +0.387 N 
ATOM      2  H   UNL     1      36.071 -18.179 -23.158  0.00  0.00    -0.084 HD
ATOM      3  H   UNL     1      36.925 -17.321 -22.001  0.00  0.00    -0.084 HD
ENDROOT
BRANCH   1   4
ATOM      4  C   UNL     1      36.016 -18.996 -21.291  0.00  0.00    -0.057 C 
ATOM      5  C   UNL     1      37.105 -18.878 -20.223  0.00  0.00    -0.016 C 
ATOM      6  C   UNL     1      34.637 -19.088 -20.625  0.00  0.00    +0.005 C 
ATOM      7  C   UNL     1      37.126 -20.129 -19.344  0.00  0.00    +0.024 C 
ATOM      8  C   UNL     1      34.587 -20.096 -19.503  0.00  0.00    -0.025 C 
ATOM      9  C   UNL     1      35.758 -20.555 -18.873  0.00  0.00    -0.026 C 
ATOM     10  C   UNL     1      33.338 -20.539 -19.040  0.00  0.00    +0.032 C 
ATOM     11  C   UNL     1      35.659 -21.474 -17.818  0.00  0.00    -0.001 C 
ATOM     12  C   UNL     1      33.252 -21.445 -17.983  0.00  0.00    +0.139 C 
ATOM     13  C   UNL     1      34.412 -21.914 -17.374  0.00  0.00    +0.037 C 
BRANCH  12  14
ATOM     14  O   UNL     1      32.035 -21.869 -17.548  0.00  0.00    -0.466 OA
BRANCH  14  15
ATOM     15  C   UNL     1      31.943 -22.295 -16.190  0.00  0.00    +0.290 C 
BRANCH  15  18
ATOM     16  O   UNL     1      29.602 -22.047 -16.459  0.00  0.00    -0.271 OA
ATOM     17  N   UNL     1      30.284 -23.621 -14.894  0.00  0.00    -0.273 N 
ATOM     18  C   UNL     1      30.505 -22.638 -15.860  0.00  0.00    +0.270 C 
ATOM     19  C   UNL     1      28.917 -23.992 -14.548  0.00  0.00    +0.115 C 
ATOM     20  C   UNL     1      31.325 -24.351 -14.175  0.00  0.00    +0.115 C 
ENDBRANCH  15  18
ENDBRANCH  14  15
ENDBRANCH  12  14
ENDBRANCH   1   4
BRANCH   1  21
ATOM     21  C   UNL     1      34.927 -16.974 -21.988  0.00  0.00    -0.047 C 
BRANCH  21  22
ATOM     22  C   UNL     1      35.376 -15.517 -21.824  0.00  0.00    +0.112 C 
BRANCH  22  23
ATOM     23  C   UNL     1      34.800 -14.635 -22.911  0.00  0.00    +0.002 C 
ATOM     24  C   UNL     1      34.648 -13.266 -22.690  0.00  0.00    -0.003 C 
ATOM     25  C   UNL     1      34.423 -15.190 -24.134  0.00  0.00    +0.001 C 
ATOM     26  C   UNL     1      34.118 -12.453 -23.693  0.00  0.00    +0.014 C 
ATOM     27  C   UNL     1      33.892 -14.378 -25.135  0.00  0.00    +0.036 C 
ATOM     28  C   UNL     1      33.739 -13.010 -24.914  0.00  0.00    +0.130 C 
BRANCH  28  29
ATOM     29  O   UNL     1      33.220 -12.230 -25.904  0.00  0.00    -0.506 OA
ATOM     30  H   UNL     1      32.552 -11.602 -25.705  0.00  0.00    +0.292 HD
ENDBRANCH  28  29
BRANCH  26  31
ATOM     31  C   UNL     1      33.961 -10.990 -23.440  0.00  0.00    +0.061 C 
BRANCH  31  32
ATOM     32  C   UNL     1      34.959 -10.139 -24.230  0.00  0.00    +0.142 C 
BRANCH  32  33
ATOM     33  O   UNL     1      35.677  -9.297 -23.337  0.00  0.00    -0.382 OA
ATOM     34  H   UNL     1      36.595  -9.211 -23.642  0.00  0.00    +0.210 HD
ENDBRANCH  32  33
ENDBRANCH  31  32
ENDBRANCH  26  31
ENDBRANCH  22  23
BRANCH  22  35
ATOM     35  O   UNL     1      34.949 -15.005 -20.562  0.00  0.00    -0.382 OA
ATOM     36  H   UNL     1      35.119 -15.665 -19.872  0.00  0.00    +0.211 HD
ENDBRANCH  22  35
ENDBRANCH  21  22
ENDBRANCH   1  21
TORSDOF 12
ENDMDL
MODEL 9
REMARK VINA RESULT:     -10.3      2.363     10.991
REMARK  Name = 9963057
REMARK  12 active torsions:
REMARK  status: ('A' for Active; 'I' for Inactive)
REMARK    1  A    between atoms: N_1  and  C_4
REMARK    2  A    between atoms: N_1  and  C_21
REMARK    3  A    between atoms: C_12  and  O_14
REMARK    4  A    between atoms: O_14  and  C_15
REMARK    5  A    between atoms: C_15  and  C_18
REMARK    6  A    between atoms: C_21  and  C_22
REMARK    7  A    between atoms: C_22  and  C_23
REMARK    8  A    between atoms: C_22  and  O_35
REMARK    9  A    between atoms: C_26  and  C_31
REMARK   10  A    between atoms: C_28  and  O_29
REMARK   11  A    between atoms: C_31  and  C_32
REMARK   12  A    between atoms: C_32  and  O_33
REMARK                            x       y       z     vdW  Elec       q    Type
REMARK                         _______ _______ _______ _____ _____    ______ ____
ROOT
ATOM      1  N   UNL     1      33.115 -21.932 -18.223  0.00  0.00    +0.387 N 
ATOM      2  H   UNL     1      33.533 -22.844 -18.409  0.00  0.00    -0.084 HD
ATOM      3  H   UNL     1      32.264 -21.813 -18.773  0.00  0.00    -0.084 HD
ENDROOT
BRANCH   1   4
ATOM      4  C   UNL     1      34.064 -20.884 -18.594  0.00  0.00    -0.057 C 
ATOM      5  C   UNL     1      35.475 -21.466 -18.700  0.00  0.00    -0.016 C 
ATOM      6  C   UNL     1      33.660 -20.244 -19.929  0.00  0.00    +0.005 C 
ATOM      7  C   UNL     1      36.489 -20.356 -18.977  0.00  0.00    +0.024 C 
ATOM      8  C   UNL     1      34.721 -19.331 -20.493  0.00  0.00    -0.025 C 
ATOM      9  C   UNL     1      36.062 -19.413 -20.074  0.00  0.00    -0.026 C 
ATOM     10  C   UNL     1      34.370 -18.421 -21.502  0.00  0.00    +0.032 C 
ATOM     11  C   UNL     1      37.016 -18.559 -20.645  0.00  0.00    -0.001 C 
ATOM     12  C   UNL     1      35.331 -17.584 -22.071  0.00  0.00    +0.139 C 
ATOM     13  C   UNL     1      36.653 -17.652 -21.640  0.00  0.00    +0.037 C 
BRANCH  12  14
ATOM     14  O   UNL     1      34.976 -16.703 -23.045  0.00  0.00    -0.466 OA
BRANCH  14  15
ATOM     15  C   UNL     1      35.466 -15.369 -22.925  0.00  0.00    +0.290 C 
BRANCH  15  18
ATOM     16  O   UNL     1      33.743 -14.217 -24.074  0.00  0.00    -0.271 OA
ATOM     17  N   UNL     1      33.942 -13.751 -21.808  0.00  0.00    -0.273 N 
ATOM     18  C   UNL     1      34.309 -14.393 -22.990  0.00  0.00    +0.270 C 
ATOM     19  C   UNL     1      32.829 -12.810 -21.819  0.00  0.00    +0.115 C 
ATOM     20  C   UNL     1      34.578 -13.944 -20.507  0.00  0.00    +0.115 C 
ENDBRANCH  15  18
ENDBRANCH  14  15
ENDBRANCH  12  14
ENDBRANCH   1   4
BRANCH   1  21
ATOM     21  C   UNL     1      32.775 -21.843 -16.811  0.00  0.00    -0.047 C 
BRANCH  21  22
ATOM     22  C   UNL     1      33.114 -23.150 -16.084  0.00  0.00    +0.112 C 
BRANCH  22  23
ATOM     23  C   UNL     1      34.473 -23.079 -15.422  0.00  0.00    +0.002 C 
ATOM     24  C   UNL     1      34.996 -24.203 -14.784  0.00  0.00    -0.003 C 
ATOM     25  C   UNL     1      35.202 -21.890 -15.450  0.00  0.00    +0.001 C 
ATOM     26  C   UNL     1      36.249 -24.138 -14.174  0.00  0.00    +0.014 C 
ATOM     27  C   UNL     1      36.453 -21.824 -14.839  0.00  0.00    +0.036 C 
ATOM     28  C   UNL     1      36.977 -22.948 -14.201  0.00  0.00    +0.130 C 
BRANCH  28  29
ATOM     29  O   UNL     1      38.202 -22.868 -13.610  0.00  0.00    -0.506 OA
ATOM     30  H   UNL     1      38.288 -23.008 -12.687  0.00  0.00    +0.292 HD
ENDBRANCH  28  29
BRANCH  26  31
ATOM     31  C   UNL     1      36.795 -25.350 -13.495  0.00  0.00    +0.061 C 
BRANCH  31  32
ATOM     32  C   UNL     1      37.911 -26.029 -14.295  0.00  0.00    +0.142 C 
BRANCH  32  33
ATOM     33  O   UNL     1      37.416 -26.414 -15.571  0.00  0.00    -0.382 OA
ATOM     34  H   UNL     1      37.277 -27.375 -15.588  0.00  0.00    +0.210 HD
ENDBRANCH  32  33
ENDBRANCH  31  32
ENDBRANCH  26  31
ENDBRANCH  22  23
BRANCH  22  35
ATOM     35  O   UNL     1      32.141 -23.425 -15.077  0.00  0.00    -0.382 OA
ATOM     36  H   UNL     1      31.258 -23.443 -15.478  0.00  0.00    +0.211 HD
ENDBRANCH  22  35
ENDBRANCH  21  22
ENDBRANCH   1  21
TORSDOF 12
ENDMDL
