MODEL 1
REMARK VINA RESULT:     -11.9      0.000      0.000
REMARK  Name = 56832738
REMARK  10 active torsions:
REMARK  status: ('A' for Active; 'I' for Inactive)
REMARK    1  A    between atoms: C_2  and  C_11
REMARK    2  A    between atoms: C_5  and  C_25
REMARK    3  A    between atoms: C_10  and  C_22
REMARK    4  A    between atoms: C_12  and  O_16
REMARK    5  A    between atoms: C_13  and  O_18
REMARK    6  A    between atoms: C_14  and  O_20
REMARK    7  A    between atoms: C_22  and  O_23
REMARK    8  A    between atoms: C_25  and  C_27
REMARK    9  A    between atoms: C_32  and  O_33
REMARK   10  A    between atoms: O_33  and  C_34
REMARK                            x       y       z     vdW  Elec       q    Type
REMARK                         _______ _______ _______ _____ _____    ______ ____
ROOT
ATOM      1 CL   UNL     1      30.882 -22.038 -16.575  0.00  0.00    -0.083 Cl
ATOM      2  C   UNL     1      34.637 -23.153 -14.331  0.00  0.00    +0.031 C 
ATOM      3  C   UNL     1      34.619 -23.236 -15.723  0.00  0.00    -0.003 C 
ATOM      4  C   UNL     1      33.502 -22.726 -13.642  0.00  0.00    +0.001 C 
ATOM      5  C   UNL     1      33.464 -22.893 -16.426  0.00  0.00    -0.007 C 
ATOM      6  C   UNL     1      32.347 -22.384 -14.346  0.00  0.00    +0.011 C 
ATOM      7  C   UNL     1      32.328 -22.467 -15.738  0.00  0.00    +0.054 C 
ENDROOT
BRANCH   2  11
ATOM      8  O   UNL     1      35.601 -23.944 -12.219  0.00  0.00    -0.326 OA
ATOM      9  O   UNL     1      36.764 -22.375 -13.475  0.00  0.00    -0.326 OA
ATOM     10  C   UNL     1      36.836 -23.687 -11.539  0.00  0.00    +0.176 C 
ATOM     11  C   UNL     1      35.892 -23.524 -13.566  0.00  0.00    +0.235 C 
ATOM     12  C   UNL     1      37.836 -24.800 -11.946  0.00  0.00    +0.169 C 
ATOM     13  C   UNL     1      36.688 -24.671 -14.232  0.00  0.00    +0.196 C 
ATOM     14  C   UNL     1      38.001 -24.952 -13.474  0.00  0.00    +0.172 C 
ATOM     15  C   UNL     1      37.180 -22.317 -12.104  0.00  0.00    +0.177 C 
BRANCH  12  16
ATOM     16  O   UNL     1      37.358 -26.044 -11.425  0.00  0.00    -0.379 OA
ATOM     17  H   UNL     1      36.578 -26.328 -11.929  0.00  0.00    +0.211 HD
ENDBRANCH  12  16
BRANCH  13  18
ATOM     18  O   UNL     1      35.899 -25.861 -14.242  0.00  0.00    -0.377 OA
ATOM     19  H   UNL     1      35.674 -26.107 -13.330  0.00  0.00    +0.211 HD
ENDBRANCH  13  18
BRANCH  14  20
ATOM     20  O   UNL     1      38.990 -24.029 -13.934  0.00  0.00    -0.379 OA
ATOM     21  H   UNL     1      39.682 -24.510 -14.413  0.00  0.00    +0.211 HD
ENDBRANCH  14  20
BRANCH  10  22
ATOM     22  C   UNL     1      36.591 -23.645 -10.036  0.00  0.00    +0.169 C 
BRANCH  22  23
ATOM     23  O   UNL     1      35.517 -24.517  -9.730  0.00  0.00    -0.379 OA
ATOM     24  H   UNL     1      35.794 -25.143  -9.043  0.00  0.00    +0.211 HD
ENDBRANCH  22  23
ENDBRANCH  10  22
ENDBRANCH   2  11
BRANCH   5  25
ATOM     25  C   UNL     1      33.484 -22.997 -17.918  0.00  0.00    +0.054 C 
BRANCH  25  27
ATOM     26  F   UNL     1      37.093 -20.059 -19.401  0.00  0.00    -0.201 F 
ATOM     27  C   UNL     1      33.968 -21.742 -18.612  0.00  0.00    -0.015 C 
ATOM     28  C   UNL     1      35.334 -21.470 -18.690  0.00  0.00    +0.029 C 
ATOM     29  C   UNL     1      33.048 -20.856 -19.172  0.00  0.00    -0.001 C 
ATOM     30  C   UNL     1      35.780 -20.314 -19.329  0.00  0.00    +0.174 C 
ATOM     31  C   UNL     1      33.493 -19.700 -19.811  0.00  0.00    +0.039 C 
ATOM     32  C   UNL     1      34.859 -19.428 -19.889  0.00  0.00    +0.166 C 
BRANCH  32  33
ATOM     33  O   UNL     1      35.293 -18.298 -20.513  0.00  0.00    -0.473 OA
BRANCH  33  34
ATOM     34  C   UNL     1      35.238 -18.283 -21.939  0.00  0.00    +0.206 C 
ATOM     35  C   UNL     1      35.576 -16.891 -22.430  0.00  0.00    +0.051 C 
ENDBRANCH  33  34
ENDBRANCH  32  33
ENDBRANCH  25  27
ENDBRANCH   5  25
TORSDOF 10
ENDMDL
MODEL 2
REMARK VINA RESULT:     -11.2      0.931      2.352
REMARK  Name = 56832738
REMARK  10 active torsions:
REMARK  status: ('A' for Active; 'I' for Inactive)
REMARK    1  A    between atoms: C_2  and  C_11
REMARK    2  A    between atoms: C_5  and  C_25
REMARK    3  A    between atoms: C_10  and  C_22
REMARK    4  A    between atoms: C_12  and  O_16
REMARK    5  A    between atoms: C_13  and  O_18
REMARK    6  A    between atoms: C_14  and  O_20
REMARK    7  A    between atoms: C_22  and  O_23
REMARK    8  A    between atoms: C_25  and  C_27
REMARK    9  A    between atoms: C_32  and  O_33
REMARK   10  A    between atoms: O_33  and  C_34
REMARK                            x       y       z     vdW  Elec       q    Type
REMARK                         _______ _______ _______ _____ _____    ______ ____
ROOT
ATOM      1 CL   UNL     1      31.290 -21.985 -16.454  0.00  0.00    -0.083 Cl
ATOM      2  C   UNL     1      34.949 -23.565 -14.333  0.00  0.00    +0.031 C 
ATOM      3  C   UNL     1      34.901 -23.583 -15.727  0.00  0.00    -0.003 C 
ATOM      4  C   UNL     1      33.872 -23.059 -13.605  0.00  0.00    +0.001 C 
ATOM      5  C   UNL     1      33.776 -23.097 -16.392  0.00  0.00    -0.007 C 
ATOM      6  C   UNL     1      32.747 -22.573 -14.271  0.00  0.00    +0.011 C 
ATOM      7  C   UNL     1      32.699 -22.592 -15.665  0.00  0.00    +0.054 C 
ENDROOT
BRANCH   2  11
ATOM      8  O   UNL     1      37.380 -23.430 -14.033  0.00  0.00    -0.326 OA
ATOM      9  O   UNL     1      36.336 -25.500 -13.894  0.00  0.00    -0.326 OA
ATOM     10  C   UNL     1      38.391 -24.395 -13.717  0.00  0.00    +0.176 C 
ATOM     11  C   UNL     1      36.172 -24.092 -13.609  0.00  0.00    +0.235 C 
ATOM     12  C   UNL     1      38.604 -24.365 -12.182  0.00  0.00    +0.169 C 
ATOM     13  C   UNL     1      36.084 -23.926 -12.075  0.00  0.00    +0.196 C 
ATOM     14  C   UNL     1      37.303 -24.560 -11.375  0.00  0.00    +0.172 C 
ATOM     15  C   UNL     1      37.723 -25.666 -14.219  0.00  0.00    +0.177 C 
BRANCH  12  16
ATOM     16  O   UNL     1      39.159 -23.093 -11.832  0.00  0.00    -0.379 OA
ATOM     17  H   UNL     1      38.722 -22.397 -12.347  0.00  0.00    +0.211 HD
ENDBRANCH  12  16
BRANCH  13  18
ATOM     18  O   UNL     1      36.032 -22.539 -11.743  0.00  0.00    -0.377 OA
ATOM     19  H   UNL     1      35.488 -22.417 -10.949  0.00  0.00    +0.211 HD
ENDBRANCH  13  18
BRANCH  14  20
ATOM     20  O   UNL     1      37.053 -25.957 -11.215  0.00  0.00    -0.379 OA
ATOM     21  H   UNL     1      36.604 -26.110 -10.370  0.00  0.00    +0.211 HD
ENDBRANCH  14  20
BRANCH  10  22
ATOM     22  C   UNL     1      39.664 -24.070 -14.489  0.00  0.00    +0.169 C 
BRANCH  22  23
ATOM     23  O   UNL     1      40.779 -24.400 -13.680  0.00  0.00    -0.379 OA
ATOM     24  H   UNL     1      41.572 -23.966 -14.030  0.00  0.00    +0.211 HD
ENDBRANCH  22  23
ENDBRANCH  10  22
ENDBRANCH   2  11
BRANCH   5  25
ATOM     25  C   UNL     1      33.763 -23.135 -17.887  0.00  0.00    +0.054 C 
BRANCH  25  27
ATOM     26  F   UNL     1      37.193 -19.892 -19.144  0.00  0.00    -0.201 F 
ATOM     27  C   UNL     1      34.178 -21.832 -18.536  0.00  0.00    -0.015 C 
ATOM     28  C   UNL     1      35.521 -21.452 -18.543  0.00  0.00    +0.029 C 
ATOM     29  C   UNL     1      33.218 -21.010 -19.125  0.00  0.00    -0.001 C 
ATOM     30  C   UNL     1      35.902 -20.252 -19.141  0.00  0.00    +0.174 C 
ATOM     31  C   UNL     1      33.599 -19.809 -19.722  0.00  0.00    +0.039 C 
ATOM     32  C   UNL     1      34.942 -19.430 -19.730  0.00  0.00    +0.166 C 
BRANCH  32  33
ATOM     33  O   UNL     1      35.313 -18.257 -20.313  0.00  0.00    -0.473 OA
BRANCH  33  34
ATOM     34  C   UNL     1      35.492 -18.265 -21.729  0.00  0.00    +0.206 C 
ATOM     35  C   UNL     1      35.621 -16.837 -22.217  0.00  0.00    +0.051 C 
ENDBRANCH  33  34
ENDBRANCH  32  33
ENDBRANCH  25  27
ENDBRANCH   5  25
TORSDOF 10
ENDMDL
MODEL 3
REMARK VINA RESULT:     -10.6      1.363      2.312
REMARK  Name = 56832738
REMARK  10 active torsions:
REMARK  status: ('A' for Active; 'I' for Inactive)
REMARK    1  A    between atoms: C_2  and  C_11
REMARK    2  A    between atoms: C_5  and  C_25
REMARK    3  A    between atoms: C_10  and  C_22
REMARK    4  A    between atoms: C_12  and  O_16
REMARK    5  A    between atoms: C_13  and  O_18
REMARK    6  A    between atoms: C_14  and  O_20
REMARK    7  A    between atoms: C_22  and  O_23
REMARK    8  A    between atoms: C_25  and  C_27
REMARK    9  A    between atoms: C_32  and  O_33
REMARK   10  A    between atoms: O_33  and  C_34
REMARK                            x       y       z     vdW  Elec       q    Type
REMARK                         _______ _______ _______ _____ _____    ______ ____
ROOT
ATOM      1 CL   UNL     1      31.095 -22.302 -16.504  0.00  0.00    -0.083 Cl
ATOM      2  C   UNL     1      34.669 -22.956 -13.825  0.00  0.00    +0.031 C 
ATOM      3  C   UNL     1      34.798 -23.146 -15.200  0.00  0.00    -0.003 C 
ATOM      4  C   UNL     1      33.444 -22.564 -13.286  0.00  0.00    +0.001 C 
ATOM      5  C   UNL     1      33.700 -22.947 -16.037  0.00  0.00    -0.007 C 
ATOM      6  C   UNL     1      32.346 -22.365 -14.123  0.00  0.00    +0.011 C 
ATOM      7  C   UNL     1      32.474 -22.555 -15.500  0.00  0.00    +0.054 C 
ENDROOT
BRANCH   2  11
ATOM      8  O   UNL     1      36.538 -24.414 -13.195  0.00  0.00    -0.326 OA
ATOM      9  O   UNL     1      35.420 -23.229 -11.539  0.00  0.00    -0.326 OA
ATOM     10  C   UNL     1      37.194 -24.698 -11.953  0.00  0.00    +0.176 C 
ATOM     11  C   UNL     1      35.862 -23.173 -12.915  0.00  0.00    +0.235 C 
ATOM     12  C   UNL     1      38.420 -23.754 -11.843  0.00  0.00    +0.169 C 
ATOM     13  C   UNL     1      36.919 -22.050 -13.027  0.00  0.00    +0.196 C 
ATOM     14  C   UNL     1      38.066 -22.262 -12.019  0.00  0.00    +0.172 C 
ATOM     15  C   UNL     1      36.079 -24.370 -10.972  0.00  0.00    +0.177 C 
BRANCH  12  16
ATOM     16  O   UNL     1      39.354 -24.113 -12.867  0.00  0.00    -0.379 OA
ATOM     17  H   UNL     1      39.156 -23.613 -13.674  0.00  0.00    +0.211 HD
ENDBRANCH  12  16
BRANCH  13  18
ATOM     18  O   UNL     1      37.463 -22.032 -14.346  0.00  0.00    -0.377 OA
ATOM     19  H   UNL     1      37.100 -21.276 -14.835  0.00  0.00    +0.211 HD
ENDBRANCH  13  18
BRANCH  14  20
ATOM     20  O   UNL     1      37.661 -21.723 -10.759  0.00  0.00    -0.379 OA
ATOM     21  H   UNL     1      37.150 -22.388 -10.272  0.00  0.00    +0.211 HD
ENDBRANCH  14  20
BRANCH  10  22
ATOM     22  C   UNL     1      37.587 -26.169 -11.909  0.00  0.00    +0.169 C 
BRANCH  22  23
ATOM     23  O   UNL     1      38.010 -26.562 -13.202  0.00  0.00    -0.379 OA
ATOM     24  H   UNL     1      38.167 -27.520 -13.214  0.00  0.00    +0.211 HD
ENDBRANCH  22  23
ENDBRANCH  10  22
ENDBRANCH   2  11
BRANCH   5  25
ATOM     25  C   UNL     1      33.878 -23.163 -17.506  0.00  0.00    +0.054 C 
BRANCH  25  27
ATOM     26  F   UNL     1      32.441 -19.374 -20.234  0.00  0.00    -0.201 F 
ATOM     27  C   UNL     1      34.183 -21.896 -18.278  0.00  0.00    -0.015 C 
ATOM     28  C   UNL     1      33.153 -21.202 -18.914  0.00  0.00    +0.029 C 
ATOM     29  C   UNL     1      35.493 -21.424 -18.354  0.00  0.00    -0.001 C 
ATOM     30  C   UNL     1      33.434 -20.036 -19.624  0.00  0.00    +0.174 C 
ATOM     31  C   UNL     1      35.774 -20.258 -19.064  0.00  0.00    +0.039 C 
ATOM     32  C   UNL     1      34.744 -19.564 -19.700  0.00  0.00    +0.166 C 
BRANCH  32  33
ATOM     33  O   UNL     1      35.020 -18.425 -20.395  0.00  0.00    -0.473 OA
BRANCH  33  34
ATOM     34  C   UNL     1      35.743 -18.570 -21.617  0.00  0.00    +0.206 C 
ATOM     35  C   UNL     1      34.769 -18.510 -22.774  0.00  0.00    +0.051 C 
ENDBRANCH  33  34
ENDBRANCH  32  33
ENDBRANCH  25  27
ENDBRANCH   5  25
TORSDOF 10
ENDMDL
MODEL 4
REMARK VINA RESULT:     -10.4      3.169      5.099
REMARK  Name = 56832738
REMARK  10 active torsions:
REMARK  status: ('A' for Active; 'I' for Inactive)
REMARK    1  A    between atoms: C_2  and  C_11
REMARK    2  A    between atoms: C_5  and  C_25
REMARK    3  A    between atoms: C_10  and  C_22
REMARK    4  A    between atoms: C_12  and  O_16
REMARK    5  A    between atoms: C_13  and  O_18
REMARK    6  A    between atoms: C_14  and  O_20
REMARK    7  A    between atoms: C_22  and  O_23
REMARK    8  A    between atoms: C_25  and  C_27
REMARK    9  A    between atoms: C_32  and  O_33
REMARK   10  A    between atoms: O_33  and  C_34
REMARK                            x       y       z     vdW  Elec       q    Type
REMARK                         _______ _______ _______ _____ _____    ______ ____
ROOT
ATOM      1 CL   UNL     1      35.683 -20.254 -19.159  0.00  0.00    -0.083 Cl
ATOM      2  C   UNL     1      36.875 -22.360 -15.348  0.00  0.00    +0.031 C 
ATOM      3  C   UNL     1      35.592 -22.544 -15.862  0.00  0.00    -0.003 C 
ATOM      4  C   UNL     1      37.780 -21.533 -16.012  0.00  0.00    +0.001 C 
ATOM      5  C   UNL     1      35.213 -21.898 -17.039  0.00  0.00    -0.007 C 
ATOM      6  C   UNL     1      37.402 -20.887 -17.189  0.00  0.00    +0.011 C 
ATOM      7  C   UNL     1      36.118 -21.070 -17.703  0.00  0.00    +0.054 C 
ENDROOT
BRANCH   2  11
ATOM      8  O   UNL     1      36.163 -23.662 -13.395  0.00  0.00    -0.326 OA
ATOM      9  O   UNL     1      37.870 -22.105 -13.156  0.00  0.00    -0.326 OA
ATOM     10  C   UNL     1      36.618 -23.735 -12.037  0.00  0.00    +0.176 C 
ATOM     11  C   UNL     1      37.287 -23.062 -14.069  0.00  0.00    +0.235 C 
ATOM     12  C   UNL     1      37.631 -24.906 -11.945  0.00  0.00    +0.169 C 
ATOM     13  C   UNL     1      38.323 -24.186 -14.303  0.00  0.00    +0.196 C 
ATOM     14  C   UNL     1      38.782 -24.807 -12.969  0.00  0.00    +0.172 C 
ATOM     15  C   UNL     1      37.254 -22.361 -11.886  0.00  0.00    +0.177 C 
BRANCH  12  16
ATOM     16  O   UNL     1      36.926 -26.128 -12.185  0.00  0.00    -0.379 OA
ATOM     17  H   UNL     1      37.521 -26.767 -12.608  0.00  0.00    +0.211 HD
ENDBRANCH  12  16
BRANCH  13  18
ATOM     18  O   UNL     1      37.746 -25.209 -15.114  0.00  0.00    -0.377 OA
ATOM     19  H   UNL     1      38.382 -25.935 -15.218  0.00  0.00    +0.211 HD
ENDBRANCH  13  18
BRANCH  14  20
ATOM     20  O   UNL     1      39.823 -23.992 -12.430  0.00  0.00    -0.379 OA
ATOM     21  H   UNL     1      40.291 -23.545 -13.152  0.00  0.00    +0.211 HD
ENDBRANCH  14  20
BRANCH  10  22
ATOM     22  C   UNL     1      35.425 -23.923 -11.110  0.00  0.00    +0.169 C 
BRANCH  22  23
ATOM     23  O   UNL     1      35.846 -24.663  -9.977  0.00  0.00    -0.379 OA
ATOM     24  H   UNL     1      36.814 -24.644  -9.920  0.00  0.00    +0.211 HD
ENDBRANCH  22  23
ENDBRANCH  10  22
ENDBRANCH   2  11
BRANCH   5  25
ATOM     25  C   UNL     1      33.828 -22.120 -17.556  0.00  0.00    +0.054 C 
BRANCH  25  27
ATOM     26  F   UNL     1      32.669 -24.112 -13.249  0.00  0.00    -0.201 F 
ATOM     27  C   UNL     1      32.817 -22.444 -16.477  0.00  0.00    -0.015 C 
ATOM     28  C   UNL     1      33.213 -23.142 -15.336  0.00  0.00    +0.029 C 
ATOM     29  C   UNL     1      31.488 -22.047 -16.624  0.00  0.00    -0.001 C 
ATOM     30  C   UNL     1      32.282 -23.441 -14.343  0.00  0.00    +0.174 C 
ATOM     31  C   UNL     1      30.557 -22.345 -15.631  0.00  0.00    +0.039 C 
ATOM     32  C   UNL     1      30.953 -23.043 -14.490  0.00  0.00    +0.166 C 
BRANCH  32  33
ATOM     33  O   UNL     1      30.042 -23.335 -13.521  0.00  0.00    -0.473 OA
BRANCH  33  34
ATOM     34  C   UNL     1      28.993 -24.239 -13.868  0.00  0.00    +0.206 C 
ATOM     35  C   UNL     1      29.582 -25.405 -14.633  0.00  0.00    +0.051 C 
ENDBRANCH  33  34
ENDBRANCH  32  33
ENDBRANCH  25  27
ENDBRANCH   5  25
TORSDOF 10
ENDMDL
MODEL 5
REMARK VINA RESULT:     -10.1      3.191      5.016
REMARK  Name = 56832738
REMARK  10 active torsions:
REMARK  status: ('A' for Active; 'I' for Inactive)
REMARK    1  A    between atoms: C_2  and  C_11
REMARK    2  A    between atoms: C_5  and  C_25
REMARK    3  A    between atoms: C_10  and  C_22
REMARK    4  A    between atoms: C_12  and  O_16
REMARK    5  A    between atoms: C_13  and  O_18
REMARK    6  A    between atoms: C_14  and  O_20
REMARK    7  A    between atoms: C_22  and  O_23
REMARK    8  A    between atoms: C_25  and  C_27
REMARK    9  A    between atoms: C_32  and  O_33
REMARK   10  A    between atoms: O_33  and  C_34
REMARK                            x       y       z     vdW  Elec       q    Type
REMARK                         _______ _______ _______ _____ _____    ______ ____
ROOT
ATOM      1 CL   UNL     1      37.272 -21.388 -17.218  0.00  0.00    -0.083 Cl
ATOM      2  C   UNL     1      33.379 -22.597 -15.278  0.00  0.00    +0.031 C 
ATOM      3  C   UNL     1      33.478 -22.582 -16.668  0.00  0.00    -0.003 C 
ATOM      4  C   UNL     1      34.479 -22.243 -14.496  0.00  0.00    +0.001 C 
ATOM      5  C   UNL     1      34.676 -22.210 -17.278  0.00  0.00    -0.007 C 
ATOM      6  C   UNL     1      35.677 -21.871 -15.106  0.00  0.00    +0.011 C 
ATOM      7  C   UNL     1      35.776 -21.855 -16.498  0.00  0.00    +0.054 C 
ENDROOT
BRANCH   2  11
ATOM      8  O   UNL     1      31.182 -23.656 -15.534  0.00  0.00    -0.326 OA
ATOM      9  O   UNL     1      31.398 -21.826 -14.121  0.00  0.00    -0.326 OA
ATOM     10  C   UNL     1      29.900 -23.429 -14.934  0.00  0.00    +0.176 C 
ATOM     11  C   UNL     1      32.078 -23.002 -14.614  0.00  0.00    +0.235 C 
ATOM     12  C   UNL     1      29.773 -24.389 -13.722  0.00  0.00    +0.169 C 
ATOM     13  C   UNL     1      32.281 -23.966 -13.423  0.00  0.00    +0.196 C 
ATOM     14  C   UNL     1      30.943 -24.275 -12.722  0.00  0.00    +0.172 C 
ATOM     15  C   UNL     1      30.034 -21.965 -14.545  0.00  0.00    +0.177 C 
BRANCH  12  16
ATOM     16  O   UNL     1      29.739 -25.731 -14.216  0.00  0.00    -0.379 OA
ATOM     17  H   UNL     1      30.641 -26.025 -14.418  0.00  0.00    +0.211 HD
ENDBRANCH  12  16
BRANCH  13  18
ATOM     18  O   UNL     1      32.852 -25.189 -13.886  0.00  0.00    -0.377 OA
ATOM     19  H   UNL     1      32.740 -25.875 -13.209  0.00  0.00    +0.211 HD
ENDBRANCH  13  18
BRANCH  14  20
ATOM     20  O   UNL     1      30.669 -23.224 -11.794  0.00  0.00    -0.379 OA
ATOM     21  H   UNL     1      30.712 -22.370 -12.252  0.00  0.00    +0.211 HD
ENDBRANCH  14  20
BRANCH  10  22
ATOM     22  C   UNL     1      28.806 -23.652 -15.971  0.00  0.00    +0.169 C 
BRANCH  22  23
ATOM     23  O   UNL     1      28.696 -22.486 -16.768  0.00  0.00    -0.379 OA
ATOM     24  H   UNL     1      28.632 -22.739 -17.703  0.00  0.00    +0.211 HD
ENDBRANCH  22  23
ENDBRANCH  10  22
ENDBRANCH   2  11
BRANCH   5  25
ATOM     25  C   UNL     1      34.741 -22.205 -18.772  0.00  0.00    +0.054 C 
BRANCH  25  27
ATOM     26  F   UNL     1      37.563 -18.582 -20.435  0.00  0.00    -0.201 F 
ATOM     27  C   UNL     1      34.906 -20.825 -19.372  0.00  0.00    -0.015 C 
ATOM     28  C   UNL     1      36.183 -20.326 -19.634  0.00  0.00    +0.029 C 
ATOM     29  C   UNL     1      33.783 -20.051 -19.662  0.00  0.00    -0.001 C 
ATOM     30  C   UNL     1      36.335 -19.055 -20.186  0.00  0.00    +0.174 C 
ATOM     31  C   UNL     1      33.935 -18.780 -20.214  0.00  0.00    +0.039 C 
ATOM     32  C   UNL     1      35.211 -18.282 -20.476  0.00  0.00    +0.166 C 
BRANCH  32  33
ATOM     33  O   UNL     1      35.358 -17.040 -21.015  0.00  0.00    -0.473 OA
BRANCH  33  34
ATOM     34  C   UNL     1      35.361 -16.947 -22.439  0.00  0.00    +0.206 C 
ATOM     35  C   UNL     1      35.293 -15.488 -22.837  0.00  0.00    +0.051 C 
ENDBRANCH  33  34
ENDBRANCH  32  33
ENDBRANCH  25  27
ENDBRANCH   5  25
TORSDOF 10
ENDMDL
MODEL 6
REMARK VINA RESULT:      -9.3      3.176      5.675
REMARK  Name = 56832738
REMARK  10 active torsions:
REMARK  status: ('A' for Active; 'I' for Inactive)
REMARK    1  A    between atoms: C_2  and  C_11
REMARK    2  A    between atoms: C_5  and  C_25
REMARK    3  A    between atoms: C_10  and  C_22
REMARK    4  A    between atoms: C_12  and  O_16
REMARK    5  A    between atoms: C_13  and  O_18
REMARK    6  A    between atoms: C_14  and  O_20
REMARK    7  A    between atoms: C_22  and  O_23
REMARK    8  A    between atoms: C_25  and  C_27
REMARK    9  A    between atoms: C_32  and  O_33
REMARK   10  A    between atoms: O_33  and  C_34
REMARK                            x       y       z     vdW  Elec       q    Type
REMARK                         _______ _______ _______ _____ _____    ______ ____
ROOT
ATOM      1 CL   UNL     1      35.476 -20.114 -19.126  0.00  0.00    -0.083 Cl
ATOM      2  C   UNL     1      36.804 -22.554 -15.567  0.00  0.00    +0.031 C 
ATOM      3  C   UNL     1      35.506 -22.702 -16.055  0.00  0.00    -0.003 C 
ATOM      4  C   UNL     1      37.682 -21.660 -16.179  0.00  0.00    +0.001 C 
ATOM      5  C   UNL     1      35.086 -21.953 -17.155  0.00  0.00    -0.007 C 
ATOM      6  C   UNL     1      37.261 -20.911 -17.278  0.00  0.00    +0.011 C 
ATOM      7  C   UNL     1      35.963 -21.058 -17.767  0.00  0.00    +0.054 C 
ENDROOT
BRANCH   2  11
ATOM      8  O   UNL     1      38.681 -23.253 -14.151  0.00  0.00    -0.326 OA
ATOM      9  O   UNL     1      36.978 -24.767 -14.600  0.00  0.00    -0.326 OA
ATOM     10  C   UNL     1      38.982 -24.456 -13.433  0.00  0.00    +0.176 C 
ATOM     11  C   UNL     1      37.262 -23.368 -14.373  0.00  0.00    +0.235 C 
ATOM     12  C   UNL     1      38.477 -24.272 -11.978  0.00  0.00    +0.169 C 
ATOM     13  C   UNL     1      36.566 -22.951 -13.056  0.00  0.00    +0.196 C 
ATOM     14  C   UNL     1      36.990 -23.864 -11.889  0.00  0.00    +0.172 C 
ATOM     15  C   UNL     1      38.177 -25.465 -14.238  0.00  0.00    +0.177 C 
BRANCH  12  16
ATOM     16  O   UNL     1      39.257 -23.245 -11.359  0.00  0.00    -0.379 OA
ATOM     17  H   UNL     1      39.086 -22.398 -11.801  0.00  0.00    +0.211 HD
ENDBRANCH  12  16
BRANCH  13  18
ATOM     18  O   UNL     1      36.911 -21.604 -12.736  0.00  0.00    -0.377 OA
ATOM     19  H   UNL     1      36.137 -21.033 -12.863  0.00  0.00    +0.211 HD
ENDBRANCH  13  18
BRANCH  14  20
ATOM     20  O   UNL     1      36.178 -25.039 -11.920  0.00  0.00    -0.379 OA
ATOM     21  H   UNL     1      35.799 -25.147 -12.806  0.00  0.00    +0.211 HD
ENDBRANCH  14  20
BRANCH  10  22
ATOM     22  C   UNL     1      40.479 -24.728 -13.499  0.00  0.00    +0.169 C 
BRANCH  22  23
ATOM     23  O   UNL     1      40.751 -25.468 -14.676  0.00  0.00    -0.379 OA
ATOM     24  H   UNL     1      40.999 -26.376 -14.437  0.00  0.00    +0.211 HD
ENDBRANCH  22  23
ENDBRANCH  10  22
ENDBRANCH   2  11
BRANCH   5  25
ATOM     25  C   UNL     1      33.686 -22.139 -17.647  0.00  0.00    +0.054 C 
BRANCH  25  27
ATOM     26  F   UNL     1      29.109 -21.908 -15.954  0.00  0.00    -0.201 F 
ATOM     27  C   UNL     1      32.671 -22.342 -16.541  0.00  0.00    -0.015 C 
ATOM     28  C   UNL     1      31.330 -22.026 -16.758  0.00  0.00    +0.029 C 
ATOM     29  C   UNL     1      33.078 -22.845 -15.305  0.00  0.00    -0.001 C 
ATOM     30  C   UNL     1      30.397 -22.214 -15.740  0.00  0.00    +0.174 C 
ATOM     31  C   UNL     1      32.145 -23.033 -14.287  0.00  0.00    +0.039 C 
ATOM     32  C   UNL     1      30.804 -22.716 -14.504  0.00  0.00    +0.166 C 
BRANCH  32  33
ATOM     33  O   UNL     1      29.893 -22.900 -13.509  0.00  0.00    -0.473 OA
BRANCH  33  34
ATOM     34  C   UNL     1      29.736 -24.227 -13.009  0.00  0.00    +0.206 C 
ATOM     35  C   UNL     1      29.245 -25.120 -14.129  0.00  0.00    +0.051 C 
ENDBRANCH  33  34
ENDBRANCH  32  33
ENDBRANCH  25  27
ENDBRANCH   5  25
TORSDOF 10
ENDMDL
