MODEL 1
REMARK VINA RESULT:     -12.5      0.000      0.000
REMARK  Name = 16040289
REMARK  6 active torsions:
REMARK  status: ('A' for Active; 'I' for Inactive)
REMARK    1  A    between atoms: N_2  and  C_20
REMARK    2  A    between atoms: C_3  and  C_6
REMARK    3  A    between atoms: N_11  and  C_13
REMARK    4  A    between atoms: C_13  and  C_15
REMARK    5  A    between atoms: C_23  and  O_26
REMARK    6  A    between atoms: O_26  and  C_27
REMARK                            x       y       z     vdW  Elec       q    Type
REMARK                         _______ _______ _______ _____ _____    ______ ____
ROOT
ATOM      1  O   UNL     1      34.637 -23.331 -16.391  0.00  0.00    -0.270 OA
ATOM      2  N   UNL     1      33.080 -21.726 -17.114  0.00  0.00    -0.280 N 
ATOM      3  C   UNL     1      33.555 -22.762 -16.301  0.00  0.00    +0.252 C 
ATOM      4  H   UNL     1      32.182 -21.385 -16.898  0.00  0.00    +0.155 HD
ENDROOT
BRANCH   3   6
ATOM      5  N   UNL     1      32.221 -23.919 -12.988  0.00  0.00    -0.229 NA
ATOM      6  C   UNL     1      32.619 -23.221 -15.241  0.00  0.00    +0.085 C 
ATOM      7  C   UNL     1      33.050 -23.499 -13.971  0.00  0.00    +0.133 C 
ATOM      8  C   UNL     1      31.289 -23.364 -15.564  0.00  0.00    +0.009 C 
ATOM      9  C   UNL     1      30.405 -23.793 -14.580  0.00  0.00    +0.021 C 
ATOM     10  C   UNL     1      30.917 -24.056 -13.319  0.00  0.00    +0.100 C 
ATOM     11  N   UNL     1      34.423 -23.346 -13.655  0.00  0.00    -0.314 N 
ATOM     12  H   UNL     1      35.038 -23.040 -14.361  0.00  0.00    +0.149 HD
BRANCH  11  13
ATOM     13  C   UNL     1      34.949 -23.616 -12.357  0.00  0.00    +0.115 C 
BRANCH  13  15
ATOM     14  N   UNL     1      39.225 -23.883 -12.496  0.00  0.00    -0.242 NA
ATOM     15  C   UNL     1      36.450 -23.710 -12.406  0.00  0.00    +0.000 C 
ATOM     16  C   UNL     1      37.067 -24.235 -13.528  0.00  0.00    +0.018 C 
ATOM     17  C   UNL     1      37.198 -23.270 -11.328  0.00  0.00    +0.018 C 
ATOM     18  C   UNL     1      38.451 -24.300 -13.523  0.00  0.00    +0.099 C 
ATOM     19  C   UNL     1      38.577 -23.377 -11.423  0.00  0.00    +0.099 C 
ENDBRANCH  13  15
ENDBRANCH  11  13
ENDBRANCH   3   6
BRANCH   2  20
ATOM     20  C   UNL     1      33.722 -21.117 -18.192  0.00  0.00    +0.051 C 
ATOM     21  C   UNL     1      32.982 -20.387 -19.123  0.00  0.00    +0.018 C 
ATOM     22  C   UNL     1      35.104 -21.239 -18.340  0.00  0.00    +0.018 C 
ATOM     23  C   UNL     1      35.007 -19.900 -20.349  0.00  0.00    +0.145 C 
ATOM     24  C   UNL     1      33.625 -19.778 -20.201  0.00  0.00    +0.039 C 
ATOM     25  C   UNL     1      35.746 -20.630 -19.419  0.00  0.00    +0.039 C 
BRANCH  23  26
ATOM     26  O   UNL     1      35.633 -19.308 -21.402  0.00  0.00    -0.453 OA
BRANCH  26  27
ATOM     27  C   UNL     1      35.459 -17.945 -21.572  0.00  0.00    +0.145 C 
ATOM     28  C   UNL     1      35.477 -17.120 -20.461  0.00  0.00    +0.037 C 
ATOM     29  C   UNL     1      35.270 -17.442 -22.847  0.00  0.00    +0.037 C 
ATOM     30  C   UNL     1      35.301 -15.746 -20.632  0.00  0.00    +0.003 C 
ATOM     31  C   UNL     1      35.093 -16.069 -23.018  0.00  0.00    +0.003 C 
ATOM     32  C   UNL     1      35.109 -15.222 -21.910  0.00  0.00    +0.000 C 
ENDBRANCH  26  27
ENDBRANCH  23  26
ENDBRANCH   2  20
TORSDOF 6
ENDMDL
MODEL 2
REMARK VINA RESULT:     -12.4      0.107      1.252
REMARK  Name = 16040289
REMARK  6 active torsions:
REMARK  status: ('A' for Active; 'I' for Inactive)
REMARK    1  A    between atoms: N_2  and  C_20
REMARK    2  A    between atoms: C_3  and  C_6
REMARK    3  A    between atoms: N_11  and  C_13
REMARK    4  A    between atoms: C_13  and  C_15
REMARK    5  A    between atoms: C_23  and  O_26
REMARK    6  A    between atoms: O_26  and  C_27
REMARK                            x       y       z     vdW  Elec       q    Type
REMARK                         _______ _______ _______ _____ _____    ______ ____
ROOT
ATOM      1  O   UNL     1      34.635 -23.323 -16.333  0.00  0.00    -0.270 OA
ATOM      2  N   UNL     1      33.070 -21.749 -17.108  0.00  0.00    -0.280 N 
ATOM      3  C   UNL     1      33.543 -22.769 -16.272  0.00  0.00    +0.252 C 
ATOM      4  H   UNL     1      32.162 -21.419 -16.914  0.00  0.00    +0.155 HD
ENDROOT
BRANCH   3   6
ATOM      5  N   UNL     1      32.162 -23.916 -12.976  0.00  0.00    -0.229 NA
ATOM      6  C   UNL     1      32.593 -23.227 -15.225  0.00  0.00    +0.085 C 
ATOM      7  C   UNL     1      33.004 -23.496 -13.946  0.00  0.00    +0.133 C 
ATOM      8  C   UNL     1      31.269 -23.380 -15.569  0.00  0.00    +0.009 C 
ATOM      9  C   UNL     1      30.372 -23.810 -14.597  0.00  0.00    +0.021 C 
ATOM     10  C   UNL     1      30.865 -24.063 -13.327  0.00  0.00    +0.100 C 
ATOM     11  N   UNL     1      34.371 -23.332 -13.610  0.00  0.00    -0.314 N 
ATOM     12  H   UNL     1      34.996 -23.026 -14.306  0.00  0.00    +0.149 HD
BRANCH  11  13
ATOM     13  C   UNL     1      34.878 -23.592 -12.301  0.00  0.00    +0.115 C 
BRANCH  13  15
ATOM     14  N   UNL     1      39.157 -23.819 -12.366  0.00  0.00    -0.242 NA
ATOM     15  C   UNL     1      36.380 -23.673 -12.325  0.00  0.00    +0.000 C 
ATOM     16  C   UNL     1      37.013 -24.377 -13.333  0.00  0.00    +0.018 C 
ATOM     17  C   UNL     1      37.114 -23.040 -11.336  0.00  0.00    +0.018 C 
ATOM     18  C   UNL     1      38.397 -24.420 -13.310  0.00  0.00    +0.099 C 
ATOM     19  C   UNL     1      38.494 -23.142 -11.402  0.00  0.00    +0.099 C 
ENDBRANCH  13  15
ENDBRANCH  11  13
ENDBRANCH   3   6
BRANCH   2  20
ATOM     20  C   UNL     1      33.724 -21.145 -18.181  0.00  0.00    +0.051 C 
ATOM     21  C   UNL     1      35.108 -21.263 -18.311  0.00  0.00    +0.018 C 
ATOM     22  C   UNL     1      32.994 -20.420 -19.124  0.00  0.00    +0.018 C 
ATOM     23  C   UNL     1      35.032 -19.934 -20.328  0.00  0.00    +0.145 C 
ATOM     24  C   UNL     1      35.762 -20.658 -19.385  0.00  0.00    +0.039 C 
ATOM     25  C   UNL     1      33.649 -19.815 -20.197  0.00  0.00    +0.039 C 
BRANCH  23  26
ATOM     26  O   UNL     1      35.670 -19.342 -21.373  0.00  0.00    -0.453 OA
BRANCH  26  27
ATOM     27  C   UNL     1      35.489 -17.981 -21.552  0.00  0.00    +0.145 C 
ATOM     28  C   UNL     1      35.319 -17.487 -22.833  0.00  0.00    +0.037 C 
ATOM     29  C   UNL     1      35.483 -17.151 -20.446  0.00  0.00    +0.037 C 
ATOM     30  C   UNL     1      35.137 -16.115 -23.013  0.00  0.00    +0.003 C 
ATOM     31  C   UNL     1      35.301 -15.779 -20.626  0.00  0.00    +0.003 C 
ATOM     32  C   UNL     1      35.128 -15.262 -21.910  0.00  0.00    +0.000 C 
ENDBRANCH  26  27
ENDBRANCH  23  26
ENDBRANCH   2  20
TORSDOF 6
ENDMDL
MODEL 3
REMARK VINA RESULT:     -12.3      1.017      1.646
REMARK  Name = 16040289
REMARK  6 active torsions:
REMARK  status: ('A' for Active; 'I' for Inactive)
REMARK    1  A    between atoms: N_2  and  C_20
REMARK    2  A    between atoms: C_3  and  C_6
REMARK    3  A    between atoms: N_11  and  C_13
REMARK    4  A    between atoms: C_13  and  C_15
REMARK    5  A    between atoms: C_23  and  O_26
REMARK    6  A    between atoms: O_26  and  C_27
REMARK                            x       y       z     vdW  Elec       q    Type
REMARK                         _______ _______ _______ _____ _____    ______ ____
ROOT
ATOM      1  O   UNL     1      34.908 -22.779 -16.867  0.00  0.00    -0.270 OA
ATOM      2  N   UNL     1      33.191 -21.370 -17.637  0.00  0.00    -0.280 N 
ATOM      3  C   UNL     1      33.766 -22.336 -16.802  0.00  0.00    +0.252 C 
ATOM      4  H   UNL     1      32.256 -21.131 -17.440  0.00  0.00    +0.155 HD
ENDROOT
BRANCH   3   6
ATOM      5  N   UNL     1      32.563 -23.817 -13.570  0.00  0.00    -0.229 NA
ATOM      6  C   UNL     1      32.870 -22.886 -15.751  0.00  0.00    +0.085 C 
ATOM      7  C   UNL     1      33.354 -23.313 -14.542  0.00  0.00    +0.133 C 
ATOM      8  C   UNL     1      31.522 -22.959 -16.018  0.00  0.00    +0.009 C 
ATOM      9  C   UNL     1      30.675 -23.473 -15.041  0.00  0.00    +0.021 C 
ATOM     10  C   UNL     1      31.240 -23.885 -13.845  0.00  0.00    +0.100 C 
ATOM     11  N   UNL     1      34.745 -23.228 -14.284  0.00  0.00    -0.314 N 
ATOM     12  H   UNL     1      35.334 -22.862 -14.983  0.00  0.00    +0.149 HD
BRANCH  11  13
ATOM     13  C   UNL     1      35.326 -23.652 -13.052  0.00  0.00    +0.115 C 
BRANCH  13  15
ATOM     14  N   UNL     1      38.675 -26.226 -13.781  0.00  0.00    -0.242 NA
ATOM     15  C   UNL     1      36.502 -24.555 -13.308  0.00  0.00    +0.000 C 
ATOM     16  C   UNL     1      37.534 -24.613 -12.388  0.00  0.00    +0.018 C 
ATOM     17  C   UNL     1      36.539 -25.320 -14.461  0.00  0.00    +0.018 C 
ATOM     18  C   UNL     1      38.593 -25.459 -12.670  0.00  0.00    +0.099 C 
ATOM     19  C   UNL     1      37.643 -26.136 -14.650  0.00  0.00    +0.099 C 
ENDBRANCH  13  15
ENDBRANCH  11  13
ENDBRANCH   3   6
BRANCH   2  20
ATOM     20  C   UNL     1      33.778 -20.705 -18.713  0.00  0.00    +0.051 C 
ATOM     21  C   UNL     1      32.977 -20.063 -19.658  0.00  0.00    +0.018 C 
ATOM     22  C   UNL     1      35.167 -20.683 -18.844  0.00  0.00    +0.018 C 
ATOM     23  C   UNL     1      34.954 -19.375 -20.866  0.00  0.00    +0.145 C 
ATOM     24  C   UNL     1      33.566 -19.398 -20.734  0.00  0.00    +0.039 C 
ATOM     25  C   UNL     1      35.755 -20.017 -19.921  0.00  0.00    +0.039 C 
BRANCH  23  26
ATOM     26  O   UNL     1      35.528 -18.728 -21.916  0.00  0.00    -0.453 OA
BRANCH  26  27
ATOM     27  C   UNL     1      35.343 -17.359 -22.008  0.00  0.00    +0.145 C 
ATOM     28  C   UNL     1      35.157 -16.787 -23.255  0.00  0.00    +0.037 C 
ATOM     29  C   UNL     1      35.349 -16.599 -20.853  0.00  0.00    +0.037 C 
ATOM     30  C   UNL     1      34.972 -15.407 -23.348  0.00  0.00    +0.003 C 
ATOM     31  C   UNL     1      35.164 -15.219 -20.946  0.00  0.00    +0.003 C 
ATOM     32  C   UNL     1      34.976 -14.624 -22.193  0.00  0.00    +0.000 C 
ENDBRANCH  26  27
ENDBRANCH  23  26
ENDBRANCH   2  20
TORSDOF 6
ENDMDL
MODEL 4
REMARK VINA RESULT:     -11.5      1.639      4.641
REMARK  Name = 16040289
REMARK  6 active torsions:
REMARK  status: ('A' for Active; 'I' for Inactive)
REMARK    1  A    between atoms: N_2  and  C_20
REMARK    2  A    between atoms: C_3  and  C_6
REMARK    3  A    between atoms: N_11  and  C_13
REMARK    4  A    between atoms: C_13  and  C_15
REMARK    5  A    between atoms: C_23  and  O_26
REMARK    6  A    between atoms: O_26  and  C_27
REMARK                            x       y       z     vdW  Elec       q    Type
REMARK                         _______ _______ _______ _____ _____    ______ ____
ROOT
ATOM      1  O   UNL     1      36.753 -24.018 -15.378  0.00  0.00    -0.270 OA
ATOM      2  N   UNL     1      35.808 -21.865 -15.364  0.00  0.00    -0.280 N 
ATOM      3  C   UNL     1      36.283 -23.050 -14.788  0.00  0.00    +0.252 C 
ATOM      4  H   UNL     1      35.462 -21.189 -14.736  0.00  0.00    +0.155 HD
ENDROOT
BRANCH   3   6
ATOM      5  N   UNL     1      34.874 -23.588 -11.351  0.00  0.00    -0.229 NA
ATOM      6  C   UNL     1      36.170 -23.131 -13.309  0.00  0.00    +0.085 C 
ATOM      7  C   UNL     1      35.005 -23.507 -12.694  0.00  0.00    +0.133 C 
ATOM      8  C   UNL     1      37.276 -22.815 -12.553  0.00  0.00    +0.009 C 
ATOM      9  C   UNL     1      37.181 -22.887 -11.168  0.00  0.00    +0.021 C 
ATOM     10  C   UNL     1      35.968 -23.275 -10.621  0.00  0.00    +0.100 C 
ATOM     11  N   UNL     1      33.876 -23.830 -13.488  0.00  0.00    -0.314 N 
ATOM     12  H   UNL     1      33.956 -23.777 -14.468  0.00  0.00    +0.149 HD
BRANCH  11  13
ATOM     13  C   UNL     1      32.628 -24.229 -12.924  0.00  0.00    +0.115 C 
BRANCH  13  15
ATOM     14  N   UNL     1      29.401 -23.218 -15.557  0.00  0.00    -0.242 NA
ATOM     15  C   UNL     1      31.495 -23.875 -13.848  0.00  0.00    +0.000 C 
ATOM     16  C   UNL     1      30.344 -24.644 -13.849  0.00  0.00    +0.018 C 
ATOM     17  C   UNL     1      31.615 -22.782 -14.690  0.00  0.00    +0.018 C 
ATOM     18  C   UNL     1      29.331 -24.276 -14.718  0.00  0.00    +0.099 C 
ATOM     19  C   UNL     1      30.543 -22.497 -15.521  0.00  0.00    +0.099 C 
ENDBRANCH  13  15
ENDBRANCH  11  13
ENDBRANCH   3   6
BRANCH   2  20
ATOM     20  C   UNL     1      35.764 -21.523 -16.715  0.00  0.00    +0.051 C 
ATOM     21  C   UNL     1      36.882 -20.957 -17.329  0.00  0.00    +0.018 C 
ATOM     22  C   UNL     1      34.601 -21.747 -17.453  0.00  0.00    +0.018 C 
ATOM     23  C   UNL     1      35.675 -20.839 -19.419  0.00  0.00    +0.145 C 
ATOM     24  C   UNL     1      36.837 -20.616 -18.681  0.00  0.00    +0.039 C 
ATOM     25  C   UNL     1      34.557 -21.405 -18.805  0.00  0.00    +0.039 C 
BRANCH  23  26
ATOM     26  O   UNL     1      35.630 -20.504 -20.737  0.00  0.00    -0.453 OA
BRANCH  26  27
ATOM     27  C   UNL     1      35.531 -19.160 -21.057  0.00  0.00    +0.145 C 
ATOM     28  C   UNL     1      35.769 -18.215 -20.075  0.00  0.00    +0.037 C 
ATOM     29  C   UNL     1      35.196 -18.798 -22.349  0.00  0.00    +0.037 C 
ATOM     30  C   UNL     1      35.669 -16.861 -20.397  0.00  0.00    +0.003 C 
ATOM     31  C   UNL     1      35.095 -17.444 -22.671  0.00  0.00    +0.003 C 
ATOM     32  C   UNL     1      35.332 -16.477 -21.695  0.00  0.00    +0.000 C 
ENDBRANCH  26  27
ENDBRANCH  23  26
ENDBRANCH   2  20
TORSDOF 6
ENDMDL
MODEL 5
REMARK VINA RESULT:     -11.3      6.407     12.242
REMARK  Name = 16040289
REMARK  6 active torsions:
REMARK  status: ('A' for Active; 'I' for Inactive)
REMARK    1  A    between atoms: N_2  and  C_20
REMARK    2  A    between atoms: C_3  and  C_6
REMARK    3  A    between atoms: N_11  and  C_13
REMARK    4  A    between atoms: C_13  and  C_15
REMARK    5  A    between atoms: C_23  and  O_26
REMARK    6  A    between atoms: O_26  and  C_27
REMARK                            x       y       z     vdW  Elec       q    Type
REMARK                         _______ _______ _______ _____ _____    ______ ____
ROOT
ATOM      1  O   UNL     1      33.095 -13.579 -23.925  0.00  0.00    -0.270 OA
ATOM      2  N   UNL     1      34.791 -13.434 -22.303  0.00  0.00    -0.280 N 
ATOM      3  C   UNL     1      33.844 -12.929 -23.203  0.00  0.00    +0.252 C 
ATOM      4  H   UNL     1      35.310 -12.764 -21.802  0.00  0.00    +0.155 HD
ENDROOT
BRANCH   3   6
ATOM      5  N   UNL     1      32.744  -9.378 -22.689  0.00  0.00    -0.229 NA
ATOM      6  C   UNL     1      33.778 -11.447 -23.295  0.00  0.00    +0.085 C 
ATOM      7  C   UNL     1      32.827 -10.725 -22.622  0.00  0.00    +0.133 C 
ATOM      8  C   UNL     1      34.705 -10.801 -24.080  0.00  0.00    +0.009 C 
ATOM      9  C   UNL     1      34.652  -9.415 -24.174  0.00  0.00    +0.021 C 
ATOM     10  C   UNL     1      33.660  -8.756 -23.464  0.00  0.00    +0.100 C 
ATOM     11  N   UNL     1      31.881 -11.407 -21.817  0.00  0.00    -0.314 N 
ATOM     12  H   UNL     1      31.930 -12.389 -21.758  0.00  0.00    +0.149 HD
BRANCH  11  13
ATOM     13  C   UNL     1      30.861 -10.727 -21.087  0.00  0.00    +0.115 C 
BRANCH  13  15
ATOM     14  N   UNL     1      32.391  -9.294 -17.349  0.00  0.00    -0.242 NA
ATOM     15  C   UNL     1      31.399 -10.224 -19.775  0.00  0.00    +0.000 C 
ATOM     16  C   UNL     1      32.039  -8.998 -19.722  0.00  0.00    +0.018 C 
ATOM     17  C   UNL     1      31.247 -10.992 -18.634  0.00  0.00    +0.018 C 
ATOM     18  C   UNL     1      32.516  -8.580 -18.491  0.00  0.00    +0.099 C 
ATOM     19  C   UNL     1      31.758 -10.484 -17.450  0.00  0.00    +0.099 C 
ENDBRANCH  13  15
ENDBRANCH  11  13
ENDBRANCH   3   6
BRANCH   2  20
ATOM     20  C   UNL     1      35.089 -14.769 -22.028  0.00  0.00    +0.051 C 
ATOM     21  C   UNL     1      35.140 -15.215 -20.708  0.00  0.00    +0.018 C 
ATOM     22  C   UNL     1      35.338 -15.656 -23.076  0.00  0.00    +0.018 C 
ATOM     23  C   UNL     1      35.687 -17.438 -21.481  0.00  0.00    +0.145 C 
ATOM     24  C   UNL     1      35.439 -16.551 -20.434  0.00  0.00    +0.039 C 
ATOM     25  C   UNL     1      35.636 -16.992 -22.801  0.00  0.00    +0.039 C 
BRANCH  23  26
ATOM     26  O   UNL     1      35.980 -18.740 -21.214  0.00  0.00    -0.453 OA
BRANCH  26  27
ATOM     27  C   UNL     1      35.117 -19.438 -20.387  0.00  0.00    +0.145 C 
ATOM     28  C   UNL     1      33.752 -19.279 -20.549  0.00  0.00    +0.037 C 
ATOM     29  C   UNL     1      35.641 -20.276 -19.419  0.00  0.00    +0.037 C 
ATOM     30  C   UNL     1      32.882 -19.981 -19.715  0.00  0.00    +0.003 C 
ATOM     31  C   UNL     1      34.771 -20.979 -18.585  0.00  0.00    +0.003 C 
ATOM     32  C   UNL     1      33.392 -20.831 -18.733  0.00  0.00    +0.000 C 
ENDBRANCH  26  27
ENDBRANCH  23  26
ENDBRANCH   2  20
TORSDOF 6
ENDMDL
MODEL 6
REMARK VINA RESULT:     -11.3      1.577      4.439
REMARK  Name = 16040289
REMARK  6 active torsions:
REMARK  status: ('A' for Active; 'I' for Inactive)
REMARK    1  A    between atoms: N_2  and  C_20
REMARK    2  A    between atoms: C_3  and  C_6
REMARK    3  A    between atoms: N_11  and  C_13
REMARK    4  A    between atoms: C_13  and  C_15
REMARK    5  A    between atoms: C_23  and  O_26
REMARK    6  A    between atoms: O_26  and  C_27
REMARK                            x       y       z     vdW  Elec       q    Type
REMARK                         _______ _______ _______ _____ _____    ______ ____
ROOT
ATOM      1  O   UNL     1      37.457 -21.090 -15.545  0.00  0.00    -0.270 OA
ATOM      2  N   UNL     1      35.651 -22.420 -16.249  0.00  0.00    -0.280 N 
ATOM      3  C   UNL     1      36.730 -22.071 -15.427  0.00  0.00    +0.252 C 
ATOM      4  H   UNL     1      35.174 -23.248 -16.007  0.00  0.00    +0.155 HD
ENDROOT
BRANCH   3   6
ATOM      5  N   UNL     1      36.283 -24.284 -12.429  0.00  0.00    -0.229 NA
ATOM      6  C   UNL     1      37.020 -23.018 -14.319  0.00  0.00    +0.085 C 
ATOM      7  C   UNL     1      36.046 -23.425 -13.446  0.00  0.00    +0.133 C 
ATOM      8  C   UNL     1      38.307 -23.487 -14.184  0.00  0.00    +0.009 C 
ATOM      9  C   UNL     1      38.590 -24.372 -13.150  0.00  0.00    +0.021 C 
ATOM     10  C   UNL     1      37.551 -24.737 -12.307  0.00  0.00    +0.100 C 
ATOM     11  N   UNL     1      34.726 -22.933 -13.601  0.00  0.00    -0.314 N 
ATOM     12  H   UNL     1      34.539 -22.308 -14.338  0.00  0.00    +0.149 HD
BRANCH  11  13
ATOM     13  C   UNL     1      33.658 -23.309 -12.733  0.00  0.00    +0.115 C 
BRANCH  13  15
ATOM     14  N   UNL     1      29.991 -23.645 -14.926  0.00  0.00    -0.242 NA
ATOM     15  C   UNL     1      32.371 -23.426 -13.503  0.00  0.00    +0.000 C 
ATOM     16  C   UNL     1      32.004 -22.422 -14.381  0.00  0.00    +0.018 C 
ATOM     17  C   UNL     1      31.566 -24.539 -13.324  0.00  0.00    +0.018 C 
ATOM     18  C   UNL     1      30.810 -22.578 -15.066  0.00  0.00    +0.099 C 
ATOM     19  C   UNL     1      30.391 -24.600 -14.057  0.00  0.00    +0.099 C 
ENDBRANCH  13  15
ENDBRANCH  11  13
ENDBRANCH   3   6
BRANCH   2  20
ATOM     20  C   UNL     1      35.168 -21.742 -17.368  0.00  0.00    +0.051 C 
ATOM     21  C   UNL     1      33.798 -21.711 -17.629  0.00  0.00    +0.018 C 
ATOM     22  C   UNL     1      36.056 -21.095 -18.228  0.00  0.00    +0.018 C 
ATOM     23  C   UNL     1      34.203 -20.385 -19.608  0.00  0.00    +0.145 C 
ATOM     24  C   UNL     1      33.316 -21.032 -18.748  0.00  0.00    +0.039 C 
ATOM     25  C   UNL     1      35.573 -20.416 -19.347  0.00  0.00    +0.039 C 
BRANCH  23  26
ATOM     26  O   UNL     1      33.733 -19.725 -20.700  0.00  0.00    -0.453 OA
BRANCH  26  27
ATOM     27  C   UNL     1      34.482 -18.666 -21.184  0.00  0.00    +0.145 C 
ATOM     28  C   UNL     1      34.850 -17.650 -20.320  0.00  0.00    +0.037 C 
ATOM     29  C   UNL     1      34.843 -18.650 -22.520  0.00  0.00    +0.037 C 
ATOM     30  C   UNL     1      35.603 -16.582 -20.808  0.00  0.00    +0.003 C 
ATOM     31  C   UNL     1      35.597 -17.582 -23.008  0.00  0.00    +0.003 C 
ATOM     32  C   UNL     1      35.976 -16.548 -22.151  0.00  0.00    +0.000 C 
ENDBRANCH  26  27
ENDBRANCH  23  26
ENDBRANCH   2  20
TORSDOF 6
ENDMDL
MODEL 7
REMARK VINA RESULT:     -11.3      6.660     12.778
REMARK  Name = 16040289
REMARK  6 active torsions:
REMARK  status: ('A' for Active; 'I' for Inactive)
REMARK    1  A    between atoms: N_2  and  C_20
REMARK    2  A    between atoms: C_3  and  C_6
REMARK    3  A    between atoms: N_11  and  C_13
REMARK    4  A    between atoms: C_13  and  C_15
REMARK    5  A    between atoms: C_23  and  O_26
REMARK    6  A    between atoms: O_26  and  C_27
REMARK                            x       y       z     vdW  Elec       q    Type
REMARK                         _______ _______ _______ _____ _____    ______ ____
ROOT
ATOM      1  O   UNL     1      31.625 -12.860 -20.701  0.00  0.00    -0.270 OA
ATOM      2  N   UNL     1      33.931 -12.637 -20.301  0.00  0.00    -0.280 N 
ATOM      3  C   UNL     1      32.597 -12.209 -20.335  0.00  0.00    +0.252 C 
ATOM      4  H   UNL     1      34.587 -11.978 -19.976  0.00  0.00    +0.155 HD
ENDROOT
BRANCH   3   6
ATOM      5  N   UNL     1      32.185  -8.479 -20.425  0.00  0.00    -0.229 NA
ATOM      6  C   UNL     1      32.367 -10.806 -19.902  0.00  0.00    +0.085 C 
ATOM      7  C   UNL     1      32.390  -9.764 -20.792  0.00  0.00    +0.133 C 
ATOM      8  C   UNL     1      32.125 -10.567 -18.568  0.00  0.00    +0.009 C 
ATOM      9  C   UNL     1      31.909  -9.258 -18.152  0.00  0.00    +0.021 C 
ATOM     10  C   UNL     1      31.949  -8.259 -19.112  0.00  0.00    +0.100 C 
ATOM     11  N   UNL     1      32.640 -10.029 -22.162  0.00  0.00    -0.314 N 
ATOM     12  H   UNL     1      32.790 -10.960 -22.443  0.00  0.00    +0.149 HD
BRANCH  11  13
ATOM     13  C   UNL     1      32.680  -8.999 -23.148  0.00  0.00    +0.115 C 
BRANCH  13  15
ATOM     14  N   UNL     1      36.081  -9.507 -25.707  0.00  0.00    -0.242 NA
ATOM     15  C   UNL     1      33.874  -9.178 -24.047  0.00  0.00    +0.000 C 
ATOM     16  C   UNL     1      33.871 -10.182 -24.999  0.00  0.00    +0.018 C 
ATOM     17  C   UNL     1      34.964  -8.336 -23.911  0.00  0.00    +0.018 C 
ATOM     18  C   UNL     1      34.993 -10.305 -25.801  0.00  0.00    +0.099 C 
ATOM     19  C   UNL     1      36.038  -8.541 -24.763  0.00  0.00    +0.099 C 
ENDBRANCH  13  15
ENDBRANCH  11  13
ENDBRANCH   3   6
BRANCH   2  20
ATOM     20  C   UNL     1      34.444 -13.880 -20.669  0.00  0.00    +0.051 C 
ATOM     21  C   UNL     1      34.688 -14.164 -22.012  0.00  0.00    +0.018 C 
ATOM     22  C   UNL     1      34.711 -14.840 -19.693  0.00  0.00    +0.018 C 
ATOM     23  C   UNL     1      35.469 -16.369 -21.405  0.00  0.00    +0.145 C 
ATOM     24  C   UNL     1      35.202 -15.409 -22.380  0.00  0.00    +0.039 C 
ATOM     25  C   UNL     1      35.225 -16.085 -20.061  0.00  0.00    +0.039 C 
BRANCH  23  26
ATOM     26  O   UNL     1      35.968 -17.583 -21.763  0.00  0.00    -0.453 OA
BRANCH  26  27
ATOM     27  C   UNL     1      35.805 -18.633 -20.876  0.00  0.00    +0.145 C 
ATOM     28  C   UNL     1      34.539 -19.153 -20.672  0.00  0.00    +0.037 C 
ATOM     29  C   UNL     1      36.912 -19.137 -20.217  0.00  0.00    +0.037 C 
ATOM     30  C   UNL     1      34.375 -20.211 -19.777  0.00  0.00    +0.003 C 
ATOM     31  C   UNL     1      36.748 -20.195 -19.322  0.00  0.00    +0.003 C 
ATOM     32  C   UNL     1      35.479 -20.731 -19.103  0.00  0.00    +0.000 C 
ENDBRANCH  26  27
ENDBRANCH  23  26
ENDBRANCH   2  20
TORSDOF 6
ENDMDL
MODEL 8
REMARK VINA RESULT:     -11.1      3.808     10.474
REMARK  Name = 16040289
REMARK  6 active torsions:
REMARK  status: ('A' for Active; 'I' for Inactive)
REMARK    1  A    between atoms: N_2  and  C_20
REMARK    2  A    between atoms: C_3  and  C_6
REMARK    3  A    between atoms: N_11  and  C_13
REMARK    4  A    between atoms: C_13  and  C_15
REMARK    5  A    between atoms: C_23  and  O_26
REMARK    6  A    between atoms: O_26  and  C_27
REMARK                            x       y       z     vdW  Elec       q    Type
REMARK                         _______ _______ _______ _____ _____    ______ ____
ROOT
ATOM      1  O   UNL     1      35.924 -17.509 -20.374  0.00  0.00    -0.270 OA
ATOM      2  N   UNL     1      34.489 -19.274 -20.966  0.00  0.00    -0.280 N 
ATOM      3  C   UNL     1      35.165 -18.063 -21.161  0.00  0.00    +0.252 C 
ATOM      4  H   UNL     1      33.916 -19.573 -21.709  0.00  0.00    +0.155 HD
ENDROOT
BRANCH   3   6
ATOM      5  N   UNL     1      34.678 -15.378 -23.737  0.00  0.00    -0.229 NA
ATOM      6  C   UNL     1      34.897 -17.385 -22.456  0.00  0.00    +0.085 C 
ATOM      7  C   UNL     1      34.919 -16.020 -22.573  0.00  0.00    +0.133 C 
ATOM      8  C   UNL     1      34.621 -18.166 -23.555  0.00  0.00    +0.009 C 
ATOM      9  C   UNL     1      34.368 -17.541 -24.772  0.00  0.00    +0.021 C 
ATOM     10  C   UNL     1      34.408 -16.156 -24.809  0.00  0.00    +0.100 C 
ATOM     11  N   UNL     1      35.206 -15.232 -21.430  0.00  0.00    -0.314 N 
ATOM     12  H   UNL     1      35.385 -15.686 -20.576  0.00  0.00    +0.149 HD
BRANCH  11  13
ATOM     13  C   UNL     1      35.247 -13.807 -21.470  0.00  0.00    +0.115 C 
BRANCH  13  15
ATOM     14  N   UNL     1      31.516 -12.158 -20.156  0.00  0.00    -0.242 NA
ATOM     15  C   UNL     1      33.937 -13.229 -21.009  0.00  0.00    +0.000 C 
ATOM     16  C   UNL     1      33.322 -13.740 -19.879  0.00  0.00    +0.018 C 
ATOM     17  C   UNL     1      33.359 -12.190 -21.719  0.00  0.00    +0.018 C 
ATOM     18  C   UNL     1      32.119 -13.173 -19.496  0.00  0.00    +0.099 C 
ATOM     19  C   UNL     1      32.153 -11.692 -21.253  0.00  0.00    +0.099 C 
ENDBRANCH  13  15
ENDBRANCH  11  13
ENDBRANCH   3   6
BRANCH   2  20
ATOM     20  C   UNL     1      34.527 -20.109 -19.849  0.00  0.00    +0.051 C 
ATOM     21  C   UNL     1      35.750 -20.436 -19.264  0.00  0.00    +0.018 C 
ATOM     22  C   UNL     1      33.340 -20.618 -19.319  0.00  0.00    +0.018 C 
ATOM     23  C   UNL     1      34.601 -21.781 -17.616  0.00  0.00    +0.145 C 
ATOM     24  C   UNL     1      35.786 -21.272 -18.146  0.00  0.00    +0.039 C 
ATOM     25  C   UNL     1      33.378 -21.454 -18.202  0.00  0.00    +0.039 C 
BRANCH  23  26
ATOM     26  O   UNL     1      34.638 -22.597 -16.528  0.00  0.00    -0.453 OA
BRANCH  26  27
ATOM     27  C   UNL     1      33.531 -22.612 -15.697  0.00  0.00    +0.145 C 
ATOM     28  C   UNL     1      33.718 -22.639 -14.326  0.00  0.00    +0.037 C 
ATOM     29  C   UNL     1      32.266 -22.599 -16.257  0.00  0.00    +0.037 C 
ATOM     30  C   UNL     1      32.603 -22.655 -13.488  0.00  0.00    +0.003 C 
ATOM     31  C   UNL     1      31.151 -22.615 -15.419  0.00  0.00    +0.003 C 
ATOM     32  C   UNL     1      31.320 -22.643 -14.035  0.00  0.00    +0.000 C 
ENDBRANCH  26  27
ENDBRANCH  23  26
ENDBRANCH   2  20
TORSDOF 6
ENDMDL
MODEL 9
REMARK VINA RESULT:     -10.5      7.507     13.137
REMARK  Name = 16040289
REMARK  6 active torsions:
REMARK  status: ('A' for Active; 'I' for Inactive)
REMARK    1  A    between atoms: N_2  and  C_20
REMARK    2  A    between atoms: C_3  and  C_6
REMARK    3  A    between atoms: N_11  and  C_13
REMARK    4  A    between atoms: C_13  and  C_15
REMARK    5  A    between atoms: C_23  and  O_26
REMARK    6  A    between atoms: O_26  and  C_27
REMARK                            x       y       z     vdW  Elec       q    Type
REMARK                         _______ _______ _______ _____ _____    ______ ____
ROOT
ATOM      1  O   UNL     1      33.861 -11.535 -25.452  0.00  0.00    -0.270 OA
ATOM      2  N   UNL     1      34.617 -11.992 -23.273  0.00  0.00    -0.280 N 
ATOM      3  C   UNL     1      34.236 -11.171 -24.342  0.00  0.00    +0.252 C 
ATOM      4  H   UNL     1      34.893 -11.527 -22.450  0.00  0.00    +0.155 HD
ENDROOT
BRANCH   3   6
ATOM      5  N   UNL     1      33.499  -7.730 -23.038  0.00  0.00    -0.229 NA
ATOM      6  C   UNL     1      34.332  -9.710 -24.090  0.00  0.00    +0.085 C 
ATOM      7  C   UNL     1      33.436  -9.058 -23.284  0.00  0.00    +0.133 C 
ATOM      8  C   UNL     1      35.353  -9.010 -24.691  0.00  0.00    +0.009 C 
ATOM      9  C   UNL     1      35.451  -7.642 -24.462  0.00  0.00    +0.021 C 
ATOM     10  C   UNL     1      34.507  -7.055 -23.635  0.00  0.00    +0.100 C 
ATOM     11  N   UNL     1      32.391  -9.794 -22.672  0.00  0.00    -0.314 N 
ATOM     12  H   UNL     1      32.334 -10.762 -22.841  0.00  0.00    +0.149 HD
BRANCH  11  13
ATOM     13  C   UNL     1      31.420  -9.188 -21.820  0.00  0.00    +0.115 C 
BRANCH  13  15
ATOM     14  N   UNL     1      31.875 -10.588 -17.795  0.00  0.00    -0.242 NA
ATOM     15  C   UNL     1      31.580  -9.679 -20.407  0.00  0.00    +0.000 C 
ATOM     16  C   UNL     1      31.955  -8.793 -19.412  0.00  0.00    +0.018 C 
ATOM     17  C   UNL     1      31.350 -11.013 -20.116  0.00  0.00    +0.018 C 
ATOM     18  C   UNL     1      32.088  -9.295 -18.128  0.00  0.00    +0.099 C 
ATOM     19  C   UNL     1      31.510 -11.415 -18.799  0.00  0.00    +0.099 C 
ENDBRANCH  13  15
ENDBRANCH  11  13
ENDBRANCH   3   6
BRANCH   2  20
ATOM     20  C   UNL     1      34.653 -13.386 -23.230  0.00  0.00    +0.051 C 
ATOM     21  C   UNL     1      34.321 -14.128 -24.364  0.00  0.00    +0.018 C 
ATOM     22  C   UNL     1      35.020 -14.037 -22.053  0.00  0.00    +0.018 C 
ATOM     23  C   UNL     1      34.725 -16.174 -23.143  0.00  0.00    +0.145 C 
ATOM     24  C   UNL     1      34.357 -15.522 -24.320  0.00  0.00    +0.039 C 
ATOM     25  C   UNL     1      35.057 -15.432 -22.009  0.00  0.00    +0.039 C 
BRANCH  23  26
ATOM     26  O   UNL     1      34.758 -17.533 -23.099  0.00  0.00    -0.453 OA
BRANCH  26  27
ATOM     27  C   UNL     1      35.376 -18.128 -22.012  0.00  0.00    +0.145 C 
ATOM     28  C   UNL     1      34.638 -18.964 -21.193  0.00  0.00    +0.037 C 
ATOM     29  C   UNL     1      36.713 -17.871 -21.772  0.00  0.00    +0.037 C 
ATOM     30  C   UNL     1      35.260 -19.562 -20.097  0.00  0.00    +0.003 C 
ATOM     31  C   UNL     1      37.335 -18.469 -20.676  0.00  0.00    +0.003 C 
ATOM     32  C   UNL     1      36.608 -19.315 -19.839  0.00  0.00    +0.000 C 
ENDBRANCH  26  27
ENDBRANCH  23  26
ENDBRANCH   2  20
TORSDOF 6
ENDMDL
