MODEL 1
REMARK VINA RESULT:     -12.2      0.000      0.000
REMARK  Name = 10274777
REMARK  10 active torsions:
REMARK  status: ('A' for Active; 'I' for Inactive)
REMARK    1  A    between atoms: C_2  and  C_25
REMARK    2  A    between atoms: C_5  and  O_10
REMARK    3  A    between atoms: O_10  and  C_11
REMARK    4  A    between atoms: C_11  and  C_12
REMARK    5  A    between atoms: C_12  and  C_15
REMARK    6  A    between atoms: C_17  and  C_19
REMARK    7  A    between atoms: C_25  and  C_26
REMARK    8  A    between atoms: C_26  and  O_27
REMARK    9  A    between atoms: C_26  and  C_30
REMARK   10  A    between atoms: C_30  and  O_31
REMARK                            x       y       z     vdW  Elec       q    Type
REMARK                         _______ _______ _______ _____ _____    ______ ____
ROOT
ATOM      1  S   UNL     1      32.534 -23.535 -13.866  0.00  0.00    -0.087 S 
ATOM      2  C   UNL     1      35.300 -23.217 -13.503  0.00  0.00    -0.013 C 
ATOM      3  C   UNL     1      34.149 -23.128 -14.310  0.00  0.00    +0.029 C 
ATOM      4  C   UNL     1      34.215 -22.672 -15.629  0.00  0.00    +0.040 C 
ATOM      5  C   UNL     1      35.478 -22.296 -16.145  0.00  0.00    +0.139 C 
ATOM      6  C   UNL     1      36.532 -22.839 -14.041  0.00  0.00    -0.001 C 
ATOM      7  C   UNL     1      36.622 -22.383 -15.348  0.00  0.00    +0.037 C 
ATOM      8  C   UNL     1      32.917 -22.671 -16.244  0.00  0.00    +0.010 C 
ATOM      9  C   UNL     1      31.925 -23.114 -15.401  0.00  0.00    +0.036 C 
ENDROOT
BRANCH   5  10
ATOM     10  O   UNL     1      35.609 -21.840 -17.434  0.00  0.00    -0.475 OA
BRANCH  10  11
ATOM     11  C   UNL     1      36.673 -20.932 -17.684  0.00  0.00    +0.213 C 
BRANCH  11  12
ATOM     12  C   UNL     1      36.811 -20.702 -19.186  0.00  0.00    +0.105 C 
BRANCH  12  15
ATOM     13  O   UNL     1      34.160 -18.473 -20.340  0.00  0.00    -0.449 OA
ATOM     14  N   UNL     1      36.406 -18.430 -20.075  0.00  0.00    -0.373 NA
ATOM     15  C   UNL     1      35.895 -19.627 -19.698  0.00  0.00    +0.134 C 
ATOM     16  C   UNL     1      34.552 -19.681 -19.845  0.00  0.00    +0.216 C 
ATOM     17  C   UNL     1      35.327 -17.780 -20.449  0.00  0.00    +0.277 C 
ATOM     18  C   UNL     1      33.502 -20.678 -19.610  0.00  0.00    +0.055 C 
BRANCH  17  19
ATOM     19  C   UNL     1      35.199 -16.443 -20.958  0.00  0.00    +0.066 C 
ATOM     20  C   UNL     1      35.351 -16.194 -22.326  0.00  0.00    +0.006 C 
ATOM     21  C   UNL     1      34.923 -15.383 -20.091  0.00  0.00    +0.006 C 
ATOM     22  C   UNL     1      35.227 -14.897 -22.821  0.00  0.00    +0.000 C 
ATOM     23  C   UNL     1      34.799 -14.085 -20.587  0.00  0.00    +0.000 C 
ATOM     24  C   UNL     1      34.951 -13.841 -21.951  0.00  0.00    +0.000 C 
ENDBRANCH  17  19
ENDBRANCH  12  15
ENDBRANCH  11  12
ENDBRANCH  10  11
ENDBRANCH   5  10
BRANCH   2  25
ATOM     25  C   UNL     1      35.261 -23.699 -12.087  0.00  0.00    +0.068 C 
BRANCH  25  26
ATOM     26  C   UNL     1      36.663 -23.925 -11.504  0.00  0.00    +0.218 C 
BRANCH  26  27
ATOM     27  O   UNL     1      36.817 -25.311 -11.218  0.00  0.00    -0.342 OA
ATOM     28  C   UNL     1      37.595 -25.964 -12.211  0.00  0.00    +0.175 C 
ENDBRANCH  26  27
BRANCH  26  30
ATOM     29  O   UNL     1      36.420 -23.535  -9.116  0.00  0.00    -0.248 OA
ATOM     30  C   UNL     1      36.845 -23.169 -10.204  0.00  0.00    +0.342 C 
BRANCH  30  31
ATOM     31  O   UNL     1      37.558 -22.025 -10.372  0.00  0.00    -0.479 OA
ATOM     32  H   UNL     1      37.287 -21.394 -11.010  0.00  0.00    +0.295 HD
ENDBRANCH  30  31
ENDBRANCH  26  30
ENDBRANCH  25  26
ENDBRANCH   2  25
TORSDOF 10
ENDMDL
MODEL 2
REMARK VINA RESULT:     -11.2      1.264      1.921
REMARK  Name = 10274777
REMARK  10 active torsions:
REMARK  status: ('A' for Active; 'I' for Inactive)
REMARK    1  A    between atoms: C_2  and  C_25
REMARK    2  A    between atoms: C_5  and  O_10
REMARK    3  A    between atoms: O_10  and  C_11
REMARK    4  A    between atoms: C_11  and  C_12
REMARK    5  A    between atoms: C_12  and  C_15
REMARK    6  A    between atoms: C_17  and  C_19
REMARK    7  A    between atoms: C_25  and  C_26
REMARK    8  A    between atoms: C_26  and  O_27
REMARK    9  A    between atoms: C_26  and  C_30
REMARK   10  A    between atoms: C_30  and  O_31
REMARK                            x       y       z     vdW  Elec       q    Type
REMARK                         _______ _______ _______ _____ _____    ______ ____
ROOT
ATOM      1  S   UNL     1      31.859 -23.993 -12.853  0.00  0.00    -0.087 S 
ATOM      2  C   UNL     1      34.592 -23.466 -13.229  0.00  0.00    -0.013 C 
ATOM      3  C   UNL     1      33.279 -23.558 -13.729  0.00  0.00    +0.029 C 
ATOM      4  C   UNL     1      32.986 -23.288 -15.069  0.00  0.00    +0.040 C 
ATOM      5  C   UNL     1      34.051 -22.915 -15.925  0.00  0.00    +0.139 C 
ATOM      6  C   UNL     1      35.620 -23.095 -14.098  0.00  0.00    -0.001 C 
ATOM      7  C   UNL     1      35.355 -22.823 -15.432  0.00  0.00    +0.037 C 
ATOM      8  C   UNL     1      31.586 -23.450 -15.338  0.00  0.00    +0.010 C 
ATOM      9  C   UNL     1      30.868 -23.828 -14.229  0.00  0.00    +0.036 C 
ENDROOT
BRANCH   5  10
ATOM     10  O   UNL     1      33.829 -22.638 -17.251  0.00  0.00    -0.475 OA
BRANCH  10  11
ATOM     11  C   UNL     1      34.437 -21.461 -17.766  0.00  0.00    +0.213 C 
BRANCH  11  12
ATOM     12  C   UNL     1      33.708 -21.016 -19.031  0.00  0.00    +0.105 C 
BRANCH  12  15
ATOM     13  O   UNL     1      36.158 -18.991 -20.826  0.00  0.00    -0.449 OA
ATOM     14  N   UNL     1      33.913 -19.262 -20.761  0.00  0.00    -0.373 NA
ATOM     15  C   UNL     1      34.528 -20.088 -19.880  0.00  0.00    +0.134 C 
ATOM     16  C   UNL     1      35.873 -19.947 -19.898  0.00  0.00    +0.216 C 
ATOM     17  C   UNL     1      34.933 -18.630 -21.299  0.00  0.00    +0.277 C 
ATOM     18  C   UNL     1      37.008 -20.550 -19.191  0.00  0.00    +0.055 C 
BRANCH  17  19
ATOM     19  C   UNL     1      34.944 -17.613 -22.313  0.00  0.00    +0.066 C 
ATOM     20  C   UNL     1      34.476 -17.899 -23.599  0.00  0.00    +0.006 C 
ATOM     21  C   UNL     1      35.424 -16.334 -22.022  0.00  0.00    +0.006 C 
ATOM     22  C   UNL     1      34.486 -16.913 -24.585  0.00  0.00    +0.000 C 
ATOM     23  C   UNL     1      35.434 -15.347 -23.008  0.00  0.00    +0.000 C 
ATOM     24  C   UNL     1      34.966 -15.636 -24.289  0.00  0.00    +0.000 C 
ENDBRANCH  17  19
ENDBRANCH  12  15
ENDBRANCH  11  12
ENDBRANCH  10  11
ENDBRANCH   5  10
BRANCH   2  25
ATOM     25  C   UNL     1      34.935 -23.747 -11.800  0.00  0.00    +0.068 C 
BRANCH  25  26
ATOM     26  C   UNL     1      36.446 -23.903 -11.578  0.00  0.00    +0.218 C 
BRANCH  26  27
ATOM     27  O   UNL     1      36.718 -25.261 -11.250  0.00  0.00    -0.342 OA
ATOM     28  C   UNL     1      37.578 -25.865 -12.206  0.00  0.00    +0.175 C 
ENDBRANCH  26  27
BRANCH  26  30
ATOM     29  O   UNL     1      37.629 -22.058 -10.524  0.00  0.00    -0.248 OA
ATOM     30  C   UNL     1      36.921 -23.050 -10.419  0.00  0.00    +0.342 C 
BRANCH  30  31
ATOM     31  O   UNL     1      36.455 -23.502  -9.226  0.00  0.00    -0.479 OA
ATOM     32  H   UNL     1      36.848 -23.206  -8.427  0.00  0.00    +0.295 HD
ENDBRANCH  30  31
ENDBRANCH  26  30
ENDBRANCH  25  26
ENDBRANCH   2  25
TORSDOF 10
ENDMDL
MODEL 3
REMARK VINA RESULT:     -10.9      6.451     12.609
REMARK  Name = 10274777
REMARK  10 active torsions:
REMARK  status: ('A' for Active; 'I' for Inactive)
REMARK    1  A    between atoms: C_2  and  C_25
REMARK    2  A    between atoms: C_5  and  O_10
REMARK    3  A    between atoms: O_10  and  C_11
REMARK    4  A    between atoms: C_11  and  C_12
REMARK    5  A    between atoms: C_12  and  C_15
REMARK    6  A    between atoms: C_17  and  C_19
REMARK    7  A    between atoms: C_25  and  C_26
REMARK    8  A    between atoms: C_26  and  O_27
REMARK    9  A    between atoms: C_26  and  C_30
REMARK   10  A    between atoms: C_30  and  O_31
REMARK                            x       y       z     vdW  Elec       q    Type
REMARK                         _______ _______ _______ _____ _____    ______ ____
ROOT
ATOM      1  S   UNL     1      33.642  -8.648 -23.527  0.00  0.00    -0.087 S 
ATOM      2  C   UNL     1      32.373 -10.187 -21.550  0.00  0.00    -0.013 C 
ATOM      3  C   UNL     1      33.199 -10.087 -22.687  0.00  0.00    +0.029 C 
ATOM      4  C   UNL     1      33.773 -11.217 -23.276  0.00  0.00    +0.040 C 
ATOM      5  C   UNL     1      33.503 -12.482 -22.699  0.00  0.00    +0.139 C 
ATOM      6  C   UNL     1      32.127 -11.449 -21.005  0.00  0.00    -0.001 C 
ATOM      7  C   UNL     1      32.685 -12.586 -21.572  0.00  0.00    +0.037 C 
ATOM      8  C   UNL     1      34.569 -10.861 -24.416  0.00  0.00    +0.010 C 
ATOM      9  C   UNL     1      34.581  -9.508 -24.659  0.00  0.00    +0.036 C 
ENDROOT
BRANCH   5  10
ATOM     10  O   UNL     1      34.036 -13.629 -23.232  0.00  0.00    -0.475 OA
BRANCH  10  11
ATOM     11  C   UNL     1      34.907 -14.376 -22.392  0.00  0.00    +0.213 C 
BRANCH  11  12
ATOM     12  C   UNL     1      35.574 -15.487 -23.199  0.00  0.00    +0.105 C 
BRANCH  12  15
ATOM     13  O   UNL     1      34.445 -18.896 -22.546  0.00  0.00    -0.449 OA
ATOM     14  N   UNL     1      35.552 -17.247 -21.463  0.00  0.00    -0.373 NA
ATOM     15  C   UNL     1      35.207 -16.860 -22.716  0.00  0.00    +0.134 C 
ATOM     16  C   UNL     1      34.543 -17.829 -23.387  0.00  0.00    +0.216 C 
ATOM     17  C   UNL     1      35.072 -18.470 -21.415  0.00  0.00    +0.277 C 
ATOM     18  C   UNL     1      33.949 -17.972 -24.720  0.00  0.00    +0.055 C 
BRANCH  17  19
ATOM     19  C   UNL     1      35.113 -19.424 -20.342  0.00  0.00    +0.066 C 
ATOM     20  C   UNL     1      33.928 -19.978 -19.849  0.00  0.00    +0.006 C 
ATOM     21  C   UNL     1      36.337 -19.802 -19.783  0.00  0.00    +0.006 C 
ATOM     22  C   UNL     1      33.966 -20.904 -18.807  0.00  0.00    +0.000 C 
ATOM     23  C   UNL     1      36.375 -20.729 -18.741  0.00  0.00    +0.000 C 
ATOM     24  C   UNL     1      35.191 -21.279 -18.252  0.00  0.00    +0.000 C 
ENDBRANCH  17  19
ENDBRANCH  12  15
ENDBRANCH  11  12
ENDBRANCH  10  11
ENDBRANCH   5  10
BRANCH   2  25
ATOM     25  C   UNL     1      31.748  -8.996 -20.897  0.00  0.00    +0.068 C 
BRANCH  25  26
ATOM     26  C   UNL     1      32.527  -8.526 -19.661  0.00  0.00    +0.218 C 
BRANCH  26  27
ATOM     27  O   UNL     1      31.683  -8.642 -18.521  0.00  0.00    -0.342 OA
ATOM     28  C   UNL     1      31.884  -9.876 -17.847  0.00  0.00    +0.175 C 
ENDBRANCH  26  27
BRANCH  26  30
ATOM     29  O   UNL     1      32.599  -6.329 -20.702  0.00  0.00    -0.248 OA
ATOM     30  C   UNL     1      32.928  -7.070 -19.785  0.00  0.00    +0.342 C 
BRANCH  30  31
ATOM     31  O   UNL     1      33.692  -6.658 -18.741  0.00  0.00    -0.479 OA
ATOM     32  H   UNL     1      34.102  -7.290 -18.182  0.00  0.00    +0.295 HD
ENDBRANCH  30  31
ENDBRANCH  26  30
ENDBRANCH  25  26
ENDBRANCH   2  25
TORSDOF 10
ENDMDL
MODEL 4
REMARK VINA RESULT:     -10.9      6.151     12.915
REMARK  Name = 10274777
REMARK  10 active torsions:
REMARK  status: ('A' for Active; 'I' for Inactive)
REMARK    1  A    between atoms: C_2  and  C_25
REMARK    2  A    between atoms: C_5  and  O_10
REMARK    3  A    between atoms: O_10  and  C_11
REMARK    4  A    between atoms: C_11  and  C_12
REMARK    5  A    between atoms: C_12  and  C_15
REMARK    6  A    between atoms: C_17  and  C_19
REMARK    7  A    between atoms: C_25  and  C_26
REMARK    8  A    between atoms: C_26  and  O_27
REMARK    9  A    between atoms: C_26  and  C_30
REMARK   10  A    between atoms: C_30  and  O_31
REMARK                            x       y       z     vdW  Elec       q    Type
REMARK                         _______ _______ _______ _____ _____    ______ ____
ROOT
ATOM      1  S   UNL     1      31.511 -10.194 -20.134  0.00  0.00    -0.087 S 
ATOM      2  C   UNL     1      32.946 -10.013 -22.541  0.00  0.00    -0.013 C 
ATOM      3  C   UNL     1      32.497 -10.756 -21.432  0.00  0.00    +0.029 C 
ATOM      4  C   UNL     1      32.831 -12.103 -21.270  0.00  0.00    +0.040 C 
ATOM      5  C   UNL     1      33.641 -12.715 -22.258  0.00  0.00    +0.139 C 
ATOM      6  C   UNL     1      33.742 -10.645 -23.498  0.00  0.00    -0.001 C 
ATOM      7  C   UNL     1      34.088 -11.982 -23.360  0.00  0.00    +0.037 C 
ATOM      8  C   UNL     1      32.260 -12.640 -20.068  0.00  0.00    +0.010 C 
ATOM      9  C   UNL     1      31.525 -11.714 -19.365  0.00  0.00    +0.036 C 
ENDROOT
BRANCH   5  10
ATOM     10  O   UNL     1      34.004 -14.035 -22.156  0.00  0.00    -0.475 OA
BRANCH  10  11
ATOM     11  C   UNL     1      34.449 -14.667 -23.349  0.00  0.00    +0.213 C 
BRANCH  11  12
ATOM     12  C   UNL     1      35.652 -15.555 -23.043  0.00  0.00    +0.105 C 
BRANCH  12  15
ATOM     13  O   UNL     1      34.474 -18.958 -22.445  0.00  0.00    -0.449 OA
ATOM     14  N   UNL     1      35.564 -17.326 -21.320  0.00  0.00    -0.373 NA
ATOM     15  C   UNL     1      35.259 -16.928 -22.579  0.00  0.00    +0.134 C 
ATOM     16  C   UNL     1      34.606 -17.886 -23.276  0.00  0.00    +0.216 C 
ATOM     17  C   UNL     1      35.073 -18.545 -21.293  0.00  0.00    +0.277 C 
ATOM     18  C   UNL     1      34.049 -18.016 -24.626  0.00  0.00    +0.055 C 
BRANCH  17  19
ATOM     19  C   UNL     1      35.075 -19.506 -20.226  0.00  0.00    +0.066 C 
ATOM     20  C   UNL     1      33.870 -20.046 -19.765  0.00  0.00    +0.006 C 
ATOM     21  C   UNL     1      36.279 -19.906 -19.641  0.00  0.00    +0.006 C 
ATOM     22  C   UNL     1      33.870 -20.979 -18.729  0.00  0.00    +0.000 C 
ATOM     23  C   UNL     1      36.279 -20.840 -18.604  0.00  0.00    +0.000 C 
ATOM     24  C   UNL     1      35.075 -21.376 -18.148  0.00  0.00    +0.000 C 
ENDBRANCH  17  19
ENDBRANCH  12  15
ENDBRANCH  11  12
ENDBRANCH  10  11
ENDBRANCH   5  10
BRANCH   2  25
ATOM     25  C   UNL     1      32.603  -8.571 -22.742  0.00  0.00    +0.068 C 
BRANCH  25  26
ATOM     26  C   UNL     1      33.660  -7.628 -22.151  0.00  0.00    +0.218 C 
BRANCH  26  27
ATOM     27  O   UNL     1      33.039  -6.384 -21.846  0.00  0.00    -0.342 OA
ATOM     28  C   UNL     1      32.284  -6.461 -20.645  0.00  0.00    +0.175 C 
ENDBRANCH  26  27
BRANCH  26  30
ATOM     29  O   UNL     1      35.922  -7.740 -23.037  0.00  0.00    -0.248 OA
ATOM     30  C   UNL     1      34.767  -7.351 -23.149  0.00  0.00    +0.342 C 
BRANCH  30  31
ATOM     31  O   UNL     1      34.330  -6.627 -24.211  0.00  0.00    -0.479 OA
ATOM     32  H   UNL     1      33.550  -6.883 -24.663  0.00  0.00    +0.295 HD
ENDBRANCH  30  31
ENDBRANCH  26  30
ENDBRANCH  25  26
ENDBRANCH   2  25
TORSDOF 10
ENDMDL
MODEL 5
REMARK VINA RESULT:     -10.8      4.301     10.615
REMARK  Name = 10274777
REMARK  10 active torsions:
REMARK  status: ('A' for Active; 'I' for Inactive)
REMARK    1  A    between atoms: C_2  and  C_25
REMARK    2  A    between atoms: C_5  and  O_10
REMARK    3  A    between atoms: O_10  and  C_11
REMARK    4  A    between atoms: C_11  and  C_12
REMARK    5  A    between atoms: C_12  and  C_15
REMARK    6  A    between atoms: C_17  and  C_19
REMARK    7  A    between atoms: C_25  and  C_26
REMARK    8  A    between atoms: C_26  and  O_27
REMARK    9  A    between atoms: C_26  and  C_30
REMARK   10  A    between atoms: C_30  and  O_31
REMARK                            x       y       z     vdW  Elec       q    Type
REMARK                         _______ _______ _______ _____ _____    ______ ____
ROOT
ATOM      1  S   UNL     1      34.323 -14.888 -24.102  0.00  0.00    -0.087 S 
ATOM      2  C   UNL     1      34.789 -14.662 -21.342  0.00  0.00    -0.013 C 
ATOM      3  C   UNL     1      34.758 -15.428 -22.523  0.00  0.00    +0.029 C 
ATOM      4  C   UNL     1      35.099 -16.784 -22.525  0.00  0.00    +0.040 C 
ATOM      5  C   UNL     1      35.481 -17.380 -21.299  0.00  0.00    +0.139 C 
ATOM      6  C   UNL     1      35.171 -15.279 -20.148  0.00  0.00    -0.001 C 
ATOM      7  C   UNL     1      35.514 -16.624 -20.125  0.00  0.00    +0.037 C 
ATOM      8  C   UNL     1      34.989 -17.345 -23.842  0.00  0.00    +0.010 C 
ATOM      9  C   UNL     1      34.580 -16.429 -24.782  0.00  0.00    +0.036 C 
ENDROOT
BRANCH   5  10
ATOM     10  O   UNL     1      35.827 -18.707 -21.235  0.00  0.00    -0.475 OA
BRANCH  10  11
ATOM     11  C   UNL     1      36.285 -19.186 -19.978  0.00  0.00    +0.213 C 
BRANCH  11  12
ATOM     12  C   UNL     1      36.031 -20.688 -19.876  0.00  0.00    +0.105 C 
BRANCH  12  15
ATOM     13  O   UNL     1      32.892 -21.189 -18.081  0.00  0.00    -0.449 OA
ATOM     14  N   UNL     1      35.063 -21.791 -17.886  0.00  0.00    -0.373 NA
ATOM     15  C   UNL     1      34.869 -21.022 -18.985  0.00  0.00    +0.134 C 
ATOM     16  C   UNL     1      33.577 -20.648 -19.126  0.00  0.00    +0.216 C 
ATOM     17  C   UNL     1      33.851 -21.859 -17.383  0.00  0.00    +0.277 C 
ATOM     18  C   UNL     1      32.809 -19.846 -20.084  0.00  0.00    +0.055 C 
BRANCH  17  19
ATOM     19  C   UNL     1      33.388 -22.537 -16.204  0.00  0.00    +0.066 C 
ATOM     20  C   UNL     1      32.019 -22.733 -15.998  0.00  0.00    +0.006 C 
ATOM     21  C   UNL     1      34.303 -23.003 -15.256  0.00  0.00    +0.006 C 
ATOM     22  C   UNL     1      31.569 -23.391 -14.854  0.00  0.00    +0.000 C 
ATOM     23  C   UNL     1      33.852 -23.661 -14.111  0.00  0.00    +0.000 C 
ATOM     24  C   UNL     1      32.486 -23.855 -13.910  0.00  0.00    +0.000 C 
ENDBRANCH  17  19
ENDBRANCH  12  15
ENDBRANCH  11  12
ENDBRANCH  10  11
ENDBRANCH   5  10
BRANCH   2  25
ATOM     25  C   UNL     1      34.432 -13.210 -21.309  0.00  0.00    +0.068 C 
BRANCH  25  26
ATOM     26  C   UNL     1      32.915 -12.978 -21.303  0.00  0.00    +0.218 C 
BRANCH  26  27
ATOM     27  O   UNL     1      32.643 -11.736 -21.942  0.00  0.00    -0.342 OA
ATOM     28  C   UNL     1      33.701 -11.355 -22.810  0.00  0.00    +0.175 C 
ENDBRANCH  26  27
BRANCH  26  30
ATOM     29  O   UNL     1      32.190 -13.848 -19.150  0.00  0.00    -0.248 OA
ATOM     30  C   UNL     1      32.379 -12.890 -19.888  0.00  0.00    +0.342 C 
BRANCH  30  31
ATOM     31  O   UNL     1      32.140 -11.608 -19.510  0.00  0.00    -0.479 OA
ATOM     32  H   UNL     1      31.263 -11.277 -19.503  0.00  0.00    +0.295 HD
ENDBRANCH  30  31
ENDBRANCH  26  30
ENDBRANCH  25  26
ENDBRANCH   2  25
TORSDOF 10
ENDMDL
MODEL 6
REMARK VINA RESULT:     -10.8      6.233     13.021
REMARK  Name = 10274777
REMARK  10 active torsions:
REMARK  status: ('A' for Active; 'I' for Inactive)
REMARK    1  A    between atoms: C_2  and  C_25
REMARK    2  A    between atoms: C_5  and  O_10
REMARK    3  A    between atoms: O_10  and  C_11
REMARK    4  A    between atoms: C_11  and  C_12
REMARK    5  A    between atoms: C_12  and  C_15
REMARK    6  A    between atoms: C_17  and  C_19
REMARK    7  A    between atoms: C_25  and  C_26
REMARK    8  A    between atoms: C_26  and  O_27
REMARK    9  A    between atoms: C_26  and  C_30
REMARK   10  A    between atoms: C_30  and  O_31
REMARK                            x       y       z     vdW  Elec       q    Type
REMARK                         _______ _______ _______ _____ _____    ______ ____
ROOT
ATOM      1  S   UNL     1      31.163 -10.764 -20.029  0.00  0.00    -0.087 S 
ATOM      2  C   UNL     1      32.507  -9.821 -22.307  0.00  0.00    -0.013 C 
ATOM      3  C   UNL     1      32.311 -10.801 -21.315  0.00  0.00    +0.029 C 
ATOM      4  C   UNL     1      33.078 -11.969 -21.279  0.00  0.00    +0.040 C 
ATOM      5  C   UNL     1      34.069 -12.150 -22.273  0.00  0.00    +0.139 C 
ATOM      6  C   UNL     1      33.493 -10.029 -23.274  0.00  0.00    -0.001 C 
ATOM      7  C   UNL     1      34.267 -11.180 -23.259  0.00  0.00    +0.037 C 
ATOM      8  C   UNL     1      32.693 -12.809 -20.180  0.00  0.00    +0.010 C 
ATOM      9  C   UNL     1      31.673 -12.276 -19.429  0.00  0.00    +0.036 C 
ENDROOT
BRANCH   5  10
ATOM     10  O   UNL     1      34.855 -13.275 -22.292  0.00  0.00    -0.475 OA
BRANCH  10  11
ATOM     11  C   UNL     1      34.361 -14.385 -23.031  0.00  0.00    +0.213 C 
BRANCH  11  12
ATOM     12  C   UNL     1      35.492 -15.377 -23.287  0.00  0.00    +0.105 C 
BRANCH  12  15
ATOM     13  O   UNL     1      34.478 -18.818 -22.607  0.00  0.00    -0.449 OA
ATOM     14  N   UNL     1      35.559 -17.135 -21.550  0.00  0.00    -0.373 NA
ATOM     15  C   UNL     1      35.176 -16.760 -22.795  0.00  0.00    +0.134 C 
ATOM     16  C   UNL     1      34.527 -17.749 -23.451  0.00  0.00    +0.216 C 
ATOM     17  C   UNL     1      35.117 -18.372 -21.490  0.00  0.00    +0.277 C 
ATOM     18  C   UNL     1      33.909 -17.912 -24.771  0.00  0.00    +0.055 C 
BRANCH  17  19
ATOM     19  C   UNL     1      35.210 -19.323 -20.418  0.00  0.00    +0.066 C 
ATOM     20  C   UNL     1      34.052 -19.911 -19.899  0.00  0.00    +0.006 C 
ATOM     21  C   UNL     1      36.456 -19.664 -19.886  0.00  0.00    +0.006 C 
ATOM     22  C   UNL     1      34.141 -20.834 -18.858  0.00  0.00    +0.000 C 
ATOM     23  C   UNL     1      36.544 -20.588 -18.844  0.00  0.00    +0.000 C 
ATOM     24  C   UNL     1      35.387 -21.173 -18.330  0.00  0.00    +0.000 C 
ENDBRANCH  17  19
ENDBRANCH  12  15
ENDBRANCH  11  12
ENDBRANCH  10  11
ENDBRANCH   5  10
BRANCH   2  25
ATOM     25  C   UNL     1      31.701  -8.563 -22.372  0.00  0.00    +0.068 C 
BRANCH  25  26
ATOM     26  C   UNL     1      32.463  -7.348 -21.825  0.00  0.00    +0.218 C 
BRANCH  26  27
ATOM     27  O   UNL     1      32.073  -7.138 -20.473  0.00  0.00    -0.342 OA
ATOM     28  C   UNL     1      33.200  -7.081 -19.609  0.00  0.00    +0.175 C 
ENDBRANCH  26  27
BRANCH  26  30
ATOM     29  O   UNL     1      31.298  -5.255 -22.246  0.00  0.00    -0.248 OA
ATOM     30  C   UNL     1      32.119  -6.091 -22.599  0.00  0.00    +0.342 C 
BRANCH  30  31
ATOM     31  O   UNL     1      32.845  -5.977 -23.741  0.00  0.00    -0.479 OA
ATOM     32  H   UNL     1      33.113  -6.747 -24.205  0.00  0.00    +0.295 HD
ENDBRANCH  30  31
ENDBRANCH  26  30
ENDBRANCH  25  26
ENDBRANCH   2  25
TORSDOF 10
ENDMDL
MODEL 7
REMARK VINA RESULT:     -10.7      7.087     13.763
REMARK  Name = 10274777
REMARK  10 active torsions:
REMARK  status: ('A' for Active; 'I' for Inactive)
REMARK    1  A    between atoms: C_2  and  C_25
REMARK    2  A    between atoms: C_5  and  O_10
REMARK    3  A    between atoms: O_10  and  C_11
REMARK    4  A    between atoms: C_11  and  C_12
REMARK    5  A    between atoms: C_12  and  C_15
REMARK    6  A    between atoms: C_17  and  C_19
REMARK    7  A    between atoms: C_25  and  C_26
REMARK    8  A    between atoms: C_26  and  O_27
REMARK    9  A    between atoms: C_26  and  C_30
REMARK   10  A    between atoms: C_30  and  O_31
REMARK                            x       y       z     vdW  Elec       q    Type
REMARK                         _______ _______ _______ _____ _____    ______ ____
ROOT
ATOM      1  S   UNL     1      34.935  -7.932 -23.949  0.00  0.00    -0.087 S 
ATOM      2  C   UNL     1      33.160  -8.240 -21.794  0.00  0.00    -0.013 C 
ATOM      3  C   UNL     1      33.892  -8.781 -22.869  0.00  0.00    +0.029 C 
ATOM      4  C   UNL     1      33.837 -10.142 -23.180  0.00  0.00    +0.040 C 
ATOM      5  C   UNL     1      33.020 -10.978 -22.381  0.00  0.00    +0.139 C 
ATOM      6  C   UNL     1      32.363  -9.090 -21.026  0.00  0.00    -0.001 C 
ATOM      7  C   UNL     1      32.292 -10.446 -21.314  0.00  0.00    +0.037 C 
ATOM      8  C   UNL     1      34.665 -10.451 -24.311  0.00  0.00    +0.010 C 
ATOM      9  C   UNL     1      35.310  -9.348 -24.819  0.00  0.00    +0.036 C 
ENDROOT
BRANCH   5  10
ATOM     10  O   UNL     1      32.923 -12.324 -22.635  0.00  0.00    -0.475 OA
BRANCH  10  11
ATOM     11  C   UNL     1      33.534 -13.195 -21.693  0.00  0.00    +0.213 C 
BRANCH  11  12
ATOM     12  C   UNL     1      34.879 -13.675 -22.231  0.00  0.00    +0.105 C 
BRANCH  12  15
ATOM     13  O   UNL     1      35.119 -17.272 -22.808  0.00  0.00    -0.449 OA
ATOM     14  N   UNL     1      35.196 -15.832 -21.065  0.00  0.00    -0.373 NA
ATOM     15  C   UNL     1      35.005 -15.172 -22.233  0.00  0.00    +0.134 C 
ATOM     16  C   UNL     1      34.955 -16.010 -23.293  0.00  0.00    +0.216 C 
ATOM     17  C   UNL     1      35.257 -17.082 -21.466  0.00  0.00    +0.277 C 
ATOM     18  C   UNL     1      34.776 -15.870 -24.742  0.00  0.00    +0.055 C 
BRANCH  17  19
ATOM     19  C   UNL     1      35.447 -18.279 -20.696  0.00  0.00    +0.066 C 
ATOM     20  C   UNL     1      36.728 -18.644 -20.269  0.00  0.00    +0.006 C 
ATOM     21  C   UNL     1      34.355 -19.088 -20.369  0.00  0.00    +0.006 C 
ATOM     22  C   UNL     1      36.914 -19.806 -19.521  0.00  0.00    +0.000 C 
ATOM     23  C   UNL     1      34.541 -20.250 -19.621  0.00  0.00    +0.000 C 
ATOM     24  C   UNL     1      35.820 -20.610 -19.197  0.00  0.00    +0.000 C 
ENDBRANCH  17  19
ENDBRANCH  12  15
ENDBRANCH  11  12
ENDBRANCH  10  11
ENDBRANCH   5  10
BRANCH   2  25
ATOM     25  C   UNL     1      33.201  -6.788 -21.437  0.00  0.00    +0.068 C 
BRANCH  25  26
ATOM     26  C   UNL     1      32.146  -6.411 -20.387  0.00  0.00    +0.218 C 
BRANCH  26  27
ATOM     27  O   UNL     1      31.367  -5.333 -20.893  0.00  0.00    -0.342 OA
ATOM     28  C   UNL     1      31.916  -4.815 -22.097  0.00  0.00    +0.175 C 
ENDBRANCH  26  27
BRANCH  26  30
ATOM     29  O   UNL     1      32.426  -4.977 -18.443  0.00  0.00    -0.248 OA
ATOM     30  C   UNL     1      32.795  -5.940 -19.102  0.00  0.00    +0.342 C 
BRANCH  30  31
ATOM     31  O   UNL     1      33.842  -6.725 -18.739  0.00  0.00    -0.479 OA
ATOM     32  H   UNL     1      33.948  -7.573 -19.126  0.00  0.00    +0.295 HD
ENDBRANCH  30  31
ENDBRANCH  26  30
ENDBRANCH  25  26
ENDBRANCH   2  25
TORSDOF 10
ENDMDL
MODEL 8
REMARK VINA RESULT:     -10.4      2.787      9.464
REMARK  Name = 10274777
REMARK  10 active torsions:
REMARK  status: ('A' for Active; 'I' for Inactive)
REMARK    1  A    between atoms: C_2  and  C_25
REMARK    2  A    between atoms: C_5  and  O_10
REMARK    3  A    between atoms: O_10  and  C_11
REMARK    4  A    between atoms: C_11  and  C_12
REMARK    5  A    between atoms: C_12  and  C_15
REMARK    6  A    between atoms: C_17  and  C_19
REMARK    7  A    between atoms: C_25  and  C_26
REMARK    8  A    between atoms: C_26  and  O_27
REMARK    9  A    between atoms: C_26  and  C_30
REMARK   10  A    between atoms: C_30  and  O_31
REMARK                            x       y       z     vdW  Elec       q    Type
REMARK                         _______ _______ _______ _____ _____    ______ ____
ROOT
ATOM      1  S   UNL     1      33.018 -19.765 -20.115  0.00  0.00    -0.087 S 
ATOM      2  C   UNL     1      35.674 -19.034 -20.660  0.00  0.00    -0.013 C 
ATOM      3  C   UNL     1      34.730 -19.764 -19.912  0.00  0.00    +0.029 C 
ATOM      4  C   UNL     1      35.119 -20.609 -18.868  0.00  0.00    +0.040 C 
ATOM      5  C   UNL     1      36.499 -20.718 -18.575  0.00  0.00    +0.139 C 
ATOM      6  C   UNL     1      37.028 -19.164 -20.346  0.00  0.00    -0.001 C 
ATOM      7  C   UNL     1      37.439 -19.996 -19.314  0.00  0.00    +0.037 C 
ATOM      8  C   UNL     1      33.982 -21.240 -18.259  0.00  0.00    +0.010 C 
ATOM      9  C   UNL     1      32.791 -20.870 -18.837  0.00  0.00    +0.036 C 
ENDROOT
BRANCH   5  10
ATOM     10  O   UNL     1      36.945 -21.531 -17.562  0.00  0.00    -0.475 OA
BRANCH  10  11
ATOM     11  C   UNL     1      37.280 -20.896 -16.335  0.00  0.00    +0.213 C 
BRANCH  11  12
ATOM     12  C   UNL     1      37.582 -21.951 -15.275  0.00  0.00    +0.105 C 
BRANCH  12  15
ATOM     13  O   UNL     1      35.053 -24.427 -14.379  0.00  0.00    -0.449 OA
ATOM     14  N   UNL     1      35.151 -22.233 -14.922  0.00  0.00    -0.373 NA
ATOM     15  C   UNL     1      36.386 -22.792 -14.932  0.00  0.00    +0.134 C 
ATOM     16  C   UNL     1      36.357 -24.105 -14.610  0.00  0.00    +0.216 C 
ATOM     17  C   UNL     1      34.394 -23.253 -14.586  0.00  0.00    +0.277 C 
ATOM     18  C   UNL     1      37.344 -25.180 -14.466  0.00  0.00    +0.055 C 
BRANCH  17  19
ATOM     19  C   UNL     1      32.970 -23.311 -14.404  0.00  0.00    +0.066 C 
ATOM     20  C   UNL     1      32.120 -22.653 -15.299  0.00  0.00    +0.006 C 
ATOM     21  C   UNL     1      32.425 -24.025 -13.334  0.00  0.00    +0.006 C 
ATOM     22  C   UNL     1      30.738 -22.708 -15.124  0.00  0.00    +0.000 C 
ATOM     23  C   UNL     1      31.042 -24.081 -13.159  0.00  0.00    +0.000 C 
ATOM     24  C   UNL     1      30.199 -23.422 -14.053  0.00  0.00    +0.000 C 
ENDBRANCH  17  19
ENDBRANCH  12  15
ENDBRANCH  11  12
ENDBRANCH  10  11
ENDBRANCH   5  10
BRANCH   2  25
ATOM     25  C   UNL     1      35.288 -18.124 -21.782  0.00  0.00    +0.068 C 
BRANCH  25  26
ATOM     26  C   UNL     1      35.541 -16.646 -21.454  0.00  0.00    +0.218 C 
BRANCH  26  27
ATOM     27  O   UNL     1      34.648 -16.252 -20.418  0.00  0.00    -0.342 OA
ATOM     28  C   UNL     1      35.010 -14.993 -19.869  0.00  0.00    +0.175 C 
ENDBRANCH  26  27
BRANCH  26  30
ATOM     29  O   UNL     1      35.607 -14.592 -22.754  0.00  0.00    -0.248 OA
ATOM     30  C   UNL     1      35.265 -15.762 -22.654  0.00  0.00    +0.342 C 
BRANCH  30  31
ATOM     31  O   UNL     1      34.599 -16.425 -23.635  0.00  0.00    -0.479 OA
ATOM     32  H   UNL     1      34.799 -17.324 -23.812  0.00  0.00    +0.295 HD
ENDBRANCH  30  31
ENDBRANCH  26  30
ENDBRANCH  25  26
ENDBRANCH   2  25
TORSDOF 10
ENDMDL
MODEL 9
REMARK VINA RESULT:     -10.4      3.046      4.726
REMARK  Name = 10274777
REMARK  10 active torsions:
REMARK  status: ('A' for Active; 'I' for Inactive)
REMARK    1  A    between atoms: C_2  and  C_25
REMARK    2  A    between atoms: C_5  and  O_10
REMARK    3  A    between atoms: O_10  and  C_11
REMARK    4  A    between atoms: C_11  and  C_12
REMARK    5  A    between atoms: C_12  and  C_15
REMARK    6  A    between atoms: C_17  and  C_19
REMARK    7  A    between atoms: C_25  and  C_26
REMARK    8  A    between atoms: C_26  and  O_27
REMARK    9  A    between atoms: C_26  and  C_30
REMARK   10  A    between atoms: C_30  and  O_31
REMARK                            x       y       z     vdW  Elec       q    Type
REMARK                         _______ _______ _______ _____ _____    ______ ____
ROOT
ATOM      1  S   UNL     1      36.051 -22.446 -14.808  0.00  0.00    -0.087 S 
ATOM      2  C   UNL     1      33.836 -22.389 -16.534  0.00  0.00    -0.013 C 
ATOM      3  C   UNL     1      35.178 -22.071 -16.248  0.00  0.00    +0.029 C 
ATOM      4  C   UNL     1      35.978 -21.379 -17.162  0.00  0.00    +0.040 C 
ATOM      5  C   UNL     1      35.403 -20.998 -18.398  0.00  0.00    +0.139 C 
ATOM      6  C   UNL     1      33.299 -21.999 -17.763  0.00  0.00    -0.001 C 
ATOM      7  C   UNL     1      34.073 -21.311 -18.687  0.00  0.00    +0.037 C 
ATOM      8  C   UNL     1      37.301 -21.174 -16.644  0.00  0.00    +0.010 C 
ATOM      9  C   UNL     1      37.471 -21.700 -15.385  0.00  0.00    +0.036 C 
ENDROOT
BRANCH   5  10
ATOM     10  O   UNL     1      36.136 -20.316 -19.338  0.00  0.00    -0.475 OA
BRANCH  10  11
ATOM     11  C   UNL     1      35.416 -19.439 -20.194  0.00  0.00    +0.213 C 
BRANCH  11  12
ATOM     12  C   UNL     1      36.378 -18.446 -20.840  0.00  0.00    +0.105 C 
BRANCH  12  15
ATOM     13  O   UNL     1      34.650 -16.739 -23.565  0.00  0.00    -0.449 OA
ATOM     14  N   UNL     1      35.628 -16.214 -21.594  0.00  0.00    -0.373 NA
ATOM     15  C   UNL     1      35.705 -17.545 -21.836  0.00  0.00    +0.134 C 
ATOM     16  C   UNL     1      35.126 -17.888 -23.009  0.00  0.00    +0.216 C 
ATOM     17  C   UNL     1      34.989 -15.782 -22.658  0.00  0.00    +0.277 C 
ATOM     18  C   UNL     1      34.916 -19.130 -23.760  0.00  0.00    +0.055 C 
BRANCH  17  19
ATOM     19  C   UNL     1      34.595 -14.444 -23.005  0.00  0.00    +0.066 C 
ATOM     20  C   UNL     1      34.667 -13.422 -22.054  0.00  0.00    +0.006 C 
ATOM     21  C   UNL     1      34.137 -14.157 -24.294  0.00  0.00    +0.006 C 
ATOM     22  C   UNL     1      34.285 -12.123 -22.389  0.00  0.00    +0.000 C 
ATOM     23  C   UNL     1      33.755 -12.858 -24.629  0.00  0.00    +0.000 C 
ATOM     24  C   UNL     1      33.829 -11.841 -23.677  0.00  0.00    +0.000 C 
ENDBRANCH  17  19
ENDBRANCH  12  15
ENDBRANCH  11  12
ENDBRANCH  10  11
ENDBRANCH   5  10
BRANCH   2  25
ATOM     25  C   UNL     1      32.958 -23.130 -15.577  0.00  0.00    +0.068 C 
BRANCH  25  26
ATOM     26  C   UNL     1      31.782 -22.278 -15.078  0.00  0.00    +0.218 C 
BRANCH  26  27
ATOM     27  O   UNL     1      31.732 -22.361 -13.659  0.00  0.00    -0.342 OA
ATOM     28  C   UNL     1      32.640 -23.334 -13.162  0.00  0.00    +0.175 C 
ENDBRANCH  26  27
BRANCH  26  30
ATOM     29  O   UNL     1      29.971 -23.882 -15.327  0.00  0.00    -0.248 OA
ATOM     30  C   UNL     1      30.462 -22.798 -15.612  0.00  0.00    +0.342 C 
BRANCH  30  31
ATOM     31  O   UNL     1      29.860 -21.908 -16.443  0.00  0.00    -0.479 OA
ATOM     32  H   UNL     1      28.925 -21.897 -16.519  0.00  0.00    +0.295 HD
ENDBRANCH  30  31
ENDBRANCH  26  30
ENDBRANCH  25  26
ENDBRANCH   2  25
TORSDOF 10
ENDMDL
