MODEL 1
REMARK VINA RESULT:     -13.4      0.000      0.000
REMARK  Name = 24752833
REMARK  4 active torsions:
REMARK  status: ('A' for Active; 'I' for Inactive)
REMARK    1  A    between atoms: C_1  and  N_8
REMARK    2  A    between atoms: C_2  and  N_23
REMARK    3  A    between atoms: C_9  and  C_14
REMARK    4  A    between atoms: C_24  and  C_28
REMARK                            x       y       z     vdW  Elec       q    Type
REMARK                         _______ _______ _______ _____ _____    ______ ____
ROOT
ATOM      1  C   UNL     1      31.806 -22.674 -14.612  0.00  0.00    +0.090 C 
ATOM      2  C   UNL     1      31.308 -22.773 -16.066  0.00  0.00    +0.090 C 
ATOM      3  C   UNL     1      30.923 -23.491 -13.663  0.00  0.00    +0.021 C 
ATOM      4  C   UNL     1      29.822 -22.418 -16.178  0.00  0.00    +0.021 C 
ATOM      5  C   UNL     1      29.449 -23.118 -13.788  0.00  0.00    +0.002 C 
ATOM      6  C   UNL     1      28.964 -23.246 -15.227  0.00  0.00    +0.002 C 
ENDROOT
BRANCH   1   8
ATOM      7  O   UNL     1      33.309 -23.009 -12.189  0.00  0.00    -0.267 OA
ATOM      8  N   UNL     1      33.181 -23.111 -14.502  0.00  0.00    -0.298 N 
ATOM      9  C   UNL     1      33.821 -23.242 -13.280  0.00  0.00    +0.282 C 
ATOM     10  H   UNL     1      33.679 -23.324 -15.324  0.00  0.00    +0.150 HD
BRANCH   9  14
ATOM     11  S   UNL     1      35.805 -24.640 -14.649  0.00  0.00    -0.074 S 
ATOM     12  N   UNL     1      39.603 -25.452 -13.463  0.00  0.00    +0.387 N 
ATOM     13  N   UNL     1      36.126 -23.363 -12.413  0.00  0.00    -0.399 NA
ATOM     14  C   UNL     1      35.241 -23.678 -13.337  0.00  0.00    +0.210 C 
ATOM     15  C   UNL     1      37.336 -23.918 -12.766  0.00  0.00    +0.093 C 
ATOM     16  C   UNL     1      37.346 -24.645 -13.936  0.00  0.00    +0.082 C 
ATOM     17  C   UNL     1      38.556 -23.773 -11.927  0.00  0.00    +0.032 C 
ATOM     18  C   UNL     1      38.557 -25.306 -14.505  0.00  0.00    -0.059 C 
ATOM     19  C   UNL     1      39.817 -24.189 -12.720  0.00  0.00    -0.070 C 
ATOM     20  C   UNL     1      40.852 -25.919 -14.061  0.00  0.00    -0.101 C 
ATOM     21  H   UNL     1      39.278 -26.148 -12.790  0.00  0.00    -0.080 HD
ENDBRANCH   9  14
ENDBRANCH   1   8
BRANCH   2  23
ATOM     22  O   UNL     1      33.740 -23.468 -17.424  0.00  0.00    -0.269 OA
ATOM     23  N   UNL     1      32.084 -21.921 -16.940  0.00  0.00    -0.300 N 
ATOM     24  C   UNL     1      33.249 -22.349 -17.551  0.00  0.00    +0.259 C 
ATOM     25  H   UNL     1      31.770 -21.002 -17.106  0.00  0.00    +0.150 HD
BRANCH  24  28
ATOM     26 CL   UNL     1      35.859 -16.854 -22.310  0.00  0.00    -0.082 Cl
ATOM     27  N   UNL     1      35.300 -21.167 -18.410  0.00  0.00    -0.309 N 
ATOM     28  C   UNL     1      33.943 -21.345 -18.399  0.00  0.00    +0.102 C 
ATOM     29  C   UNL     1      33.390 -20.449 -19.284  0.00  0.00    +0.020 C 
ATOM     30  C   UNL     1      35.640 -20.167 -19.292  0.00  0.00    +0.048 C 
ATOM     31  C   UNL     1      34.453 -19.696 -19.858  0.00  0.00    +0.016 C 
ATOM     32  C   UNL     1      36.895 -19.647 -19.628  0.00  0.00    +0.015 C 
ATOM     33  C   UNL     1      34.519 -18.656 -20.806  0.00  0.00    +0.013 C 
ATOM     34  C   UNL     1      35.768 -18.126 -21.153  0.00  0.00    +0.058 C 
ATOM     35  C   UNL     1      36.936 -18.615 -20.572  0.00  0.00    +0.013 C 
ATOM     36  H   UNL     1      35.940 -21.681 -17.867  0.00  0.00    +0.152 HD
ENDBRANCH  24  28
ENDBRANCH   2  23
TORSDOF 4
ENDMDL
MODEL 2
REMARK VINA RESULT:     -12.9      2.805      7.441
REMARK  Name = 24752833
REMARK  4 active torsions:
REMARK  status: ('A' for Active; 'I' for Inactive)
REMARK    1  A    between atoms: C_1  and  N_8
REMARK    2  A    between atoms: C_2  and  N_23
REMARK    3  A    between atoms: C_9  and  C_14
REMARK    4  A    between atoms: C_24  and  C_28
REMARK                            x       y       z     vdW  Elec       q    Type
REMARK                         _______ _______ _______ _____ _____    ______ ____
ROOT
ATOM      1  C   UNL     1      31.095 -22.753 -16.235  0.00  0.00    +0.090 C 
ATOM      2  C   UNL     1      31.515 -22.584 -14.764  0.00  0.00    +0.090 C 
ATOM      3  C   UNL     1      29.610 -22.432 -16.431  0.00  0.00    +0.021 C 
ATOM      4  C   UNL     1      30.603 -23.377 -13.822  0.00  0.00    +0.021 C 
ATOM      5  C   UNL     1      28.719 -23.234 -15.488  0.00  0.00    +0.002 C 
ATOM      6  C   UNL     1      29.131 -23.036 -14.033  0.00  0.00    +0.002 C 
ENDROOT
BRANCH   1   8
ATOM      7  O   UNL     1      33.718 -23.348 -17.240  0.00  0.00    -0.267 OA
ATOM      8  N   UNL     1      31.896 -21.920 -17.105  0.00  0.00    -0.298 N 
ATOM      9  C   UNL     1      33.157 -22.298 -17.538  0.00  0.00    +0.282 C 
ATOM     10  H   UNL     1      31.532 -21.054 -17.401  0.00  0.00    +0.150 HD
BRANCH   9  14
ATOM     11  S   UNL     1      32.972 -20.302 -19.473  0.00  0.00    -0.074 S 
ATOM     12  N   UNL     1      35.970 -18.451 -21.492  0.00  0.00    +0.387 N 
ATOM     13  N   UNL     1      35.172 -21.180 -18.414  0.00  0.00    -0.399 NA
ATOM     14  C   UNL     1      33.862 -21.320 -18.407  0.00  0.00    +0.210 C 
ATOM     15  C   UNL     1      35.498 -20.197 -19.322  0.00  0.00    +0.093 C 
ATOM     16  C   UNL     1      34.439 -19.621 -19.990  0.00  0.00    +0.082 C 
ATOM     17  C   UNL     1      36.903 -19.796 -19.597  0.00  0.00    +0.032 C 
ATOM     18  C   UNL     1      34.575 -18.526 -20.995  0.00  0.00    -0.059 C 
ATOM     19  C   UNL     1      36.949 -18.464 -20.382  0.00  0.00    -0.070 C 
ATOM     20  C   UNL     1      36.149 -17.263 -22.325  0.00  0.00    -0.101 C 
ATOM     21  H   UNL     1      36.144 -19.282 -22.060  0.00  0.00    -0.080 HD
ENDBRANCH   9  14
ENDBRANCH   1   8
BRANCH   2  23
ATOM     22  O   UNL     1      32.901 -22.790 -12.258  0.00  0.00    -0.269 OA
ATOM     23  N   UNL     1      32.890 -22.986 -14.568  0.00  0.00    -0.300 N 
ATOM     24  C   UNL     1      33.472 -23.055 -13.313  0.00  0.00    +0.259 C 
ATOM     25  H   UNL     1      33.433 -23.221 -15.355  0.00  0.00    +0.150 HD
BRANCH  24  28
ATOM     26 CL   UNL     1      40.686 -25.706 -14.077  0.00  0.00    -0.082 Cl
ATOM     27  N   UNL     1      35.782 -23.068 -12.311  0.00  0.00    -0.309 N 
ATOM     28  C   UNL     1      34.901 -23.460 -13.283  0.00  0.00    +0.102 C 
ATOM     29  C   UNL     1      35.580 -24.259 -14.173  0.00  0.00    +0.020 C 
ATOM     30  C   UNL     1      37.027 -23.602 -12.556  0.00  0.00    +0.048 C 
ATOM     31  C   UNL     1      36.927 -24.358 -13.726  0.00  0.00    +0.016 C 
ATOM     32  C   UNL     1      38.222 -23.473 -11.839  0.00  0.00    +0.015 C 
ATOM     33  C   UNL     1      38.075 -25.020 -14.205  0.00  0.00    +0.013 C 
ATOM     34  C   UNL     1      39.277 -24.901 -13.498  0.00  0.00    +0.058 C 
ATOM     35  C   UNL     1      39.347 -24.139 -12.334  0.00  0.00    +0.013 C 
ATOM     36  H   UNL     1      35.557 -22.489 -11.548  0.00  0.00    +0.152 HD
ENDBRANCH  24  28
ENDBRANCH   2  23
TORSDOF 4
ENDMDL
MODEL 3
REMARK VINA RESULT:     -10.8      3.046      8.123
REMARK  Name = 24752833
REMARK  4 active torsions:
REMARK  status: ('A' for Active; 'I' for Inactive)
REMARK    1  A    between atoms: C_1  and  N_8
REMARK    2  A    between atoms: C_2  and  N_23
REMARK    3  A    between atoms: C_9  and  C_14
REMARK    4  A    between atoms: C_24  and  C_28
REMARK                            x       y       z     vdW  Elec       q    Type
REMARK                         _______ _______ _______ _____ _____    ______ ____
ROOT
ATOM      1  C   UNL     1      37.671 -23.362 -14.690  0.00  0.00    +0.090 C 
ATOM      2  C   UNL     1      36.893 -24.690 -14.696  0.00  0.00    +0.090 C 
ATOM      3  C   UNL     1      39.176 -23.598 -14.525  0.00  0.00    +0.021 C 
ATOM      4  C   UNL     1      37.232 -25.549 -13.474  0.00  0.00    +0.021 C 
ATOM      5  C   UNL     1      39.492 -24.451 -13.300  0.00  0.00    +0.002 C 
ATOM      6  C   UNL     1      38.734 -25.773 -13.333  0.00  0.00    +0.002 C 
ENDROOT
BRANCH   1   8
ATOM      7  O   UNL     1      35.632 -21.379 -15.083  0.00  0.00    -0.267 OA
ATOM      8  N   UNL     1      37.422 -22.607 -15.898  0.00  0.00    -0.298 N 
ATOM      9  C   UNL     1      36.409 -21.666 -15.990  0.00  0.00    +0.282 C 
ATOM     10  H   UNL     1      37.995 -22.766 -16.684  0.00  0.00    +0.150 HD
BRANCH   9  14
ATOM     11  S   UNL     1      34.856 -21.237 -18.263  0.00  0.00    -0.074 S 
ATOM     12  N   UNL     1      35.842 -19.242 -21.659  0.00  0.00    +0.387 N 
ATOM     13  N   UNL     1      37.188 -20.194 -17.807  0.00  0.00    -0.399 NA
ATOM     14  C   UNL     1      36.268 -20.993 -17.307  0.00  0.00    +0.210 C 
ATOM     15  C   UNL     1      36.748 -19.739 -19.030  0.00  0.00    +0.093 C 
ATOM     16  C   UNL     1      35.517 -20.204 -19.438  0.00  0.00    +0.082 C 
ATOM     17  C   UNL     1      37.557 -18.827 -19.882  0.00  0.00    +0.032 C 
ATOM     18  C   UNL     1      34.851 -19.816 -20.716  0.00  0.00    -0.059 C 
ATOM     19  C   UNL     1      36.690 -18.218 -21.009  0.00  0.00    -0.070 C 
ATOM     20  C   UNL     1      35.164 -18.686 -22.829  0.00  0.00    -0.101 C 
ATOM     21  H   UNL     1      36.458 -19.997 -21.962  0.00  0.00    -0.080 HD
ENDBRANCH   9  14
ENDBRANCH   1   8
BRANCH   2  23
ATOM     22  O   UNL     1      35.262 -23.545 -12.629  0.00  0.00    -0.269 OA
ATOM     23  N   UNL     1      35.467 -24.456 -14.750  0.00  0.00    -0.300 N 
ATOM     24  C   UNL     1      34.765 -23.896 -13.696  0.00  0.00    +0.259 C 
ATOM     25  H   UNL     1      34.977 -24.704 -15.568  0.00  0.00    +0.150 HD
BRANCH  24  28
ATOM     26 CL   UNL     1      27.377 -22.079 -15.022  0.00  0.00    -0.082 Cl
ATOM     27  N   UNL     1      32.401 -24.760 -13.720  0.00  0.00    -0.309 N 
ATOM     28  C   UNL     1      33.301 -23.745 -13.900  0.00  0.00    +0.102 C 
ATOM     29  C   UNL     1      32.605 -22.624 -14.287  0.00  0.00    +0.020 C 
ATOM     30  C   UNL     1      31.125 -24.316 -13.985  0.00  0.00    +0.048 C 
ATOM     31  C   UNL     1      31.226 -22.969 -14.345  0.00  0.00    +0.016 C 
ATOM     32  C   UNL     1      29.903 -24.995 -13.936  0.00  0.00    +0.015 C 
ATOM     33  C   UNL     1      30.050 -22.265 -14.671  0.00  0.00    +0.013 C 
ATOM     34  C   UNL     1      28.820 -22.931 -14.625  0.00  0.00    +0.058 C 
ATOM     35  C   UNL     1      28.750 -24.275 -14.263  0.00  0.00    +0.013 C 
ATOM     36  H   UNL     1      32.632 -25.676 -13.442  0.00  0.00    +0.152 HD
ENDBRANCH  24  28
ENDBRANCH   2  23
TORSDOF 4
ENDMDL
