MODEL 1
REMARK VINA RESULT:     -12.0      0.000      0.000
REMARK  Name = 2929
REMARK  5 active torsions:
REMARK  status: ('A' for Active; 'I' for Inactive)
REMARK    1  A    between atoms: N_1  and  C_22
REMARK    2  A    between atoms: C_4  and  C_11
REMARK    3  A    between atoms: C_11  and  C_14
REMARK    4  A    between atoms: N_13  and  C_17
REMARK    5  A    between atoms: C_22  and  C_24
REMARK                            x       y       z     vdW  Elec       q    Type
REMARK                         _______ _______ _______ _____ _____    ______ ____
ROOT
ATOM      1  N   UNL     1      34.224 -22.957 -14.368  0.00  0.00    -0.281 N 
ATOM      2  C   UNL     1      32.857 -22.800 -14.405  0.00  0.00    +0.052 C 
ATOM      3  C   UNL     1      32.499 -22.627 -15.744  0.00  0.00    +0.018 C 
ATOM      4  C   UNL     1      33.698 -22.686 -16.508  0.00  0.00    +0.060 C 
ATOM      5  C   UNL     1      34.741 -22.890 -15.634  0.00  0.00    +0.069 C 
ATOM      6  C   UNL     1      31.921 -22.798 -13.366  0.00  0.00    +0.015 C 
ATOM      7  C   UNL     1      31.139 -22.442 -16.062  0.00  0.00    +0.001 C 
ATOM      8  C   UNL     1      30.577 -22.613 -13.706  0.00  0.00    +0.001 C 
ATOM      9  C   UNL     1      30.191 -22.438 -15.033  0.00  0.00    +0.000 C 
ENDROOT
BRANCH   4  11
ATOM     10  O   UNL     1      33.964 -23.518 -18.716  0.00  0.00    -0.282 OA
ATOM     11  C   UNL     1      33.849 -22.562 -17.930  0.00  0.00    +0.250 C 
BRANCH  11  14
ATOM     12  O   UNL     1      32.889 -20.536 -18.577  0.00  0.00    -0.266 OA
ATOM     13  N   UNL     1      35.119 -21.002 -19.227  0.00  0.00    -0.278 N 
ATOM     14  C   UNL     1      33.896 -21.221 -18.629  0.00  0.00    +0.289 C 
ATOM     15  H   UNL     1      35.790 -21.716 -19.131  0.00  0.00    +0.155 HD
BRANCH  13  17
ATOM     16  N   UNL     1      36.290 -17.620 -21.406  0.00  0.00    -0.242 NA
ATOM     17  C   UNL     1      35.514 -19.860 -19.961  0.00  0.00    +0.054 C 
ATOM     18  C   UNL     1      36.807 -19.391 -19.844  0.00  0.00    +0.035 C 
ATOM     19  C   UNL     1      34.600 -19.234 -20.786  0.00  0.00    +0.035 C 
ATOM     20  C   UNL     1      37.144 -18.270 -20.585  0.00  0.00    +0.100 C 
ATOM     21  C   UNL     1      35.036 -18.120 -21.485  0.00  0.00    +0.100 C 
ENDBRANCH  13  17
ENDBRANCH  11  14
ENDBRANCH   4  11
BRANCH   1  22
ATOM     22  C   UNL     1      35.017 -23.164 -13.175  0.00  0.00    +0.122 C 
BRANCH  22  24
ATOM     23 CL   UNL     1      40.491 -25.229 -14.509  0.00  0.00    -0.082 Cl
ATOM     24  C   UNL     1      36.389 -23.683 -13.510  0.00  0.00    -0.002 C 
ATOM     25  C   UNL     1      36.706 -25.007 -13.238  0.00  0.00    -0.002 C 
ATOM     26  C   UNL     1      37.320 -22.829 -14.086  0.00  0.00    -0.002 C 
ATOM     27  C   UNL     1      37.978 -25.486 -13.549  0.00  0.00    +0.011 C 
ATOM     28  C   UNL     1      38.593 -23.309 -14.395  0.00  0.00    +0.011 C 
ATOM     29  C   UNL     1      38.922 -24.638 -14.127  0.00  0.00    +0.058 C 
ENDBRANCH  22  24
ENDBRANCH   1  22
TORSDOF 5
ENDMDL
MODEL 2
REMARK VINA RESULT:     -11.5      3.514      7.275
REMARK  Name = 2929
REMARK  5 active torsions:
REMARK  status: ('A' for Active; 'I' for Inactive)
REMARK    1  A    between atoms: N_1  and  C_22
REMARK    2  A    between atoms: C_4  and  C_11
REMARK    3  A    between atoms: C_11  and  C_14
REMARK    4  A    between atoms: N_13  and  C_17
REMARK    5  A    between atoms: C_22  and  C_24
REMARK                            x       y       z     vdW  Elec       q    Type
REMARK                         _______ _______ _______ _____ _____    ______ ____
ROOT
ATOM      1  N   UNL     1      37.179 -22.467 -14.851  0.00  0.00    -0.281 N 
ATOM      2  C   UNL     1      37.945 -23.481 -14.322  0.00  0.00    +0.052 C 
ATOM      3  C   UNL     1      37.192 -24.081 -13.311  0.00  0.00    +0.018 C 
ATOM      4  C   UNL     1      35.949 -23.392 -13.252  0.00  0.00    +0.060 C 
ATOM      5  C   UNL     1      35.971 -22.405 -14.211  0.00  0.00    +0.069 C 
ATOM      6  C   UNL     1      39.234 -23.909 -14.659  0.00  0.00    +0.015 C 
ATOM      7  C   UNL     1      37.751 -25.160 -12.599  0.00  0.00    +0.001 C 
ATOM      8  C   UNL     1      39.768 -24.982 -13.940  0.00  0.00    +0.001 C 
ATOM      9  C   UNL     1      39.039 -25.600 -12.925  0.00  0.00    +0.000 C 
ENDROOT
BRANCH   4  11
ATOM     10  O   UNL     1      34.918 -24.215 -11.277  0.00  0.00    -0.282 OA
ATOM     11  C   UNL     1      34.840 -23.638 -12.375  0.00  0.00    +0.250 C 
BRANCH  11  14
ATOM     12  O   UNL     1      32.914 -22.373 -12.003  0.00  0.00    -0.266 OA
ATOM     13  N   UNL     1      32.945 -23.900 -13.814  0.00  0.00    -0.278 N 
ATOM     14  C   UNL     1      33.425 -23.219 -12.716  0.00  0.00    +0.289 C 
ATOM     15  H   UNL     1      33.555 -24.551 -14.231  0.00  0.00    +0.155 HD
BRANCH  13  17
ATOM     16  N   UNL     1      29.165 -23.486 -15.574  0.00  0.00    -0.242 NA
ATOM     17  C   UNL     1      31.670 -23.761 -14.409  0.00  0.00    +0.054 C 
ATOM     18  C   UNL     1      30.664 -24.645 -14.073  0.00  0.00    +0.035 C 
ATOM     19  C   UNL     1      31.451 -22.742 -15.314  0.00  0.00    +0.035 C 
ATOM     20  C   UNL     1      29.432 -24.465 -14.682  0.00  0.00    +0.100 C 
ATOM     21  C   UNL     1      30.184 -22.647 -15.868  0.00  0.00    +0.100 C 
ENDBRANCH  13  17
ENDBRANCH  11  14
ENDBRANCH   4  11
BRANCH   1  22
ATOM     22  C   UNL     1      37.578 -21.584 -15.927  0.00  0.00    +0.122 C 
BRANCH  22  24
ATOM     23 CL   UNL     1      33.135 -20.823 -19.890  0.00  0.00    -0.082 Cl
ATOM     24  C   UNL     1      36.464 -21.394 -16.922  0.00  0.00    -0.002 C 
ATOM     25  C   UNL     1      36.696 -20.659 -18.076  0.00  0.00    -0.002 C 
ATOM     26  C   UNL     1      35.220 -21.955 -16.670  0.00  0.00    -0.002 C 
ATOM     27  C   UNL     1      35.663 -20.482 -18.997  0.00  0.00    +0.011 C 
ATOM     28  C   UNL     1      34.187 -21.778 -17.590  0.00  0.00    +0.011 C 
ATOM     29  C   UNL     1      34.409 -21.042 -18.754  0.00  0.00    +0.058 C 
ENDBRANCH  22  24
ENDBRANCH   1  22
TORSDOF 5
ENDMDL
MODEL 3
REMARK VINA RESULT:     -11.3      3.642      5.859
REMARK  Name = 2929
REMARK  5 active torsions:
REMARK  status: ('A' for Active; 'I' for Inactive)
REMARK    1  A    between atoms: N_1  and  C_22
REMARK    2  A    between atoms: C_4  and  C_11
REMARK    3  A    between atoms: C_11  and  C_14
REMARK    4  A    between atoms: N_13  and  C_17
REMARK    5  A    between atoms: C_22  and  C_24
REMARK                            x       y       z     vdW  Elec       q    Type
REMARK                         _______ _______ _______ _____ _____    ______ ____
ROOT
ATOM      1  N   UNL     1      34.756 -23.524 -12.953  0.00  0.00    -0.281 N 
ATOM      2  C   UNL     1      34.982 -22.978 -14.196  0.00  0.00    +0.052 C 
ATOM      3  C   UNL     1      33.775 -23.032 -14.895  0.00  0.00    +0.018 C 
ATOM      4  C   UNL     1      32.817 -23.629 -14.029  0.00  0.00    +0.060 C 
ATOM      5  C   UNL     1      33.450 -23.920 -12.842  0.00  0.00    +0.069 C 
ATOM      6  C   UNL     1      36.153 -22.446 -14.749  0.00  0.00    +0.015 C 
ATOM      7  C   UNL     1      33.731 -22.532 -16.212  0.00  0.00    +0.001 C 
ATOM      8  C   UNL     1      36.085 -21.955 -16.056  0.00  0.00    +0.001 C 
ATOM      9  C   UNL     1      34.894 -21.996 -16.777  0.00  0.00    +0.000 C 
ENDROOT
BRANCH   4  11
ATOM     10  O   UNL     1      30.919 -25.032 -14.297  0.00  0.00    -0.282 OA
ATOM     11  C   UNL     1      31.432 -23.900 -14.291  0.00  0.00    +0.250 C 
BRANCH  11  14
ATOM     12  O   UNL     1      30.740 -21.670 -14.280  0.00  0.00    -0.266 OA
ATOM     13  N   UNL     1      29.312 -23.304 -15.231  0.00  0.00    -0.278 N 
ATOM     14  C   UNL     1      30.436 -22.805 -14.607  0.00  0.00    +0.289 C 
ATOM     15  H   UNL     1      29.293 -24.276 -15.391  0.00  0.00    +0.155 HD
BRANCH  13  17
ATOM     16  N   UNL     1      25.974 -21.127 -16.525  0.00  0.00    -0.242 NA
ATOM     17  C   UNL     1      28.185 -22.571 -15.668  0.00  0.00    +0.054 C 
ATOM     18  C   UNL     1      27.333 -22.015 -14.734  0.00  0.00    +0.035 C 
ATOM     19  C   UNL     1      27.956 -22.420 -17.021  0.00  0.00    +0.035 C 
ATOM     20  C   UNL     1      26.245 -21.304 -15.212  0.00  0.00    +0.100 C 
ATOM     21  C   UNL     1      26.840 -21.691 -17.397  0.00  0.00    +0.100 C 
ENDBRANCH  13  17
ENDBRANCH  11  14
ENDBRANCH   4  11
BRANCH   1  22
ATOM     22  C   UNL     1      35.743 -23.667 -11.903  0.00  0.00    +0.122 C 
BRANCH  22  24
ATOM     23 CL   UNL     1      40.882 -25.931 -14.020  0.00  0.00    -0.082 Cl
ATOM     24  C   UNL     1      37.031 -24.234 -12.435  0.00  0.00    -0.002 C 
ATOM     25  C   UNL     1      37.010 -25.420 -13.157  0.00  0.00    -0.002 C 
ATOM     26  C   UNL     1      38.223 -23.564 -12.196  0.00  0.00    -0.002 C 
ATOM     27  C   UNL     1      38.205 -25.946 -13.648  0.00  0.00    +0.011 C 
ATOM     28  C   UNL     1      39.418 -24.091 -12.687  0.00  0.00    +0.011 C 
ATOM     29  C   UNL     1      39.408 -25.282 -13.414  0.00  0.00    +0.058 C 
ENDBRANCH  22  24
ENDBRANCH   1  22
TORSDOF 5
ENDMDL
MODEL 4
REMARK VINA RESULT:     -11.3      3.366      6.749
REMARK  Name = 2929
REMARK  5 active torsions:
REMARK  status: ('A' for Active; 'I' for Inactive)
REMARK    1  A    between atoms: N_1  and  C_22
REMARK    2  A    between atoms: C_4  and  C_11
REMARK    3  A    between atoms: C_11  and  C_14
REMARK    4  A    between atoms: N_13  and  C_17
REMARK    5  A    between atoms: C_22  and  C_24
REMARK                            x       y       z     vdW  Elec       q    Type
REMARK                         _______ _______ _______ _____ _____    ______ ____
ROOT
ATOM      1  N   UNL     1      33.631 -23.020 -16.553  0.00  0.00    -0.281 N 
ATOM      2  C   UNL     1      32.459 -22.691 -15.909  0.00  0.00    +0.052 C 
ATOM      3  C   UNL     1      32.732 -22.683 -14.539  0.00  0.00    +0.018 C 
ATOM      4  C   UNL     1      34.105 -23.019 -14.385  0.00  0.00    +0.060 C 
ATOM      5  C   UNL     1      34.631 -23.220 -15.640  0.00  0.00    +0.069 C 
ATOM      6  C   UNL     1      31.193 -22.401 -16.430  0.00  0.00    +0.015 C 
ATOM      7  C   UNL     1      31.689 -22.373 -13.644  0.00  0.00    +0.001 C 
ATOM      8  C   UNL     1      30.175 -22.096 -15.522  0.00  0.00    +0.001 C 
ATOM      9  C   UNL     1      30.418 -22.080 -14.150  0.00  0.00    +0.000 C 
ENDROOT
BRANCH   4  11
ATOM     10  O   UNL     1      34.359 -23.275 -12.037  0.00  0.00    -0.282 OA
ATOM     11  C   UNL     1      34.856 -23.139 -13.167  0.00  0.00    +0.250 C 
BRANCH  11  14
ATOM     12  O   UNL     1      36.885 -22.184 -12.520  0.00  0.00    -0.266 OA
ATOM     13  N   UNL     1      36.919 -24.144 -13.850  0.00  0.00    -0.278 N 
ATOM     14  C   UNL     1      36.369 -23.099 -13.139  0.00  0.00    +0.289 C 
ATOM     15  H   UNL     1      36.287 -24.769 -14.274  0.00  0.00    +0.155 HD
BRANCH  13  17
ATOM     16  N   UNL     1      40.995 -24.951 -14.390  0.00  0.00    -0.242 NA
ATOM     17  C   UNL     1      38.294 -24.417 -14.033  0.00  0.00    +0.054 C 
ATOM     18  C   UNL     1      39.040 -23.613 -14.872  0.00  0.00    +0.035 C 
ATOM     19  C   UNL     1      38.869 -25.482 -13.369  0.00  0.00    +0.035 C 
ATOM     20  C   UNL     1      40.384 -23.921 -15.016  0.00  0.00    +0.100 C 
ATOM     21  C   UNL     1      40.220 -25.707 -13.581  0.00  0.00    +0.100 C 
ENDBRANCH  13  17
ENDBRANCH  11  14
ENDBRANCH   4  11
BRANCH   1  22
ATOM     22  C   UNL     1      33.798 -23.142 -17.986  0.00  0.00    +0.122 C 
BRANCH  22  24
ATOM     23 CL   UNL     1      35.421 -17.918 -20.455  0.00  0.00    -0.082 Cl
ATOM     24  C   UNL     1      34.205 -21.831 -18.604  0.00  0.00    -0.002 C 
ATOM     25  C   UNL     1      33.236 -21.010 -19.165  0.00  0.00    -0.002 C 
ATOM     26  C   UNL     1      35.543 -21.463 -18.607  0.00  0.00    -0.002 C 
ATOM     27  C   UNL     1      33.614 -19.796 -19.739  0.00  0.00    +0.011 C 
ATOM     28  C   UNL     1      35.920 -20.249 -19.181  0.00  0.00    +0.011 C 
ATOM     29  C   UNL     1      34.955 -19.415 -19.747  0.00  0.00    +0.058 C 
ENDBRANCH  22  24
ENDBRANCH   1  22
TORSDOF 5
ENDMDL
MODEL 5
REMARK VINA RESULT:     -10.9      2.777      5.182
REMARK  Name = 2929
REMARK  5 active torsions:
REMARK  status: ('A' for Active; 'I' for Inactive)
REMARK    1  A    between atoms: N_1  and  C_22
REMARK    2  A    between atoms: C_4  and  C_11
REMARK    3  A    between atoms: C_11  and  C_14
REMARK    4  A    between atoms: N_13  and  C_17
REMARK    5  A    between atoms: C_22  and  C_24
REMARK                            x       y       z     vdW  Elec       q    Type
REMARK                         _______ _______ _______ _____ _____    ______ ____
ROOT
ATOM      1  N   UNL     1      35.225 -23.311 -13.342  0.00  0.00    -0.281 N 
ATOM      2  C   UNL     1      36.426 -23.971 -13.208  0.00  0.00    +0.052 C 
ATOM      3  C   UNL     1      37.276 -23.482 -14.202  0.00  0.00    +0.018 C 
ATOM      4  C   UNL     1      36.545 -22.508 -14.936  0.00  0.00    +0.060 C 
ATOM      5  C   UNL     1      35.287 -22.424 -14.383  0.00  0.00    +0.069 C 
ATOM      6  C   UNL     1      36.819 -24.952 -12.291  0.00  0.00    +0.015 C 
ATOM      7  C   UNL     1      38.584 -23.998 -14.287  0.00  0.00    +0.001 C 
ATOM      8  C   UNL     1      38.121 -25.449 -12.396  0.00  0.00    +0.001 C 
ATOM      9  C   UNL     1      38.992 -24.980 -13.377  0.00  0.00    +0.000 C 
ENDROOT
BRANCH   4  11
ATOM     10  O   UNL     1      38.118 -21.221 -16.165  0.00  0.00    -0.282 OA
ATOM     11  C   UNL     1      36.987 -21.724 -16.054  0.00  0.00    +0.250 C 
BRANCH  11  14
ATOM     12  O   UNL     1      35.071 -22.073 -17.340  0.00  0.00    -0.266 OA
ATOM     13  N   UNL     1      36.611 -20.405 -18.016  0.00  0.00    -0.278 N 
ATOM     14  C   UNL     1      36.092 -21.415 -17.235  0.00  0.00    +0.289 C 
ATOM     15  H   UNL     1      37.469 -20.019 -17.724  0.00  0.00    +0.155 HD
BRANCH  13  17
ATOM     16  N   UNL     1      34.927 -18.797 -21.500  0.00  0.00    -0.242 NA
ATOM     17  C   UNL     1      36.043 -19.861 -19.191  0.00  0.00    +0.054 C 
ATOM     18  C   UNL     1      36.811 -19.055 -20.006  0.00  0.00    +0.035 C 
ATOM     19  C   UNL     1      34.729 -20.148 -19.504  0.00  0.00    +0.035 C 
ATOM     20  C   UNL     1      36.208 -18.548 -21.147  0.00  0.00    +0.100 C 
ATOM     21  C   UNL     1      34.219 -19.592 -20.666  0.00  0.00    +0.100 C 
ENDBRANCH  13  17
ENDBRANCH  11  14
ENDBRANCH   4  11
BRANCH   1  22
ATOM     22  C   UNL     1      34.056 -23.513 -12.512  0.00  0.00    +0.122 C 
BRANCH  22  24
ATOM     23 CL   UNL     1      29.023 -23.479 -15.782  0.00  0.00    -0.082 Cl
ATOM     24  C   UNL     1      32.793 -23.504 -13.331  0.00  0.00    -0.002 C 
ATOM     25  C   UNL     1      31.970 -24.622 -13.331  0.00  0.00    -0.002 C 
ATOM     26  C   UNL     1      32.470 -22.379 -14.077  0.00  0.00    -0.002 C 
ATOM     27  C   UNL     1      30.801 -24.614 -14.091  0.00  0.00    +0.011 C 
ATOM     28  C   UNL     1      31.301 -22.371 -14.837  0.00  0.00    +0.011 C 
ATOM     29  C   UNL     1      30.466 -23.489 -14.844  0.00  0.00    +0.058 C 
ENDBRANCH  22  24
ENDBRANCH   1  22
TORSDOF 5
ENDMDL
MODEL 6
REMARK VINA RESULT:     -10.9      3.073      5.334
REMARK  Name = 2929
REMARK  5 active torsions:
REMARK  status: ('A' for Active; 'I' for Inactive)
REMARK    1  A    between atoms: N_1  and  C_22
REMARK    2  A    between atoms: C_4  and  C_11
REMARK    3  A    between atoms: C_11  and  C_14
REMARK    4  A    between atoms: N_13  and  C_17
REMARK    5  A    between atoms: C_22  and  C_24
REMARK                            x       y       z     vdW  Elec       q    Type
REMARK                         _______ _______ _______ _____ _____    ______ ____
ROOT
ATOM      1  N   UNL     1      33.634 -22.904 -15.416  0.00  0.00    -0.281 N 
ATOM      2  C   UNL     1      34.933 -22.469 -15.278  0.00  0.00    +0.052 C 
ATOM      3  C   UNL     1      35.368 -22.065 -16.541  0.00  0.00    +0.018 C 
ATOM      4  C   UNL     1      34.287 -22.273 -17.442  0.00  0.00    +0.060 C 
ATOM      5  C   UNL     1      33.235 -22.789 -16.721  0.00  0.00    +0.069 C 
ATOM      6  C   UNL     1      35.746 -22.403 -14.140  0.00  0.00    +0.015 C 
ATOM      7  C   UNL     1      36.681 -21.572 -16.679  0.00  0.00    +0.001 C 
ATOM      8  C   UNL     1      37.044 -21.910 -14.302  0.00  0.00    +0.001 C 
ATOM      9  C   UNL     1      37.506 -21.500 -15.551  0.00  0.00    +0.000 C 
ENDROOT
BRANCH   4  11
ATOM     10  O   UNL     1      34.417 -22.863 -19.739  0.00  0.00    -0.282 OA
ATOM     11  C   UNL     1      34.245 -22.009 -18.852  0.00  0.00    +0.250 C 
BRANCH  11  14
ATOM     12  O   UNL     1      32.930 -20.101 -19.131  0.00  0.00    -0.266 OA
ATOM     13  N   UNL     1      35.054 -20.187 -20.178  0.00  0.00    -0.278 N 
ATOM     14  C   UNL     1      33.994 -20.626 -19.413  0.00  0.00    +0.289 C 
ATOM     15  H   UNL     1      35.819 -20.801 -20.264  0.00  0.00    +0.155 HD
BRANCH  13  17
ATOM     16  N   UNL     1      35.376 -16.515 -22.170  0.00  0.00    -0.242 NA
ATOM     17  C   UNL     1      35.162 -18.948 -20.850  0.00  0.00    +0.054 C 
ATOM     18  C   UNL     1      35.554 -17.826 -20.147  0.00  0.00    +0.035 C 
ATOM     19  C   UNL     1      34.875 -18.880 -22.199  0.00  0.00    +0.035 C 
ATOM     20  C   UNL     1      35.645 -16.636 -20.851  0.00  0.00    +0.100 C 
ATOM     21  C   UNL     1      34.996 -17.643 -22.811  0.00  0.00    +0.100 C 
ENDBRANCH  13  17
ENDBRANCH  11  14
ENDBRANCH   4  11
BRANCH   1  22
ATOM     22  C   UNL     1      32.797 -23.412 -14.350  0.00  0.00    +0.122 C 
BRANCH  22  24
ATOM     23 CL   UNL     1      27.023 -22.049 -15.256  0.00  0.00    -0.082 Cl
ATOM     24  C   UNL     1      31.349 -23.070 -14.578  0.00  0.00    -0.002 C 
ATOM     25  C   UNL     1      30.873 -21.823 -14.195  0.00  0.00    -0.002 C 
ATOM     26  C   UNL     1      30.510 -24.006 -15.167  0.00  0.00    -0.002 C 
ATOM     27  C   UNL     1      29.531 -21.507 -14.406  0.00  0.00    +0.011 C 
ATOM     28  C   UNL     1      29.168 -23.690 -15.377  0.00  0.00    +0.011 C 
ATOM     29  C   UNL     1      28.678 -22.440 -14.997  0.00  0.00    +0.058 C 
ENDBRANCH  22  24
ENDBRANCH   1  22
TORSDOF 5
ENDMDL
MODEL 7
REMARK VINA RESULT:     -10.7      5.429      9.369
REMARK  Name = 2929
REMARK  5 active torsions:
REMARK  status: ('A' for Active; 'I' for Inactive)
REMARK    1  A    between atoms: N_1  and  C_22
REMARK    2  A    between atoms: C_4  and  C_11
REMARK    3  A    between atoms: C_11  and  C_14
REMARK    4  A    between atoms: N_13  and  C_17
REMARK    5  A    between atoms: C_22  and  C_24
REMARK                            x       y       z     vdW  Elec       q    Type
REMARK                         _______ _______ _______ _____ _____    ______ ____
ROOT
ATOM      1  N   UNL     1      35.961 -17.312 -21.794  0.00  0.00    -0.281 N 
ATOM      2  C   UNL     1      35.234 -17.684 -22.902  0.00  0.00    +0.052 C 
ATOM      3  C   UNL     1      34.615 -16.533 -23.393  0.00  0.00    +0.018 C 
ATOM      4  C   UNL     1      34.995 -15.459 -22.542  0.00  0.00    +0.060 C 
ATOM      5  C   UNL     1      35.823 -15.969 -21.568  0.00  0.00    +0.069 C 
ATOM      6  C   UNL     1      35.080 -18.940 -23.501  0.00  0.00    +0.015 C 
ATOM      7  C   UNL     1      33.800 -16.639 -24.538  0.00  0.00    +0.001 C 
ATOM      8  C   UNL     1      34.268 -19.020 -24.636  0.00  0.00    +0.001 C 
ATOM      9  C   UNL     1      33.637 -17.887 -25.148  0.00  0.00    +0.000 C 
ENDROOT
BRANCH   4  11
ATOM     10  O   UNL     1      34.592 -13.418 -23.688  0.00  0.00    -0.282 OA
ATOM     11  C   UNL     1      34.616 -14.078 -22.635  0.00  0.00    +0.250 C 
BRANCH  11  14
ATOM     12  O   UNL     1      34.887 -13.391 -20.421  0.00  0.00    -0.266 OA
ATOM     13  N   UNL     1      33.095 -12.492 -21.684  0.00  0.00    -0.278 N 
ATOM     14  C   UNL     1      34.209 -13.263 -21.426  0.00  0.00    +0.289 C 
ATOM     15  H   UNL     1      32.713 -12.560 -22.589  0.00  0.00    +0.155 HD
BRANCH  13  17
ATOM     16  N   UNL     1      31.170  -9.885 -19.028  0.00  0.00    -0.242 NA
ATOM     17  C   UNL     1      32.445 -11.613 -20.788  0.00  0.00    +0.054 C 
ATOM     18  C   UNL     1      32.049 -12.076 -19.549  0.00  0.00    +0.035 C 
ATOM     19  C   UNL     1      32.217 -10.305 -21.167  0.00  0.00    +0.035 C 
ATOM     20  C   UNL     1      31.417 -11.174 -18.707  0.00  0.00    +0.100 C 
ATOM     21  C   UNL     1      31.577  -9.482 -20.254  0.00  0.00    +0.100 C 
ENDBRANCH  13  17
ENDBRANCH  11  14
ENDBRANCH   4  11
BRANCH   1  22
ATOM     22  C   UNL     1      36.760 -18.198 -20.974  0.00  0.00    +0.122 C 
BRANCH  22  24
ATOM     23 CL   UNL     1      33.317 -22.030 -17.894  0.00  0.00    -0.082 Cl
ATOM     24  C   UNL     1      35.896 -19.160 -20.202  0.00  0.00    -0.002 C 
ATOM     25  C   UNL     1      34.514 -19.063 -20.294  0.00  0.00    -0.002 C 
ATOM     26  C   UNL     1      36.494 -20.130 -19.409  0.00  0.00    -0.002 C 
ATOM     27  C   UNL     1      33.715 -19.954 -19.578  0.00  0.00    +0.011 C 
ATOM     28  C   UNL     1      35.694 -21.019 -18.693  0.00  0.00    +0.011 C 
ATOM     29  C   UNL     1      34.304 -20.932 -18.778  0.00  0.00    +0.058 C 
ENDBRANCH  22  24
ENDBRANCH   1  22
TORSDOF 5
ENDMDL
MODEL 8
REMARK VINA RESULT:     -10.5      5.446      9.644
REMARK  Name = 2929
REMARK  5 active torsions:
REMARK  status: ('A' for Active; 'I' for Inactive)
REMARK    1  A    between atoms: N_1  and  C_22
REMARK    2  A    between atoms: C_4  and  C_11
REMARK    3  A    between atoms: C_11  and  C_14
REMARK    4  A    between atoms: N_13  and  C_17
REMARK    5  A    between atoms: C_22  and  C_24
REMARK                            x       y       z     vdW  Elec       q    Type
REMARK                         _______ _______ _______ _____ _____    ______ ____
ROOT
ATOM      1  N   UNL     1      35.640 -17.377 -21.778  0.00  0.00    -0.281 N 
ATOM      2  C   UNL     1      35.041 -16.987 -22.955  0.00  0.00    +0.052 C 
ATOM      3  C   UNL     1      34.631 -15.663 -22.789  0.00  0.00    +0.018 C 
ATOM      4  C   UNL     1      35.004 -15.272 -21.473  0.00  0.00    +0.060 C 
ATOM      5  C   UNL     1      35.623 -16.346 -20.877  0.00  0.00    +0.069 C 
ATOM      6  C   UNL     1      34.833 -17.700 -24.141  0.00  0.00    +0.015 C 
ATOM      7  C   UNL     1      33.980 -15.016 -23.858  0.00  0.00    +0.001 C 
ATOM      8  C   UNL     1      34.186 -17.038 -25.188  0.00  0.00    +0.001 C 
ATOM      9  C   UNL     1      33.766 -15.716 -25.051  0.00  0.00    +0.000 C 
ENDROOT
BRANCH   4  11
ATOM     10  O   UNL     1      35.345 -13.645 -19.776  0.00  0.00    -0.282 OA
ATOM     11  C   UNL     1      34.800 -14.002 -20.835  0.00  0.00    +0.250 C 
BRANCH  11  14
ATOM     12  O   UNL     1      32.683 -13.065 -21.126  0.00  0.00    -0.266 OA
ATOM     13  N   UNL     1      34.547 -12.015 -22.145  0.00  0.00    -0.278 N 
ATOM     14  C   UNL     1      33.867 -12.951 -21.396  0.00  0.00    +0.289 C 
ATOM     15  H   UNL     1      35.521 -12.137 -22.223  0.00  0.00    +0.155 HD
BRANCH  13  17
ATOM     16  N   UNL     1      32.910  -8.705 -24.126  0.00  0.00    -0.242 NA
ATOM     17  C   UNL     1      33.995 -10.898 -22.813  0.00  0.00    +0.054 C 
ATOM     18  C   UNL     1      34.310 -10.676 -24.139  0.00  0.00    +0.035 C 
ATOM     19  C   UNL     1      33.149 -10.048 -22.129  0.00  0.00    +0.035 C 
ATOM     20  C   UNL     1      33.743  -9.568 -24.749  0.00  0.00    +0.100 C 
ATOM     21  C   UNL     1      32.634  -8.968 -22.828  0.00  0.00    +0.100 C 
ENDBRANCH  13  17
ENDBRANCH  11  14
ENDBRANCH   4  11
BRANCH   1  22
ATOM     22  C   UNL     1      36.210 -18.681 -21.514  0.00  0.00    +0.122 C 
BRANCH  22  24
ATOM     23 CL   UNL     1      32.891 -21.761 -17.575  0.00  0.00    -0.082 Cl
ATOM     24  C   UNL     1      35.378 -19.454 -20.527  0.00  0.00    -0.002 C 
ATOM     25  C   UNL     1      33.993 -19.360 -20.578  0.00  0.00    -0.002 C 
ATOM     26  C   UNL     1      36.006 -20.250 -19.579  0.00  0.00    -0.002 C 
ATOM     27  C   UNL     1      33.223 -20.076 -19.662  0.00  0.00    +0.011 C 
ATOM     28  C   UNL     1      35.234 -20.965 -18.663  0.00  0.00    +0.011 C 
ATOM     29  C   UNL     1      33.843 -20.879 -18.705  0.00  0.00    +0.058 C 
ENDBRANCH  22  24
ENDBRANCH   1  22
TORSDOF 5
ENDMDL
MODEL 9
REMARK VINA RESULT:     -10.4      1.564      2.114
REMARK  Name = 2929
REMARK  5 active torsions:
REMARK  status: ('A' for Active; 'I' for Inactive)
REMARK    1  A    between atoms: N_1  and  C_22
REMARK    2  A    between atoms: C_4  and  C_11
REMARK    3  A    between atoms: C_11  and  C_14
REMARK    4  A    between atoms: N_13  and  C_17
REMARK    5  A    between atoms: C_22  and  C_24
REMARK                            x       y       z     vdW  Elec       q    Type
REMARK                         _______ _______ _______ _____ _____    ______ ____
ROOT
ATOM      1  N   UNL     1      35.844 -21.866 -15.862  0.00  0.00    -0.281 N 
ATOM      2  C   UNL     1      34.617 -22.264 -15.383  0.00  0.00    +0.052 C 
ATOM      3  C   UNL     1      33.737 -22.277 -16.467  0.00  0.00    +0.018 C 
ATOM      4  C   UNL     1      34.478 -21.874 -17.612  0.00  0.00    +0.060 C 
ATOM      5  C   UNL     1      35.771 -21.628 -17.208  0.00  0.00    +0.069 C 
ATOM      6  C   UNL     1      34.223 -22.609 -14.085  0.00  0.00    +0.015 C 
ATOM      7  C   UNL     1      32.397 -22.653 -16.247  0.00  0.00    +0.001 C 
ATOM      8  C   UNL     1      32.889 -22.979 -13.891  0.00  0.00    +0.001 C 
ATOM      9  C   UNL     1      31.989 -23.002 -14.954  0.00  0.00    +0.000 C 
ENDROOT
BRANCH   4  11
ATOM     10  O   UNL     1      33.766 -22.679 -19.730  0.00  0.00    -0.282 OA
ATOM     11  C   UNL     1      34.015 -21.733 -18.963  0.00  0.00    +0.250 C 
BRANCH  11  14
ATOM     12  O   UNL     1      32.699 -19.867 -19.444  0.00  0.00    -0.266 OA
ATOM     13  N   UNL     1      34.906 -19.959 -20.301  0.00  0.00    -0.278 N 
ATOM     14  C   UNL     1      33.791 -20.383 -19.609  0.00  0.00    +0.289 C 
ATOM     15  H   UNL     1      35.685 -20.561 -20.292  0.00  0.00    +0.155 HD
BRANCH  13  17
ATOM     16  N   UNL     1      35.338 -16.377 -22.432  0.00  0.00    -0.242 NA
ATOM     17  C   UNL     1      35.051 -18.750 -21.020  0.00  0.00    +0.054 C 
ATOM     18  C   UNL     1      35.381 -17.593 -20.343  0.00  0.00    +0.035 C 
ATOM     19  C   UNL     1      34.861 -18.747 -22.387  0.00  0.00    +0.035 C 
ATOM     20  C   UNL     1      35.513 -16.435 -21.093  0.00  0.00    +0.100 C 
ATOM     21  C   UNL     1      35.016 -17.538 -23.046  0.00  0.00    +0.100 C 
ENDBRANCH  13  17
ENDBRANCH  11  14
ENDBRANCH   4  11
BRANCH   1  22
ATOM     22  C   UNL     1      37.048 -21.715 -15.072  0.00  0.00    +0.122 C 
BRANCH  22  24
ATOM     23 CL   UNL     1      37.750 -26.289 -11.250  0.00  0.00    -0.082 Cl
ATOM     24  C   UNL     1      37.223 -22.862 -14.114  0.00  0.00    -0.002 C 
ATOM     25  C   UNL     1      37.287 -22.610 -12.750  0.00  0.00    -0.002 C 
ATOM     26  C   UNL     1      37.319 -24.156 -14.607  0.00  0.00    -0.002 C 
ATOM     27  C   UNL     1      37.450 -23.673 -11.862  0.00  0.00    +0.011 C 
ATOM     28  C   UNL     1      37.483 -25.219 -13.718  0.00  0.00    +0.011 C 
ATOM     29  C   UNL     1      37.548 -24.978 -12.346  0.00  0.00    +0.058 C 
ENDBRANCH  22  24
ENDBRANCH   1  22
TORSDOF 5
ENDMDL
