MODEL 1
REMARK VINA RESULT:     -11.7      0.000      0.000
REMARK  Name = 42647297
REMARK  5 active torsions:
REMARK  status: ('A' for Active; 'I' for Inactive)
REMARK    1  A    between atoms: N_3  and  C_14
REMARK    2  A    between atoms: C_7  and  N_20
REMARK    3  A    between atoms: N_20  and  C_24
REMARK    4  A    between atoms: C_22  and  C_31
REMARK    5  A    between atoms: N_30  and  C_33
REMARK                            x       y       z     vdW  Elec       q    Type
REMARK                         _______ _______ _______ _____ _____    ______ ____
ROOT
ATOM      1  O   UNL     1      32.167 -12.852 -19.571  0.00  0.00    -0.269 OA
ATOM      2  N   UNL     1      32.646 -11.127 -21.078  0.00  0.00    -0.240 N 
ATOM      3  N   UNL     1      33.427  -9.673 -22.902  0.00  0.00    -0.174 N 
ATOM      4  N   UNL     1      34.199  -9.736 -24.007  0.00  0.00    -0.171 NA
ATOM      5  C   UNL     1      33.350 -10.859 -22.237  0.00  0.00    +0.133 C 
ATOM      6  C   UNL     1      34.114 -11.745 -22.946  0.00  0.00    +0.064 C 
ATOM      7  C   UNL     1      34.233 -13.088 -22.496  0.00  0.00    +0.057 C 
ATOM      8  C   UNL     1      33.572 -13.424 -21.367  0.00  0.00    +0.073 C 
ATOM      9  C   UNL     1      32.729 -12.441 -20.588  0.00  0.00    +0.255 C 
ATOM     10  C   UNL     1      34.617 -11.009 -24.028  0.00  0.00    +0.122 C 
ATOM     11  C   UNL     1      31.862 -10.103 -20.401  0.00  0.00    +0.122 C 
ENDROOT
BRANCH   3  14
ATOM     12  F   UNL     1      34.921  -7.552 -21.907  0.00  0.00    -0.203 F 
ATOM     13  F   UNL     1      31.061  -4.828 -21.702  0.00  0.00    -0.204 F 
ATOM     14  C   UNL     1      32.832  -8.448 -22.597  0.00  0.00    +0.103 C 
ATOM     15  C   UNL     1      33.604  -7.399 -22.100  0.00  0.00    +0.158 C 
ATOM     16  C   UNL     1      31.462  -8.276 -22.793  0.00  0.00    +0.021 C 
ATOM     17  C   UNL     1      33.005  -6.175 -21.798  0.00  0.00    +0.061 C 
ATOM     18  C   UNL     1      30.863  -7.053 -22.490  0.00  0.00    +0.031 C 
ATOM     19  C   UNL     1      31.635  -6.002 -21.993  0.00  0.00    +0.142 C 
ENDBRANCH   3  14
BRANCH   7  20
ATOM     20  N   UNL     1      34.996 -13.979 -23.199  0.00  0.00    -0.313 N 
ATOM     21  H   UNL     1      35.713 -13.590 -23.749  0.00  0.00    +0.152 HD
BRANCH  20  24
ATOM     22  C   UNL     1      35.307 -17.516 -22.204  0.00  0.00    +0.055 C 
ATOM     23  C   UNL     1      35.408 -16.125 -22.184  0.00  0.00    +0.019 C 
ATOM     24  C   UNL     1      34.886 -15.372 -23.235  0.00  0.00    +0.044 C 
ATOM     25  C   UNL     1      34.683 -18.154 -23.277  0.00  0.00    +0.004 C 
ATOM     26  C   UNL     1      34.261 -16.010 -24.307  0.00  0.00    -0.008 C 
ATOM     27  C   UNL     1      34.160 -17.400 -24.328  0.00  0.00    -0.003 C 
ATOM     28  C   UNL     1      33.692 -15.229 -25.447  0.00  0.00    +0.032 C 
BRANCH  22  31
ATOM     29  O   UNL     1      37.054 -18.211 -20.801  0.00  0.00    -0.270 OA
ATOM     30  N   UNL     1      34.972 -19.164 -20.443  0.00  0.00    -0.302 N 
ATOM     31  C   UNL     1      35.852 -18.301 -21.109  0.00  0.00    +0.246 C 
ATOM     32  H   UNL     1      34.032 -19.187 -20.734  0.00  0.00    +0.150 HD
BRANCH  30  33
ATOM     33  C   UNL     1      35.372 -20.014 -19.357  0.00  0.00    +0.072 C 
ATOM     34  C   UNL     1      35.524 -21.495 -19.546  0.00  0.00    +0.021 C 
ATOM     35  C   UNL     1      34.400 -20.957 -18.710  0.00  0.00    +0.021 C 
ENDBRANCH  30  33
ENDBRANCH  22  31
ENDBRANCH  20  24
ENDBRANCH   7  20
TORSDOF 5
ENDMDL
MODEL 2
REMARK VINA RESULT:     -11.4      6.581     10.397
REMARK  Name = 42647297
REMARK  5 active torsions:
REMARK  status: ('A' for Active; 'I' for Inactive)
REMARK    1  A    between atoms: N_3  and  C_14
REMARK    2  A    between atoms: C_7  and  N_20
REMARK    3  A    between atoms: N_20  and  C_24
REMARK    4  A    between atoms: C_22  and  C_31
REMARK    5  A    between atoms: N_30  and  C_33
REMARK                            x       y       z     vdW  Elec       q    Type
REMARK                         _______ _______ _______ _____ _____    ______ ____
ROOT
ATOM      1  O   UNL     1      37.786 -20.947 -17.754  0.00  0.00    -0.269 OA
ATOM      2  N   UNL     1      36.123 -20.074 -19.149  0.00  0.00    -0.240 N 
ATOM      3  N   UNL     1      34.065 -19.475 -20.357  0.00  0.00    -0.174 N 
ATOM      4  N   UNL     1      32.753 -19.792 -20.373  0.00  0.00    -0.171 NA
ATOM      5  C   UNL     1      34.770 -20.167 -19.420  0.00  0.00    +0.133 C 
ATOM      6  C   UNL     1      33.870 -20.982 -18.790  0.00  0.00    +0.064 C 
ATOM      7  C   UNL     1      34.310 -21.840 -17.745  0.00  0.00    +0.057 C 
ATOM      8  C   UNL     1      35.622 -21.804 -17.425  0.00  0.00    +0.073 C 
ATOM      9  C   UNL     1      36.612 -20.902 -18.125  0.00  0.00    +0.255 C 
ATOM     10  C   UNL     1      32.641 -20.717 -19.410  0.00  0.00    +0.122 C 
ATOM     11  C   UNL     1      36.993 -19.169 -19.887  0.00  0.00    +0.122 C 
ENDROOT
BRANCH   3  14
ATOM     12  F   UNL     1      34.722 -16.903 -19.535  0.00  0.00    -0.203 F 
ATOM     13  F   UNL     1      35.829 -15.685 -23.968  0.00  0.00    -0.204 F 
ATOM     14  C   UNL     1      34.510 -18.515 -21.268  0.00  0.00    +0.103 C 
ATOM     15  C   UNL     1      34.834 -17.232 -20.829  0.00  0.00    +0.158 C 
ATOM     16  C   UNL     1      34.631 -18.844 -22.617  0.00  0.00    +0.021 C 
ATOM     17  C   UNL     1      35.280 -16.276 -21.743  0.00  0.00    +0.061 C 
ATOM     18  C   UNL     1      35.076 -17.888 -23.530  0.00  0.00    +0.031 C 
ATOM     19  C   UNL     1      35.401 -16.603 -23.092  0.00  0.00    +0.142 C 
ENDBRANCH   3  14
BRANCH   7  20
ATOM     20  N   UNL     1      33.416 -22.659 -17.111  0.00  0.00    -0.313 N 
ATOM     21  H   UNL     1      32.892 -23.254 -17.693  0.00  0.00    +0.152 HD
BRANCH  20  24
ATOM     22  C   UNL     1      33.928 -23.247 -13.508  0.00  0.00    +0.055 C 
ATOM     23  C   UNL     1      34.174 -23.145 -14.877  0.00  0.00    +0.019 C 
ATOM     24  C   UNL     1      33.153 -22.756 -15.743  0.00  0.00    +0.044 C 
ATOM     25  C   UNL     1      32.660 -22.959 -13.004  0.00  0.00    +0.004 C 
ATOM     26  C   UNL     1      31.884 -22.466 -15.238  0.00  0.00    -0.008 C 
ATOM     27  C   UNL     1      31.638 -22.568 -13.869  0.00  0.00    -0.003 C 
ATOM     28  C   UNL     1      30.771 -22.045 -16.142  0.00  0.00    +0.032 C 
BRANCH  22  31
ATOM     29  O   UNL     1      35.026 -23.236 -11.435  0.00  0.00    -0.270 OA
ATOM     30  N   UNL     1      35.973 -24.513 -13.121  0.00  0.00    -0.302 N 
ATOM     31  C   UNL     1      34.993 -23.655 -12.605  0.00  0.00    +0.246 C 
ATOM     32  H   UNL     1      35.888 -24.809 -14.056  0.00  0.00    +0.150 HD
BRANCH  30  33
ATOM     33  C   UNL     1      37.093 -24.981 -12.354  0.00  0.00    +0.072 C 
ATOM     34  C   UNL     1      38.368 -24.193 -12.280  0.00  0.00    +0.021 C 
ATOM     35  C   UNL     1      38.333 -25.496 -13.026  0.00  0.00    +0.021 C 
ENDBRANCH  30  33
ENDBRANCH  22  31
ENDBRANCH  20  24
ENDBRANCH   7  20
TORSDOF 5
ENDMDL
MODEL 3
REMARK VINA RESULT:     -10.9      6.455     10.139
REMARK  Name = 42647297
REMARK  5 active torsions:
REMARK  status: ('A' for Active; 'I' for Inactive)
REMARK    1  A    between atoms: N_3  and  C_14
REMARK    2  A    between atoms: C_7  and  N_20
REMARK    3  A    between atoms: N_20  and  C_24
REMARK    4  A    between atoms: C_22  and  C_31
REMARK    5  A    between atoms: N_30  and  C_33
REMARK                            x       y       z     vdW  Elec       q    Type
REMARK                         _______ _______ _______ _____ _____    ______ ____
ROOT
ATOM      1  O   UNL     1      32.198 -21.301 -18.521  0.00  0.00    -0.269 OA
ATOM      2  N   UNL     1      33.884 -20.110 -19.621  0.00  0.00    -0.240 N 
ATOM      3  N   UNL     1      35.965 -19.075 -20.429  0.00  0.00    -0.174 N 
ATOM      4  N   UNL     1      37.283 -19.056 -20.138  0.00  0.00    -0.171 NA
ATOM      5  C   UNL     1      35.246 -19.873 -19.592  0.00  0.00    +0.133 C 
ATOM      6  C   UNL     1      36.143 -20.404 -18.706  0.00  0.00    +0.064 C 
ATOM      7  C   UNL     1      35.689 -21.292 -17.693  0.00  0.00    +0.057 C 
ATOM      8  C   UNL     1      34.368 -21.570 -17.659  0.00  0.00    +0.073 C 
ATOM      9  C   UNL     1      33.381 -20.980 -18.641  0.00  0.00    +0.255 C 
ATOM     10  C   UNL     1      37.385 -19.872 -19.080  0.00  0.00    +0.122 C 
ATOM     11  C   UNL     1      33.018 -19.488 -20.614  0.00  0.00    +0.122 C 
ENDROOT
BRANCH   3  14
ATOM     12  F   UNL     1      35.749 -16.312 -20.232  0.00  0.00    -0.203 F 
ATOM     13  F   UNL     1      34.240 -16.035 -24.706  0.00  0.00    -0.204 F 
ATOM     14  C   UNL     1      35.529 -18.305 -21.507  0.00  0.00    +0.103 C 
ATOM     15  C   UNL     1      35.430 -16.920 -21.383  0.00  0.00    +0.158 C 
ATOM     16  C   UNL     1      35.194 -18.924 -22.711  0.00  0.00    +0.021 C 
ATOM     17  C   UNL     1      34.994 -16.153 -22.465  0.00  0.00    +0.061 C 
ATOM     18  C   UNL     1      34.758 -18.158 -23.792  0.00  0.00    +0.031 C 
ATOM     19  C   UNL     1      34.658 -16.772 -23.668  0.00  0.00    +0.142 C 
ENDBRANCH   3  14
BRANCH   7  20
ATOM     20  N   UNL     1      36.580 -21.826 -16.802  0.00  0.00    -0.313 N 
ATOM     21  H   UNL     1      37.527 -21.782 -17.065  0.00  0.00    +0.152 HD
BRANCH  20  24
ATOM     22  C   UNL     1      34.714 -23.115 -13.896  0.00  0.00    +0.055 C 
ATOM     23  C   UNL     1      34.997 -22.520 -15.125  0.00  0.00    +0.019 C 
ATOM     24  C   UNL     1      36.315 -22.425 -15.568  0.00  0.00    +0.044 C 
ATOM     25  C   UNL     1      35.752 -23.617 -13.109  0.00  0.00    +0.004 C 
ATOM     26  C   UNL     1      37.353 -22.927 -14.782  0.00  0.00    -0.008 C 
ATOM     27  C   UNL     1      37.071 -23.523 -13.553  0.00  0.00    -0.003 C 
ATOM     28  C   UNL     1      38.775 -22.840 -15.232  0.00  0.00    +0.032 C 
BRANCH  22  31
ATOM     29  O   UNL     1      33.061 -23.857 -12.405  0.00  0.00    -0.270 OA
ATOM     30  N   UNL     1      32.360 -22.572 -14.202  0.00  0.00    -0.302 N 
ATOM     31  C   UNL     1      33.339 -23.213 -13.433  0.00  0.00    +0.246 C 
ATOM     32  H   UNL     1      32.646 -22.078 -15.004  0.00  0.00    +0.150 HD
BRANCH  30  33
ATOM     33  C   UNL     1      30.961 -22.600 -13.879  0.00  0.00    +0.072 C 
ATOM     34  C   UNL     1      30.082 -23.729 -14.332  0.00  0.00    +0.021 C 
ATOM     35  C   UNL     1      29.917 -22.363 -14.931  0.00  0.00    +0.021 C 
ENDBRANCH  30  33
ENDBRANCH  22  31
ENDBRANCH  20  24
ENDBRANCH   7  20
TORSDOF 5
ENDMDL
MODEL 4
REMARK VINA RESULT:     -10.7      2.030      2.902
REMARK  Name = 42647297
REMARK  5 active torsions:
REMARK  status: ('A' for Active; 'I' for Inactive)
REMARK    1  A    between atoms: N_3  and  C_14
REMARK    2  A    between atoms: C_7  and  N_20
REMARK    3  A    between atoms: N_20  and  C_24
REMARK    4  A    between atoms: C_22  and  C_31
REMARK    5  A    between atoms: N_30  and  C_33
REMARK                            x       y       z     vdW  Elec       q    Type
REMARK                         _______ _______ _______ _____ _____    ______ ____
ROOT
ATOM      1  O   UNL     1      35.661  -9.434 -24.467  0.00  0.00    -0.269 OA
ATOM      2  N   UNL     1      34.098  -8.967 -22.789  0.00  0.00    -0.240 N 
ATOM      3  N   UNL     1      32.341  -8.976 -21.067  0.00  0.00    -0.174 N 
ATOM      4  N   UNL     1      31.479  -9.834 -20.483  0.00  0.00    -0.171 NA
ATOM      5  C   UNL     1      33.121  -9.565 -22.015  0.00  0.00    +0.133 C 
ATOM      6  C   UNL     1      32.748 -10.881 -22.053  0.00  0.00    +0.064 C 
ATOM      7  C   UNL     1      33.391 -11.768 -22.957  0.00  0.00    +0.057 C 
ATOM      8  C   UNL     1      34.358 -11.254 -23.749  0.00  0.00    +0.073 C 
ATOM      9  C   UNL     1      34.766  -9.800 -23.702  0.00  0.00    +0.255 C 
ATOM     10  C   UNL     1      31.733 -11.000 -21.093  0.00  0.00    +0.122 C 
ATOM     11  C   UNL     1      34.416  -7.551 -22.667  0.00  0.00    +0.122 C 
ENDROOT
BRANCH   3  14
ATOM     12  F   UNL     1      31.037  -7.009 -22.533  0.00  0.00    -0.203 F 
ATOM     13  F   UNL     1      32.268  -3.722 -19.363  0.00  0.00    -0.204 F 
ATOM     14  C   UNL     1      32.322  -7.648 -20.639  0.00  0.00    +0.103 C 
ATOM     15  C   UNL     1      31.660  -6.680 -21.392  0.00  0.00    +0.158 C 
ATOM     16  C   UNL     1      32.966  -7.291 -19.455  0.00  0.00    +0.021 C 
ATOM     17  C   UNL     1      31.641  -5.353 -20.960  0.00  0.00    +0.061 C 
ATOM     18  C   UNL     1      32.949  -5.965 -19.024  0.00  0.00    +0.031 C 
ATOM     19  C   UNL     1      32.286  -4.996 -19.777  0.00  0.00    +0.142 C 
ENDBRANCH   3  14
BRANCH   7  20
ATOM     20  N   UNL     1      33.022 -13.085 -23.002  0.00  0.00    -0.313 N 
ATOM     21  H   UNL     1      32.055 -13.261 -22.964  0.00  0.00    +0.152 HD
BRANCH  20  24
ATOM     22  C   UNL     1      35.078 -15.977 -22.001  0.00  0.00    +0.055 C 
ATOM     23  C   UNL     1      34.258 -14.851 -21.927  0.00  0.00    +0.019 C 
ATOM     24  C   UNL     1      33.844 -14.211 -23.095  0.00  0.00    +0.044 C 
ATOM     25  C   UNL     1      35.485 -16.462 -23.244  0.00  0.00    +0.004 C 
ATOM     26  C   UNL     1      34.250 -14.697 -24.338  0.00  0.00    -0.008 C 
ATOM     27  C   UNL     1      35.071 -15.822 -24.412  0.00  0.00    -0.003 C 
ATOM     28  C   UNL     1      33.822 -14.032 -25.606  0.00  0.00    +0.032 C 
BRANCH  22  31
ATOM     29  O   UNL     1      35.592 -16.017 -19.712  0.00  0.00    -0.270 OA
ATOM     30  N   UNL     1      35.842 -18.001 -20.883  0.00  0.00    -0.302 N 
ATOM     31  C   UNL     1      35.510 -16.644 -20.783  0.00  0.00    +0.246 C 
ATOM     32  H   UNL     1      35.754 -18.440 -21.760  0.00  0.00    +0.150 HD
BRANCH  30  33
ATOM     33  C   UNL     1      36.303 -18.784 -19.770  0.00  0.00    +0.072 C 
ATOM     34  C   UNL     1      37.000 -20.096 -19.980  0.00  0.00    +0.021 C 
ATOM     35  C   UNL     1      35.621 -20.065 -19.387  0.00  0.00    +0.021 C 
ENDBRANCH  30  33
ENDBRANCH  22  31
ENDBRANCH  20  24
ENDBRANCH   7  20
TORSDOF 5
ENDMDL
MODEL 5
REMARK VINA RESULT:     -10.5      2.977      5.532
REMARK  Name = 42647297
REMARK  5 active torsions:
REMARK  status: ('A' for Active; 'I' for Inactive)
REMARK    1  A    between atoms: N_3  and  C_14
REMARK    2  A    between atoms: C_7  and  N_20
REMARK    3  A    between atoms: N_20  and  C_24
REMARK    4  A    between atoms: C_22  and  C_31
REMARK    5  A    between atoms: N_30  and  C_33
REMARK                            x       y       z     vdW  Elec       q    Type
REMARK                         _______ _______ _______ _____ _____    ______ ____
ROOT
ATOM      1  O   UNL     1      34.583 -17.090 -25.167  0.00  0.00    -0.269 OA
ATOM      2  N   UNL     1      34.426 -15.582 -23.385  0.00  0.00    -0.240 N 
ATOM      3  N   UNL     1      34.472 -14.377 -21.240  0.00  0.00    -0.174 N 
ATOM      4  N   UNL     1      34.853 -14.572 -19.960  0.00  0.00    -0.171 NA
ATOM      5  C   UNL     1      34.699 -15.459 -22.035  0.00  0.00    +0.133 C 
ATOM      6  C   UNL     1      35.259 -16.414 -21.231  0.00  0.00    +0.064 C 
ATOM      7  C   UNL     1      35.615 -17.675 -21.780  0.00  0.00    +0.057 C 
ATOM      8  C   UNL     1      35.376 -17.869 -23.095  0.00  0.00    +0.073 C 
ATOM      9  C   UNL     1      34.757 -16.810 -23.980  0.00  0.00    +0.255 C 
ATOM     10  C   UNL     1      35.334 -15.823 -19.961  0.00  0.00    +0.122 C 
ATOM     11  C   UNL     1      33.824 -14.497 -24.149  0.00  0.00    +0.122 C 
ENDROOT
BRANCH   3  14
ATOM     12  F   UNL     1      32.022 -13.576 -20.202  0.00  0.00    -0.203 F 
ATOM     13  F   UNL     1      32.283  -9.476 -22.545  0.00  0.00    -0.204 F 
ATOM     14  C   UNL     1      33.917 -13.140 -21.569  0.00  0.00    +0.103 C 
ATOM     15  C   UNL     1      32.686 -12.761 -21.034  0.00  0.00    +0.158 C 
ATOM     16  C   UNL     1      34.596 -12.283 -22.434  0.00  0.00    +0.021 C 
ATOM     17  C   UNL     1      32.135 -11.522 -21.364  0.00  0.00    +0.061 C 
ATOM     18  C   UNL     1      34.044 -11.045 -22.764  0.00  0.00    +0.031 C 
ATOM     19  C   UNL     1      32.813 -10.665 -22.229  0.00  0.00    +0.142 C 
ENDBRANCH   3  14
BRANCH   7  20
ATOM     20  N   UNL     1      36.174 -18.635 -20.981  0.00  0.00    -0.313 N 
ATOM     21  H   UNL     1      37.150 -18.741 -21.057  0.00  0.00    +0.152 HD
BRANCH  20  24
ATOM     22  C   UNL     1      35.650 -20.894 -18.115  0.00  0.00    +0.055 C 
ATOM     23  C   UNL     1      36.271 -20.045 -19.030  0.00  0.00    +0.019 C 
ATOM     24  C   UNL     1      35.536 -19.484 -20.074  0.00  0.00    +0.044 C 
ATOM     25  C   UNL     1      34.291 -21.184 -18.244  0.00  0.00    +0.004 C 
ATOM     26  C   UNL     1      34.177 -19.773 -20.202  0.00  0.00    -0.008 C 
ATOM     27  C   UNL     1      33.555 -20.622 -19.288  0.00  0.00    -0.003 C 
ATOM     28  C   UNL     1      33.363 -19.186 -21.310  0.00  0.00    +0.032 C 
BRANCH  22  31
ATOM     29  O   UNL     1      37.655 -21.356 -16.987  0.00  0.00    -0.270 OA
ATOM     30  N   UNL     1      35.705 -22.193 -16.056  0.00  0.00    -0.302 N 
ATOM     31  C   UNL     1      36.418 -21.480 -17.028  0.00  0.00    +0.246 C 
ATOM     32  H   UNL     1      34.727 -22.253 -16.145  0.00  0.00    +0.150 HD
BRANCH  30  33
ATOM     33  C   UNL     1      36.330 -22.842 -14.937  0.00  0.00    +0.072 C 
ATOM     34  C   UNL     1      35.885 -24.200 -14.479  0.00  0.00    +0.021 C 
ATOM     35  C   UNL     1      35.613 -22.993 -13.628  0.00  0.00    +0.021 C 
ENDBRANCH  30  33
ENDBRANCH  22  31
ENDBRANCH  20  24
ENDBRANCH   7  20
TORSDOF 5
ENDMDL
MODEL 6
REMARK VINA RESULT:     -10.3      3.672      9.258
REMARK  Name = 42647297
REMARK  5 active torsions:
REMARK  status: ('A' for Active; 'I' for Inactive)
REMARK    1  A    between atoms: N_3  and  C_14
REMARK    2  A    between atoms: C_7  and  N_20
REMARK    3  A    between atoms: N_20  and  C_24
REMARK    4  A    between atoms: C_22  and  C_31
REMARK    5  A    between atoms: N_30  and  C_33
REMARK                            x       y       z     vdW  Elec       q    Type
REMARK                         _______ _______ _______ _____ _____    ______ ____
ROOT
ATOM      1  O   UNL     1      33.904 -12.899 -19.643  0.00  0.00    -0.269 OA
ATOM      2  N   UNL     1      34.562 -14.833 -20.783  0.00  0.00    -0.240 N 
ATOM      3  N   UNL     1      35.174 -16.582 -22.403  0.00  0.00    -0.174 N 
ATOM      4  N   UNL     1      35.270 -16.757 -23.738  0.00  0.00    -0.171 NA
ATOM      5  C   UNL     1      34.759 -15.331 -22.058  0.00  0.00    +0.133 C 
ATOM      6  C   UNL     1      34.573 -14.653 -23.232  0.00  0.00    +0.064 C 
ATOM      7  C   UNL     1      34.136 -13.301 -23.201  0.00  0.00    +0.057 C 
ATOM      8  C   UNL     1      33.921 -12.746 -21.988  0.00  0.00    +0.073 C 
ATOM      9  C   UNL     1      34.128 -13.500 -20.695  0.00  0.00    +0.255 C 
ATOM     10  C   UNL     1      34.900 -15.571 -24.240  0.00  0.00    +0.122 C 
ATOM     11  C   UNL     1      34.790 -15.647 -19.597  0.00  0.00    +0.122 C 
ENDROOT
BRANCH   3  14
ATOM     12  F   UNL     1      37.813 -17.140 -21.737  0.00  0.00    -0.203 F 
ATOM     13  F   UNL     1      36.454 -20.858 -19.150  0.00  0.00    -0.204 F 
ATOM     14  C   UNL     1      35.499 -17.662 -21.582  0.00  0.00    +0.103 C 
ATOM     15  C   UNL     1      36.832 -17.920 -21.262  0.00  0.00    +0.158 C 
ATOM     16  C   UNL     1      34.489 -18.482 -21.081  0.00  0.00    +0.021 C 
ATOM     17  C   UNL     1      37.154 -19.001 -20.439  0.00  0.00    +0.061 C 
ATOM     18  C   UNL     1      34.811 -19.562 -20.260  0.00  0.00    +0.031 C 
ATOM     19  C   UNL     1      36.144 -19.821 -19.939  0.00  0.00    +0.142 C 
ENDBRANCH   3  14
BRANCH   7  20
ATOM     20  N   UNL     1      33.946 -12.617 -24.371  0.00  0.00    -0.313 N 
ATOM     21  H   UNL     1      33.410 -13.078 -25.055  0.00  0.00    +0.152 HD
BRANCH  20  24
ATOM     22  C   UNL     1      34.907  -9.069 -24.081  0.00  0.00    +0.055 C 
ATOM     23  C   UNL     1      34.439 -10.341 -23.753  0.00  0.00    +0.019 C 
ATOM     24  C   UNL     1      34.419 -11.349 -24.717  0.00  0.00    +0.044 C 
ATOM     25  C   UNL     1      35.357  -8.805 -25.375  0.00  0.00    +0.004 C 
ATOM     26  C   UNL     1      34.870 -11.085 -26.010  0.00  0.00    -0.008 C 
ATOM     27  C   UNL     1      35.339  -9.813 -26.340  0.00  0.00    -0.003 C 
ATOM     28  C   UNL     1      34.862 -12.144 -27.064  0.00  0.00    +0.032 C 
BRANCH  22  31
ATOM     29  O   UNL     1      35.947  -7.329 -22.901  0.00  0.00    -0.270 OA
ATOM     30  N   UNL     1      33.763  -7.840 -22.318  0.00  0.00    -0.302 N 
ATOM     31  C   UNL     1      34.927  -8.019 -23.076  0.00  0.00    +0.246 C 
ATOM     32  H   UNL     1      32.989  -8.418 -22.507  0.00  0.00    +0.150 HD
BRANCH  30  33
ATOM     33  C   UNL     1      33.643  -6.857 -21.278  0.00  0.00    +0.072 C 
ATOM     34  C   UNL     1      33.133  -7.226 -19.915  0.00  0.00    +0.021 C 
ATOM     35  C   UNL     1      32.299  -6.369 -20.823  0.00  0.00    +0.021 C 
ENDBRANCH  30  33
ENDBRANCH  22  31
ENDBRANCH  20  24
ENDBRANCH   7  20
TORSDOF 5
ENDMDL
MODEL 7
REMARK VINA RESULT:     -10.2      6.312     10.300
REMARK  Name = 42647297
REMARK  5 active torsions:
REMARK  status: ('A' for Active; 'I' for Inactive)
REMARK    1  A    between atoms: N_3  and  C_14
REMARK    2  A    between atoms: C_7  and  N_20
REMARK    3  A    between atoms: N_20  and  C_24
REMARK    4  A    between atoms: C_22  and  C_31
REMARK    5  A    between atoms: N_30  and  C_33
REMARK                            x       y       z     vdW  Elec       q    Type
REMARK                         _______ _______ _______ _____ _____    ______ ____
ROOT
ATOM      1  O   UNL     1      37.754 -21.002 -17.767  0.00  0.00    -0.269 OA
ATOM      2  N   UNL     1      36.141 -19.948 -19.094  0.00  0.00    -0.240 N 
ATOM      3  N   UNL     1      34.126 -19.187 -20.283  0.00  0.00    -0.174 N 
ATOM      4  N   UNL     1      32.814 -19.489 -20.379  0.00  0.00    -0.171 NA
ATOM      5  C   UNL     1      34.798 -19.995 -19.417  0.00  0.00    +0.133 C 
ATOM      6  C   UNL     1      33.874 -20.874 -18.921  0.00  0.00    +0.064 C 
ATOM      7  C   UNL     1      34.277 -21.859 -17.977  0.00  0.00    +0.057 C 
ATOM      8  C   UNL     1      35.577 -21.874 -17.614  0.00  0.00    +0.073 C 
ATOM      9  C   UNL     1      36.593 -20.900 -18.166  0.00  0.00    +0.255 C 
ATOM     10  C   UNL     1      32.667 -20.525 -19.542  0.00  0.00    +0.122 C 
ATOM     11  C   UNL     1      37.039 -18.966 -19.686  0.00  0.00    +0.122 C 
ENDROOT
BRANCH   3  14
ATOM     12  F   UNL     1      34.727 -19.517 -22.975  0.00  0.00    -0.203 F 
ATOM     13  F   UNL     1      36.015 -14.980 -23.324  0.00  0.00    -0.204 F 
ATOM     14  C   UNL     1      34.604 -18.126 -21.053  0.00  0.00    +0.103 C 
ATOM     15  C   UNL     1      34.898 -18.317 -22.402  0.00  0.00    +0.158 C 
ATOM     16  C   UNL     1      34.787 -16.872 -20.469  0.00  0.00    +0.021 C 
ATOM     17  C   UNL     1      35.374 -17.254 -23.170  0.00  0.00    +0.061 C 
ATOM     18  C   UNL     1      35.264 -15.810 -21.236  0.00  0.00    +0.031 C 
ATOM     19  C   UNL     1      35.558 -16.001 -22.587  0.00  0.00    +0.142 C 
ENDBRANCH   3  14
BRANCH   7  20
ATOM     20  N   UNL     1      33.359 -22.742 -17.478  0.00  0.00    -0.313 N 
ATOM     21  H   UNL     1      33.224 -23.563 -18.003  0.00  0.00    +0.152 HD
BRANCH  20  24
ATOM     22  C   UNL     1      30.451 -22.191 -15.279  0.00  0.00    +0.055 C 
ATOM     23  C   UNL     1      31.235 -22.311 -16.427  0.00  0.00    +0.019 C 
ATOM     24  C   UNL     1      32.589 -22.626 -16.318  0.00  0.00    +0.044 C 
ATOM     25  C   UNL     1      31.023 -22.386 -14.021  0.00  0.00    +0.004 C 
ATOM     26  C   UNL     1      33.160 -22.821 -15.060  0.00  0.00    -0.008 C 
ATOM     27  C   UNL     1      32.377 -22.702 -13.912  0.00  0.00    -0.003 C 
ATOM     28  C   UNL     1      34.608 -23.160 -14.913  0.00  0.00    +0.032 C 
BRANCH  22  31
ATOM     29  O   UNL     1      28.438 -21.318 -14.450  0.00  0.00    -0.270 OA
ATOM     30  N   UNL     1      28.400 -22.204 -16.591  0.00  0.00    -0.302 N 
ATOM     31  C   UNL     1      29.039 -21.863 -15.393  0.00  0.00    +0.246 C 
ATOM     32  H   UNL     1      28.932 -22.632 -17.299  0.00  0.00    +0.150 HD
BRANCH  30  33
ATOM     33  C   UNL     1      27.006 -21.959 -16.837  0.00  0.00    +0.072 C 
ATOM     34  C   UNL     1      26.519 -21.538 -18.194  0.00  0.00    +0.021 C 
ATOM     35  C   UNL     1      26.488 -20.566 -17.050  0.00  0.00    +0.021 C 
ENDBRANCH  30  33
ENDBRANCH  22  31
ENDBRANCH  20  24
ENDBRANCH   7  20
TORSDOF 5
ENDMDL
MODEL 8
REMARK VINA RESULT:     -10.1      2.847      4.919
REMARK  Name = 42647297
REMARK  5 active torsions:
REMARK  status: ('A' for Active; 'I' for Inactive)
REMARK    1  A    between atoms: N_3  and  C_14
REMARK    2  A    between atoms: C_7  and  N_20
REMARK    3  A    between atoms: N_20  and  C_24
REMARK    4  A    between atoms: C_22  and  C_31
REMARK    5  A    between atoms: N_30  and  C_33
REMARK                            x       y       z     vdW  Elec       q    Type
REMARK                         _______ _______ _______ _____ _____    ______ ____
ROOT
ATOM      1  O   UNL     1      33.412 -15.832 -26.137  0.00  0.00    -0.269 OA
ATOM      2  N   UNL     1      33.681 -14.780 -24.065  0.00  0.00    -0.240 N 
ATOM      3  N   UNL     1      34.227 -14.097 -21.765  0.00  0.00    -0.174 N 
ATOM      4  N   UNL     1      34.886 -14.565 -20.684  0.00  0.00    -0.171 NA
ATOM      5  C   UNL     1      34.255 -14.958 -22.820  0.00  0.00    +0.133 C 
ATOM      6  C   UNL     1      34.971 -16.048 -22.405  0.00  0.00    +0.064 C 
ATOM      7  C   UNL     1      35.178 -17.135 -23.298  0.00  0.00    +0.057 C 
ATOM      8  C   UNL     1      34.644 -17.031 -24.534  0.00  0.00    +0.073 C 
ATOM      9  C   UNL     1      33.854 -15.825 -24.987  0.00  0.00    +0.255 C 
ATOM     10  C   UNL     1      35.339 -15.761 -21.083  0.00  0.00    +0.122 C 
ATOM     11  C   UNL     1      32.936 -13.575 -24.402  0.00  0.00    +0.122 C 
ENDROOT
BRANCH   3  14
ATOM     12  F   UNL     1      32.057 -13.668 -20.084  0.00  0.00    -0.203 F 
ATOM     13  F   UNL     1      31.861  -9.121 -21.373  0.00  0.00    -0.204 F 
ATOM     14  C   UNL     1      33.627 -12.842 -21.665  0.00  0.00    +0.103 C 
ATOM     15  C   UNL     1      32.540 -12.652 -20.814  0.00  0.00    +0.158 C 
ATOM     16  C   UNL     1      34.119 -11.776 -22.418  0.00  0.00    +0.021 C 
ATOM     17  C   UNL     1      31.943 -11.394 -20.715  0.00  0.00    +0.061 C 
ATOM     18  C   UNL     1      33.522 -10.519 -22.320  0.00  0.00    +0.031 C 
ATOM     19  C   UNL     1      32.434 -10.328 -21.468  0.00  0.00    +0.142 C 
ENDBRANCH   3  14
BRANCH   7  20
ATOM     20  N   UNL     1      35.891 -18.228 -22.889  0.00  0.00    -0.313 N 
ATOM     21  H   UNL     1      36.397 -18.697 -23.592  0.00  0.00    +0.152 HD
BRANCH  20  24
ATOM     22  C   UNL     1      34.991 -19.995 -19.781  0.00  0.00    +0.055 C 
ATOM     23  C   UNL     1      34.907 -19.453 -21.064  0.00  0.00    +0.019 C 
ATOM     24  C   UNL     1      35.992 -18.764 -21.603  0.00  0.00    +0.044 C 
ATOM     25  C   UNL     1      36.162 -19.846 -19.037  0.00  0.00    +0.004 C 
ATOM     26  C   UNL     1      37.163 -18.616 -20.859  0.00  0.00    -0.008 C 
ATOM     27  C   UNL     1      37.248 -19.157 -19.577  0.00  0.00    -0.003 C 
ATOM     28  C   UNL     1      38.343 -17.882 -21.411  0.00  0.00    +0.032 C 
BRANCH  22  31
ATOM     29  O   UNL     1      32.698 -20.445 -19.576  0.00  0.00    -0.270 OA
ATOM     30  N   UNL     1      34.139 -21.691 -18.256  0.00  0.00    -0.302 N 
ATOM     31  C   UNL     1      33.859 -20.713 -19.219  0.00  0.00    +0.246 C 
ATOM     32  H   UNL     1      35.079 -21.856 -18.018  0.00  0.00    +0.150 HD
BRANCH  30  33
ATOM     33  C   UNL     1      33.122 -22.465 -17.600  0.00  0.00    +0.072 C 
ATOM     34  C   UNL     1      32.171 -21.832 -16.627  0.00  0.00    +0.021 C 
ATOM     35  C   UNL     1      33.217 -22.791 -16.138  0.00  0.00    +0.021 C 
ENDBRANCH  30  33
ENDBRANCH  22  31
ENDBRANCH  20  24
ENDBRANCH   7  20
TORSDOF 5
ENDMDL
MODEL 9
REMARK VINA RESULT:      -9.8      4.118     10.745
REMARK  Name = 42647297
REMARK  5 active torsions:
REMARK  status: ('A' for Active; 'I' for Inactive)
REMARK    1  A    between atoms: N_3  and  C_14
REMARK    2  A    between atoms: C_7  and  N_20
REMARK    3  A    between atoms: N_20  and  C_24
REMARK    4  A    between atoms: C_22  and  C_31
REMARK    5  A    between atoms: N_30  and  C_33
REMARK                            x       y       z     vdW  Elec       q    Type
REMARK                         _______ _______ _______ _____ _____    ______ ____
ROOT
ATOM      1  O   UNL     1      35.046  -8.489 -24.954  0.00  0.00    -0.269 OA
ATOM      2  N   UNL     1      34.247 -10.436 -23.933  0.00  0.00    -0.240 N 
ATOM      3  N   UNL     1      33.151 -12.157 -22.557  0.00  0.00    -0.174 N 
ATOM      4  N   UNL     1      32.296 -12.249 -21.517  0.00  0.00    -0.171 NA
ATOM      5  C   UNL     1      33.419 -10.870 -22.915  0.00  0.00    +0.133 C 
ATOM      6  C   UNL     1      32.699 -10.079 -22.062  0.00  0.00    +0.064 C 
ATOM      7  C   UNL     1      32.770  -8.665 -22.186  0.00  0.00    +0.057 C 
ATOM      8  C   UNL     1      33.562  -8.167 -23.160  0.00  0.00    +0.073 C 
ATOM      9  C   UNL     1      34.355  -9.046 -24.100  0.00  0.00    +0.255 C 
ATOM     10  C   UNL     1      32.023 -10.972 -21.218  0.00  0.00    +0.122 C 
ATOM     11  C   UNL     1      34.971 -11.371 -24.785  0.00  0.00    +0.122 C 
ENDROOT
BRANCH   3  14
ATOM     12  F   UNL     1      35.059 -13.688 -21.240  0.00  0.00    -0.203 F 
ATOM     13  F   UNL     1      35.043 -16.862 -24.746  0.00  0.00    -0.204 F 
ATOM     14  C   UNL     1      33.631 -13.345 -23.108  0.00  0.00    +0.103 C 
ATOM     15  C   UNL     1      34.588 -14.096 -22.427  0.00  0.00    +0.158 C 
ATOM     16  C   UNL     1      33.150 -13.781 -24.342  0.00  0.00    +0.021 C 
ATOM     17  C   UNL     1      35.065 -15.285 -22.981  0.00  0.00    +0.061 C 
ATOM     18  C   UNL     1      33.627 -14.969 -24.896  0.00  0.00    +0.031 C 
ATOM     19  C   UNL     1      34.585 -15.721 -24.215  0.00  0.00    +0.142 C 
ENDBRANCH   3  14
BRANCH   7  20
ATOM     20  N   UNL     1      32.054  -7.867 -21.336  0.00  0.00    -0.313 N 
ATOM     21  H   UNL     1      31.462  -8.336 -20.704  0.00  0.00    +0.152 HD
BRANCH  20  24
ATOM     22  C   UNL     1      31.943  -4.325 -22.353  0.00  0.00    +0.055 C 
ATOM     23  C   UNL     1      31.944  -5.718 -22.419  0.00  0.00    +0.019 C 
ATOM     24  C   UNL     1      32.055  -6.473 -21.251  0.00  0.00    +0.044 C 
ATOM     25  C   UNL     1      32.055  -3.686 -21.118  0.00  0.00    +0.004 C 
ATOM     26  C   UNL     1      32.166  -5.833 -20.016  0.00  0.00    -0.008 C 
ATOM     27  C   UNL     1      32.165  -4.440 -19.949  0.00  0.00    -0.003 C 
ATOM     28  C   UNL     1      32.286  -6.615 -18.748  0.00  0.00    +0.032 C 
BRANCH  22  31
ATOM     29  O   UNL     1      31.083  -2.543 -23.613  0.00  0.00    -0.270 OA
ATOM     30  N   UNL     1      32.572  -3.964 -24.678  0.00  0.00    -0.302 N 
ATOM     31  C   UNL     1      31.828  -3.538 -23.570  0.00  0.00    +0.246 C 
ATOM     32  H   UNL     1      33.144  -4.759 -24.578  0.00  0.00    +0.150 HD
BRANCH  30  33
ATOM     33  C   UNL     1      32.542  -3.299 -25.950  0.00  0.00    +0.072 C 
ATOM     34  C   UNL     1      33.478  -3.694 -27.055  0.00  0.00    +0.021 C 
ATOM     35  C   UNL     1      33.645  -2.371 -26.367  0.00  0.00    +0.021 C 
ENDBRANCH  30  33
ENDBRANCH  22  31
ENDBRANCH  20  24
ENDBRANCH   7  20
TORSDOF 5
ENDMDL
