MODEL 1
REMARK VINA RESULT:     -11.9      0.000      0.000
REMARK  Name = 24878044
REMARK  6 active torsions:
REMARK  status: ('A' for Active; 'I' for Inactive)
REMARK    1  A    between atoms: N_2  and  C_6
REMARK    2  A    between atoms: C_3  and  C_18
REMARK    3  A    between atoms: C_7  and  S_12
REMARK    4  A    between atoms: S_12  and  N_15
REMARK    5  A    between atoms: C_18  and  S_19
REMARK    6  A    between atoms: S_19  and  C_31
REMARK                            x       y       z     vdW  Elec       q    Type
REMARK                         _______ _______ _______ _____ _____    ______ ____
ROOT
ATOM      1  O   UNL     1      34.936 -18.923 -23.561  0.00  0.00    -0.274 OA
ATOM      2  N   UNL     1      34.941 -17.874 -21.458  0.00  0.00    -0.283 N 
ATOM      3  C   UNL     1      35.022 -17.929 -22.845  0.00  0.00    +0.238 C 
ATOM      4  H   UNL     1      35.047 -16.984 -21.051  0.00  0.00    +0.155 HD
ENDROOT
BRANCH   2   6
ATOM      5 CL   UNL     1      37.414 -19.056 -20.126  0.00  0.00    -0.081 Cl
ATOM      6  C   UNL     1      34.723 -18.950 -20.565  0.00  0.00    +0.061 C 
ATOM      7  C   UNL     1      34.222 -21.066 -18.818  0.00  0.00    +0.123 C 
ATOM      8  C   UNL     1      35.780 -19.569 -19.898  0.00  0.00    +0.072 C 
ATOM      9  C   UNL     1      33.414 -19.390 -20.358  0.00  0.00    +0.017 C 
ATOM     10  C   UNL     1      35.529 -20.626 -19.024  0.00  0.00    +0.033 C 
ATOM     11  C   UNL     1      33.164 -20.448 -19.484  0.00  0.00    +0.021 C 
BRANCH   7  12
ATOM     12  S   UNL     1      33.908 -22.391 -17.724  0.00  0.00    +0.057 S 
ATOM     13  O   UNL     1      33.868 -23.624 -18.496  0.00  0.00    -0.153 OA
ATOM     14  O   UNL     1      34.812 -22.276 -16.587  0.00  0.00    -0.153 OA
BRANCH  12  15
ATOM     15  N   UNL     1      32.324 -22.015 -17.204  0.00  0.00    -0.203 NA
ATOM     16  H   UNL     1      32.366 -21.536 -16.304  0.00  0.00    +0.144 HD
ATOM     17  H   UNL     1      31.784 -22.874 -17.108  0.00  0.00    +0.144 HD
ENDBRANCH  12  15
ENDBRANCH   7  12
ENDBRANCH   2   6
BRANCH   3  18
ATOM     18  C   UNL     1      35.265 -16.563 -23.453  0.00  0.00    +0.152 C 
BRANCH  18  19
ATOM     19  S   UNL     1      35.238 -15.326 -22.137  0.00  0.00    -0.047 S 
BRANCH  19  31
ATOM     20  O   UNL     1      34.078 -14.070 -24.101  0.00  0.00    -0.262 OA
ATOM     21  N   UNL     1      33.704 -13.097 -21.994  0.00  0.00    -0.250 N 
ATOM     22  C   UNL     1      32.051 -12.790 -20.158  0.00  0.00    +0.027 C 
ATOM     23  C   UNL     1      32.168 -11.283 -20.242  0.00  0.00    +0.029 C 
ATOM     24  C   UNL     1      33.360 -13.426 -20.595  0.00  0.00    +0.099 C 
ATOM     25  C   UNL     1      32.715 -10.853 -21.578  0.00  0.00    -0.009 C 
ATOM     26  C   UNL     1      33.456 -11.727 -22.406  0.00  0.00    +0.051 C 
ATOM     27  C   UNL     1      32.498  -9.517 -21.966  0.00  0.00    -0.007 C 
ATOM     28  C   UNL     1      33.972 -11.204 -23.606  0.00  0.00    +0.014 C 
ATOM     29  C   UNL     1      33.000  -9.035 -23.169  0.00  0.00    -0.022 C 
ATOM     30  C   UNL     1      33.740  -9.877 -23.986  0.00  0.00    -0.003 C 
ATOM     31  C   UNL     1      34.238 -14.058 -22.885  0.00  0.00    +0.280 C 
ATOM     32  C   UNL     1      32.731  -7.629 -23.585  0.00  0.00    +0.031 C 
ENDBRANCH  19  31
ENDBRANCH  18  19
ENDBRANCH   3  18
TORSDOF 6
ENDMDL
MODEL 2
REMARK VINA RESULT:     -11.8      1.225      2.506
REMARK  Name = 24878044
REMARK  6 active torsions:
REMARK  status: ('A' for Active; 'I' for Inactive)
REMARK    1  A    between atoms: N_2  and  C_6
REMARK    2  A    between atoms: C_3  and  C_18
REMARK    3  A    between atoms: C_7  and  S_12
REMARK    4  A    between atoms: S_12  and  N_15
REMARK    5  A    between atoms: C_18  and  S_19
REMARK    6  A    between atoms: S_19  and  C_31
REMARK                            x       y       z     vdW  Elec       q    Type
REMARK                         _______ _______ _______ _____ _____    ______ ____
ROOT
ATOM      1  O   UNL     1      34.310 -18.239 -23.700  0.00  0.00    -0.274 OA
ATOM      2  N   UNL     1      35.341 -17.651 -21.671  0.00  0.00    -0.283 N 
ATOM      3  C   UNL     1      34.981 -17.482 -23.003  0.00  0.00    +0.238 C 
ATOM      4  H   UNL     1      35.897 -16.941 -21.277  0.00  0.00    +0.155 HD
ENDROOT
BRANCH   2   6
ATOM      5 CL   UNL     1      37.641 -18.993 -20.190  0.00  0.00    -0.081 Cl
ATOM      6  C   UNL     1      34.999 -18.727 -20.817  0.00  0.00    +0.061 C 
ATOM      7  C   UNL     1      34.257 -20.837 -19.150  0.00  0.00    +0.123 C 
ATOM      8  C   UNL     1      35.969 -19.415 -20.089  0.00  0.00    +0.072 C 
ATOM      9  C   UNL     1      33.657 -19.095 -20.712  0.00  0.00    +0.017 C 
ATOM     10  C   UNL     1      35.598 -20.469 -19.256  0.00  0.00    +0.033 C 
ATOM     11  C   UNL     1      33.286 -20.150 -19.878  0.00  0.00    +0.021 C 
BRANCH   7  12
ATOM     12  S   UNL     1      33.792 -22.158 -18.108  0.00  0.00    +0.057 S 
ATOM     13  O   UNL     1      32.502 -21.842 -17.512  0.00  0.00    -0.153 OA
ATOM     14  O   UNL     1      33.967 -23.407 -18.837  0.00  0.00    -0.153 OA
BRANCH  12  15
ATOM     15  N   UNL     1      34.996 -22.057 -16.899  0.00  0.00    -0.203 NA
ATOM     16  H   UNL     1      35.005 -21.115 -16.507  0.00  0.00    +0.144 HD
ATOM     17  H   UNL     1      35.907 -22.265 -17.307  0.00  0.00    +0.144 HD
ENDBRANCH  12  15
ENDBRANCH   7  12
ENDBRANCH   2   6
BRANCH   3  18
ATOM     18  C   UNL     1      35.539 -16.199 -23.582  0.00  0.00    +0.152 C 
BRANCH  18  19
ATOM     19  S   UNL     1      34.169 -15.080 -23.949  0.00  0.00    -0.047 S 
BRANCH  19  31
ATOM     20  O   UNL     1      34.512 -14.586 -21.414  0.00  0.00    -0.262 OA
ATOM     21  N   UNL     1      33.657 -12.767 -22.632  0.00  0.00    -0.250 N 
ATOM     22  C   UNL     1      34.202 -10.562 -23.649  0.00  0.00    +0.027 C 
ATOM     23  C   UNL     1      33.096  -9.878 -22.874  0.00  0.00    +0.029 C 
ATOM     24  C   UNL     1      33.829 -12.014 -23.892  0.00  0.00    +0.099 C 
ATOM     25  C   UNL     1      32.700 -10.684 -21.666  0.00  0.00    -0.009 C 
ATOM     26  C   UNL     1      32.967 -12.069 -21.563  0.00  0.00    +0.051 C 
ATOM     27  C   UNL     1      32.006 -10.015 -20.640  0.00  0.00    -0.007 C 
ATOM     28  C   UNL     1      32.498 -12.737 -20.416  0.00  0.00    +0.014 C 
ATOM     29  C   UNL     1      31.578 -10.696 -19.507  0.00  0.00    -0.022 C 
ATOM     30  C   UNL     1      31.820 -12.058 -19.398  0.00  0.00    -0.003 C 
ATOM     31  C   UNL     1      34.139 -14.087 -22.471  0.00  0.00    +0.280 C 
ATOM     32  C   UNL     1      30.877  -9.967 -18.412  0.00  0.00    +0.031 C 
ENDBRANCH  19  31
ENDBRANCH  18  19
ENDBRANCH   3  18
TORSDOF 6
ENDMDL
MODEL 3
REMARK VINA RESULT:     -11.5      5.734     11.860
REMARK  Name = 24878044
REMARK  6 active torsions:
REMARK  status: ('A' for Active; 'I' for Inactive)
REMARK    1  A    between atoms: N_2  and  C_6
REMARK    2  A    between atoms: C_3  and  C_18
REMARK    3  A    between atoms: C_7  and  S_12
REMARK    4  A    between atoms: S_12  and  N_15
REMARK    5  A    between atoms: C_18  and  S_19
REMARK    6  A    between atoms: S_19  and  C_31
REMARK                            x       y       z     vdW  Elec       q    Type
REMARK                         _______ _______ _______ _____ _____    ______ ____
ROOT
ATOM      1  O   UNL     1      31.976 -21.456 -17.380  0.00  0.00    -0.274 OA
ATOM      2  N   UNL     1      34.247 -21.908 -17.783  0.00  0.00    -0.283 N 
ATOM      3  C   UNL     1      33.001 -22.109 -17.200  0.00  0.00    +0.238 C 
ATOM      4  H   UNL     1      34.961 -22.527 -17.508  0.00  0.00    +0.155 HD
ENDROOT
BRANCH   2   6
ATOM      5 CL   UNL     1      37.197 -21.154 -17.909  0.00  0.00    -0.081 Cl
ATOM      6  C   UNL     1      34.606 -20.917 -18.729  0.00  0.00    +0.061 C 
ATOM      7  C   UNL     1      35.244 -18.961 -20.613  0.00  0.00    +0.123 C 
ATOM      8  C   UNL     1      35.926 -20.494 -18.874  0.00  0.00    +0.072 C 
ATOM      9  C   UNL     1      33.603 -20.362 -19.526  0.00  0.00    +0.017 C 
ATOM     10  C   UNL     1      36.245 -19.516 -19.816  0.00  0.00    +0.033 C 
ATOM     11  C   UNL     1      33.922 -19.384 -20.468  0.00  0.00    +0.021 C 
BRANCH   7  12
ATOM     12  S   UNL     1      35.643 -17.737 -21.792  0.00  0.00    +0.057 S 
ATOM     13  O   UNL     1      35.082 -18.135 -23.075  0.00  0.00    -0.153 OA
ATOM     14  O   UNL     1      35.318 -16.432 -21.232  0.00  0.00    -0.153 OA
BRANCH  12  15
ATOM     15  N   UNL     1      37.343 -17.895 -21.862  0.00  0.00    -0.203 NA
ATOM     16  H   UNL     1      37.633 -18.020 -22.832  0.00  0.00    +0.144 HD
ATOM     17  H   UNL     1      37.633 -18.704 -21.313  0.00  0.00    +0.144 HD
ENDBRANCH  12  15
ENDBRANCH   7  12
ENDBRANCH   2   6
BRANCH   3  18
ATOM     18  C   UNL     1      33.009 -23.273 -16.233  0.00  0.00    +0.152 C 
BRANCH  18  19
ATOM     19  S   UNL     1      33.156 -22.633 -14.550  0.00  0.00    -0.047 S 
BRANCH  19  31
ATOM     20  O   UNL     1      35.540 -21.772 -15.149  0.00  0.00    -0.262 OA
ATOM     21  N   UNL     1      35.501 -23.313 -13.374  0.00  0.00    -0.250 N 
ATOM     22  C   UNL     1      35.671 -23.578 -10.905  0.00  0.00    +0.027 C 
ATOM     23  C   UNL     1      36.803 -24.575 -11.043  0.00  0.00    +0.029 C 
ATOM     24  C   UNL     1      34.777 -23.652 -12.131  0.00  0.00    +0.099 C 
ATOM     25  C   UNL     1      37.480 -24.446 -12.381  0.00  0.00    -0.009 C 
ATOM     26  C   UNL     1      36.846 -23.847 -13.494  0.00  0.00    +0.051 C 
ATOM     27  C   UNL     1      38.774 -24.988 -12.506  0.00  0.00    -0.007 C 
ATOM     28  C   UNL     1      37.548 -23.834 -14.714  0.00  0.00    +0.014 C 
ATOM     29  C   UNL     1      39.453 -24.938 -13.718  0.00  0.00    -0.022 C 
ATOM     30  C   UNL     1      38.837 -24.366 -14.822  0.00  0.00    -0.003 C 
ATOM     31  C   UNL     1      34.924 -22.511 -14.388  0.00  0.00    +0.280 C 
ATOM     32  C   UNL     1      40.836 -25.482 -13.826  0.00  0.00    +0.031 C 
ENDBRANCH  19  31
ENDBRANCH  18  19
ENDBRANCH   3  18
TORSDOF 6
ENDMDL
MODEL 4
REMARK VINA RESULT:     -11.2      3.974     11.163
REMARK  Name = 24878044
REMARK  6 active torsions:
REMARK  status: ('A' for Active; 'I' for Inactive)
REMARK    1  A    between atoms: N_2  and  C_6
REMARK    2  A    between atoms: C_3  and  C_18
REMARK    3  A    between atoms: C_7  and  S_12
REMARK    4  A    between atoms: S_12  and  N_15
REMARK    5  A    between atoms: C_18  and  S_19
REMARK    6  A    between atoms: S_19  and  C_31
REMARK                            x       y       z     vdW  Elec       q    Type
REMARK                         _______ _______ _______ _____ _____    ______ ____
ROOT
ATOM      1  O   UNL     1      34.429 -19.341 -20.510  0.00  0.00    -0.274 OA
ATOM      2  N   UNL     1      36.076 -17.688 -20.227  0.00  0.00    -0.283 N 
ATOM      3  C   UNL     1      35.529 -18.962 -20.116  0.00  0.00    +0.238 C 
ATOM      4  H   UNL     1      36.972 -17.564 -19.839  0.00  0.00    +0.155 HD
ENDROOT
BRANCH   2   6
ATOM      5 CL   UNL     1      35.825 -17.749 -23.263  0.00  0.00    -0.081 Cl
ATOM      6  C   UNL     1      35.492 -16.550 -20.835  0.00  0.00    +0.061 C 
ATOM      7  C   UNL     1      34.334 -14.280 -21.967  0.00  0.00    +0.123 C 
ATOM      8  C   UNL     1      35.327 -16.468 -22.217  0.00  0.00    +0.072 C 
ATOM      9  C   UNL     1      35.079 -15.497 -20.018  0.00  0.00    +0.017 C 
ATOM     10  C   UNL     1      34.747 -15.333 -22.783  0.00  0.00    +0.033 C 
ATOM     11  C   UNL     1      34.499 -14.362 -20.585  0.00  0.00    +0.021 C 
BRANCH   7  12
ATOM     12  S   UNL     1      33.609 -12.858 -22.676  0.00  0.00    +0.057 S 
ATOM     13  O   UNL     1      32.449 -12.487 -21.878  0.00  0.00    -0.153 OA
ATOM     14  O   UNL     1      34.658 -11.880 -22.927  0.00  0.00    -0.153 OA
BRANCH  12  15
ATOM     15  N   UNL     1      33.069 -13.481 -24.174  0.00  0.00    -0.203 NA
ATOM     16  H   UNL     1      33.616 -14.308 -24.414  0.00  0.00    +0.144 HD
ATOM     17  H   UNL     1      33.186 -12.773 -24.898  0.00  0.00    +0.144 HD
ENDBRANCH  12  15
ENDBRANCH   7  12
ENDBRANCH   2   6
BRANCH   3  18
ATOM     18  C   UNL     1      36.459 -19.917 -19.398  0.00  0.00    +0.152 C 
BRANCH  18  19
ATOM     19  S   UNL     1      35.483 -21.270 -18.705  0.00  0.00    -0.047 S 
BRANCH  19  31
ATOM     20  O   UNL     1      37.046 -20.590 -16.735  0.00  0.00    -0.262 OA
ATOM     21  N   UNL     1      35.436 -22.203 -16.161  0.00  0.00    -0.250 N 
ATOM     22  C   UNL     1      33.282 -22.597 -14.976  0.00  0.00    +0.027 C 
ATOM     23  C   UNL     1      33.899 -23.680 -14.116  0.00  0.00    +0.029 C 
ATOM     24  C   UNL     1      34.003 -22.536 -16.312  0.00  0.00    +0.099 C 
ATOM     25  C   UNL     1      35.398 -23.547 -14.068  0.00  0.00    -0.009 C 
ATOM     26  C   UNL     1      36.126 -22.844 -15.056  0.00  0.00    +0.051 C 
ATOM     27  C   UNL     1      36.071 -24.192 -13.013  0.00  0.00    -0.007 C 
ATOM     28  C   UNL     1      37.529 -22.835 -14.947  0.00  0.00    +0.014 C 
ATOM     29  C   UNL     1      37.457 -24.145 -12.917  0.00  0.00    -0.022 C 
ATOM     30  C   UNL     1      38.185 -23.470 -13.887  0.00  0.00    -0.003 C 
ATOM     31  C   UNL     1      36.097 -21.308 -17.034  0.00  0.00    +0.280 C 
ATOM     32  C   UNL     1      38.153 -24.800 -11.774  0.00  0.00    +0.031 C 
ENDBRANCH  19  31
ENDBRANCH  18  19
ENDBRANCH   3  18
TORSDOF 6
ENDMDL
MODEL 5
REMARK VINA RESULT:     -10.6      4.033     11.228
REMARK  Name = 24878044
REMARK  6 active torsions:
REMARK  status: ('A' for Active; 'I' for Inactive)
REMARK    1  A    between atoms: N_2  and  C_6
REMARK    2  A    between atoms: C_3  and  C_18
REMARK    3  A    between atoms: C_7  and  S_12
REMARK    4  A    between atoms: S_12  and  N_15
REMARK    5  A    between atoms: C_18  and  S_19
REMARK    6  A    between atoms: S_19  and  C_31
REMARK                            x       y       z     vdW  Elec       q    Type
REMARK                         _______ _______ _______ _____ _____    ______ ____
ROOT
ATOM      1  O   UNL     1      34.212 -19.635 -20.415  0.00  0.00    -0.274 OA
ATOM      2  N   UNL     1      36.062 -18.250 -20.843  0.00  0.00    -0.283 N 
ATOM      3  C   UNL     1      35.385 -19.311 -20.252  0.00  0.00    +0.238 C 
ATOM      4  H   UNL     1      37.003 -18.134 -20.581  0.00  0.00    +0.155 HD
ENDROOT
BRANCH   2   6
ATOM      5 CL   UNL     1      35.332 -15.497 -19.758  0.00  0.00    -0.081 Cl
ATOM      6  C   UNL     1      35.552 -17.318 -21.779  0.00  0.00    +0.061 C 
ATOM      7  C   UNL     1      34.555 -15.531 -23.674  0.00  0.00    +0.123 C 
ATOM      8  C   UNL     1      35.185 -16.029 -21.395  0.00  0.00    +0.072 C 
ATOM      9  C   UNL     1      35.420 -17.714 -23.110  0.00  0.00    +0.017 C 
ATOM     10  C   UNL     1      34.687 -15.135 -22.343  0.00  0.00    +0.033 C 
ATOM     11  C   UNL     1      34.922 -16.821 -24.058  0.00  0.00    +0.021 C 
BRANCH   7  12
ATOM     12  S   UNL     1      33.931 -14.412 -24.861  0.00  0.00    +0.057 S 
ATOM     13  O   UNL     1      33.302 -13.302 -24.160  0.00  0.00    -0.153 OA
ATOM     14  O   UNL     1      34.973 -14.151 -25.844  0.00  0.00    -0.153 OA
BRANCH  12  15
ATOM     15  N   UNL     1      32.713 -15.362 -25.593  0.00  0.00    -0.203 NA
ATOM     16  H   UNL     1      32.646 -16.259 -25.112  0.00  0.00    +0.144 HD
ATOM     17  H   UNL     1      32.946 -15.517 -26.573  0.00  0.00    +0.144 HD
ENDBRANCH  12  15
ENDBRANCH   7  12
ENDBRANCH   2   6
BRANCH   3  18
ATOM     18  C   UNL     1      36.270 -20.087 -19.300  0.00  0.00    +0.152 C 
BRANCH  18  19
ATOM     19  S   UNL     1      35.297 -21.409 -18.545  0.00  0.00    -0.047 S 
BRANCH  19  31
ATOM     20  O   UNL     1      36.955 -20.735 -16.653  0.00  0.00    -0.262 OA
ATOM     21  N   UNL     1      35.324 -22.288 -15.983  0.00  0.00    -0.250 N 
ATOM     22  C   UNL     1      33.208 -22.596 -14.708  0.00  0.00    +0.027 C 
ATOM     23  C   UNL     1      33.827 -23.679 -13.849  0.00  0.00    +0.029 C 
ATOM     24  C   UNL     1      33.878 -22.584 -16.071  0.00  0.00    +0.099 C 
ATOM     25  C   UNL     1      35.330 -23.589 -13.862  0.00  0.00    -0.009 C 
ATOM     26  C   UNL     1      36.038 -22.927 -14.892  0.00  0.00    +0.051 C 
ATOM     27  C   UNL     1      36.026 -24.231 -12.820  0.00  0.00    -0.007 C 
ATOM     28  C   UNL     1      37.444 -22.957 -14.837  0.00  0.00    +0.014 C 
ATOM     29  C   UNL     1      37.415 -24.222 -12.778  0.00  0.00    -0.022 C 
ATOM     30  C   UNL     1      38.123 -23.589 -13.790  0.00  0.00    -0.003 C 
ATOM     31  C   UNL     1      35.976 -21.432 -16.900  0.00  0.00    +0.280 C 
ATOM     32  C   UNL     1      38.137 -24.874 -11.649  0.00  0.00    +0.031 C 
ENDBRANCH  19  31
ENDBRANCH  18  19
ENDBRANCH   3  18
TORSDOF 6
ENDMDL
MODEL 6
REMARK VINA RESULT:     -10.5      3.085      4.238
REMARK  Name = 24878044
REMARK  6 active torsions:
REMARK  status: ('A' for Active; 'I' for Inactive)
REMARK    1  A    between atoms: N_2  and  C_6
REMARK    2  A    between atoms: C_3  and  C_18
REMARK    3  A    between atoms: C_7  and  S_12
REMARK    4  A    between atoms: S_12  and  N_15
REMARK    5  A    between atoms: C_18  and  S_19
REMARK    6  A    between atoms: S_19  and  C_31
REMARK                            x       y       z     vdW  Elec       q    Type
REMARK                         _______ _______ _______ _____ _____    ______ ____
ROOT
ATOM      1  O   UNL     1      36.828 -19.033 -19.173  0.00  0.00    -0.274 OA
ATOM      2  N   UNL     1      35.266 -20.770 -18.911  0.00  0.00    -0.283 N 
ATOM      3  C   UNL     1      35.874 -19.703 -19.562  0.00  0.00    +0.238 C 
ATOM      4  H   UNL     1      34.500 -21.181 -19.372  0.00  0.00    +0.155 HD
ENDROOT
BRANCH   2   6
ATOM      5 CL   UNL     1      33.051 -22.199 -17.383  0.00  0.00    -0.081 Cl
ATOM      6  C   UNL     1      35.623 -21.333 -17.662  0.00  0.00    +0.061 C 
ATOM      7  C   UNL     1      36.393 -22.420 -15.212  0.00  0.00    +0.123 C 
ATOM      8  C   UNL     1      34.691 -22.010 -16.877  0.00  0.00    +0.072 C 
ATOM      9  C   UNL     1      36.941 -21.198 -17.222  0.00  0.00    +0.017 C 
ATOM     10  C   UNL     1      35.077 -22.554 -15.651  0.00  0.00    +0.033 C 
ATOM     11  C   UNL     1      37.326 -21.742 -15.997  0.00  0.00    +0.021 C 
BRANCH   7  12
ATOM     12  S   UNL     1      36.876 -23.100 -13.678  0.00  0.00    +0.057 S 
ATOM     13  O   UNL     1      37.024 -24.539 -13.839  0.00  0.00    -0.153 OA
ATOM     14  O   UNL     1      37.981 -22.313 -13.150  0.00  0.00    -0.153 OA
BRANCH  12  15
ATOM     15  N   UNL     1      35.484 -22.793 -12.734  0.00  0.00    -0.203 NA
ATOM     16  H   UNL     1      35.314 -21.787 -12.697  0.00  0.00    +0.144 HD
ATOM     17  H   UNL     1      35.629 -23.148 -11.789  0.00  0.00    +0.144 HD
ENDBRANCH  12  15
ENDBRANCH   7  12
ENDBRANCH   2   6
BRANCH   3  18
ATOM     18  C   UNL     1      35.206 -19.390 -20.884  0.00  0.00    +0.152 C 
BRANCH  18  19
ATOM     19  S   UNL     1      36.265 -18.266 -21.822  0.00  0.00    -0.047 S 
BRANCH  19  31
ATOM     20  O   UNL     1      34.344 -17.789 -23.516  0.00  0.00    -0.262 OA
ATOM     21  N   UNL     1      34.993 -15.913 -22.257  0.00  0.00    -0.250 N 
ATOM     22  C   UNL     1      34.374 -14.418 -20.365  0.00  0.00    +0.027 C 
ATOM     23  C   UNL     1      34.455 -13.190 -21.247  0.00  0.00    +0.029 C 
ATOM     24  C   UNL     1      35.328 -15.480 -20.883  0.00  0.00    +0.099 C 
ATOM     25  C   UNL     1      34.331 -13.557 -22.702  0.00  0.00    -0.009 C 
ATOM     26  C   UNL     1      34.598 -14.862 -23.177  0.00  0.00    +0.051 C 
ATOM     27  C   UNL     1      33.975 -12.532 -23.599  0.00  0.00    -0.007 C 
ATOM     28  C   UNL     1      34.510 -15.079 -24.565  0.00  0.00    +0.014 C 
ATOM     29  C   UNL     1      33.872 -12.782 -24.962  0.00  0.00    -0.022 C 
ATOM     30  C   UNL     1      34.144 -14.055 -25.444  0.00  0.00    -0.003 C 
ATOM     31  C   UNL     1      35.046 -17.270 -22.654  0.00  0.00    +0.280 C 
ATOM     32  C   UNL     1      33.458 -11.697 -25.896  0.00  0.00    +0.031 C 
ENDBRANCH  19  31
ENDBRANCH  18  19
ENDBRANCH   3  18
TORSDOF 6
ENDMDL
MODEL 7
REMARK VINA RESULT:     -10.5      3.679      5.758
REMARK  Name = 24878044
REMARK  6 active torsions:
REMARK  status: ('A' for Active; 'I' for Inactive)
REMARK    1  A    between atoms: N_2  and  C_6
REMARK    2  A    between atoms: C_3  and  C_18
REMARK    3  A    between atoms: C_7  and  S_12
REMARK    4  A    between atoms: S_12  and  N_15
REMARK    5  A    between atoms: C_18  and  S_19
REMARK    6  A    between atoms: S_19  and  C_31
REMARK                            x       y       z     vdW  Elec       q    Type
REMARK                         _______ _______ _______ _____ _____    ______ ____
ROOT
ATOM      1  O   UNL     1      37.228 -19.781 -17.684  0.00  0.00    -0.274 OA
ATOM      2  N   UNL     1      35.825 -21.667 -17.696  0.00  0.00    -0.283 N 
ATOM      3  C   UNL     1      36.512 -20.597 -18.259  0.00  0.00    +0.238 C 
ATOM      4  H   UNL     1      35.286 -22.211 -18.313  0.00  0.00    +0.155 HD
ENDROOT
BRANCH   2   6
ATOM      5 CL   UNL     1      33.133 -22.526 -16.555  0.00  0.00    -0.081 Cl
ATOM      6  C   UNL     1      35.814 -22.063 -16.337  0.00  0.00    +0.061 C 
ATOM      7  C   UNL     1      35.861 -22.831 -13.656  0.00  0.00    +0.123 C 
ATOM      8  C   UNL     1      34.639 -22.475 -15.709  0.00  0.00    +0.072 C 
ATOM      9  C   UNL     1      37.013 -22.034 -15.623  0.00  0.00    +0.017 C 
ATOM     10  C   UNL     1      34.663 -22.860 -14.369  0.00  0.00    +0.033 C 
ATOM     11  C   UNL     1      37.037 -22.419 -14.283  0.00  0.00    +0.021 C 
BRANCH   7  12
ATOM     12  S   UNL     1      35.891 -23.313 -11.978  0.00  0.00    +0.057 S 
ATOM     13  O   UNL     1      36.905 -22.525 -11.292  0.00  0.00    -0.153 OA
ATOM     14  O   UNL     1      34.524 -23.328 -11.476  0.00  0.00    -0.153 OA
BRANCH  12  15
ATOM     15  N   UNL     1      36.444 -24.925 -12.112  0.00  0.00    -0.203 NA
ATOM     16  H   UNL     1      36.921 -25.047 -13.005  0.00  0.00    +0.144 HD
ATOM     17  H   UNL     1      35.650 -25.562 -12.060  0.00  0.00    +0.144 HD
ENDBRANCH  12  15
ENDBRANCH   7  12
ENDBRANCH   2   6
BRANCH   3  18
ATOM     18  C   UNL     1      36.276 -20.494 -19.751  0.00  0.00    +0.152 C 
BRANCH  18  19
ATOM     19  S   UNL     1      34.756 -19.561 -20.038  0.00  0.00    -0.047 S 
BRANCH  19  31
ATOM     20  O   UNL     1      36.226 -17.417 -19.868  0.00  0.00    -0.262 OA
ATOM     21  N   UNL     1      34.929 -17.531 -21.824  0.00  0.00    -0.250 N 
ATOM     22  C   UNL     1      34.973 -17.975 -24.273  0.00  0.00    +0.027 C 
ATOM     23  C   UNL     1      34.352 -16.628 -24.577  0.00  0.00    +0.029 C 
ATOM     24  C   UNL     1      34.514 -18.450 -22.906  0.00  0.00    +0.099 C 
ATOM     25  C   UNL     1      34.543 -15.671 -23.431  0.00  0.00    -0.009 C 
ATOM     26  C   UNL     1      34.812 -16.113 -22.114  0.00  0.00    +0.051 C 
ATOM     27  C   UNL     1      34.403 -14.297 -23.704  0.00  0.00    -0.007 C 
ATOM     28  C   UNL     1      34.912 -15.134 -21.108  0.00  0.00    +0.014 C 
ATOM     29  C   UNL     1      34.532 -13.352 -22.694  0.00  0.00    -0.022 C 
ATOM     30  C   UNL     1      34.781 -13.772 -21.395  0.00  0.00    -0.003 C 
ATOM     31  C   UNL     1      35.416 -18.000 -20.582  0.00  0.00    +0.280 C 
ATOM     32  C   UNL     1      34.418 -11.899 -23.005  0.00  0.00    +0.031 C 
ENDBRANCH  19  31
ENDBRANCH  18  19
ENDBRANCH   3  18
TORSDOF 6
ENDMDL
MODEL 8
REMARK VINA RESULT:     -10.3      3.604     10.714
REMARK  Name = 24878044
REMARK  6 active torsions:
REMARK  status: ('A' for Active; 'I' for Inactive)
REMARK    1  A    between atoms: N_2  and  C_6
REMARK    2  A    between atoms: C_3  and  C_18
REMARK    3  A    between atoms: C_7  and  S_12
REMARK    4  A    between atoms: S_12  and  N_15
REMARK    5  A    between atoms: C_18  and  S_19
REMARK    6  A    between atoms: S_19  and  C_31
REMARK                            x       y       z     vdW  Elec       q    Type
REMARK                         _______ _______ _______ _____ _____    ______ ____
ROOT
ATOM      1  O   UNL     1      34.178 -19.602 -19.897  0.00  0.00    -0.274 OA
ATOM      2  N   UNL     1      36.090 -18.491 -20.692  0.00  0.00    -0.283 N 
ATOM      3  C   UNL     1      35.386 -19.539 -20.111  0.00  0.00    +0.238 C 
ATOM      4  H   UNL     1      37.064 -18.612 -20.773  0.00  0.00    +0.155 HD
ENDROOT
BRANCH   2   6
ATOM      5 CL   UNL     1      35.349 -18.422 -23.647  0.00  0.00    -0.081 Cl
ATOM      6  C   UNL     1      35.568 -17.270 -21.183  0.00  0.00    +0.061 C 
ATOM      7  C   UNL     1      34.543 -14.837 -22.085  0.00  0.00    +0.123 C 
ATOM      8  C   UNL     1      35.194 -17.123 -22.519  0.00  0.00    +0.072 C 
ATOM      9  C   UNL     1      35.429 -16.200 -20.298  0.00  0.00    +0.017 C 
ATOM     10  C   UNL     1      34.682 -15.907 -22.969  0.00  0.00    +0.033 C 
ATOM     11  C   UNL     1      34.917 -14.984 -20.749  0.00  0.00    +0.021 C 
BRANCH   7  12
ATOM     12  S   UNL     1      33.902 -13.314 -22.649  0.00  0.00    +0.057 S 
ATOM     13  O   UNL     1      34.935 -12.299 -22.504  0.00  0.00    -0.153 OA
ATOM     14  O   UNL     1      33.274 -13.528 -23.946  0.00  0.00    -0.153 OA
BRANCH  12  15
ATOM     15  N   UNL     1      32.680 -13.026 -21.489  0.00  0.00    -0.203 NA
ATOM     16  H   UNL     1      33.058 -13.176 -20.553  0.00  0.00    +0.144 HD
ATOM     17  H   UNL     1      31.902 -13.666 -21.649  0.00  0.00    +0.144 HD
ENDBRANCH  12  15
ENDBRANCH   7  12
ENDBRANCH   2   6
BRANCH   3  18
ATOM     18  C   UNL     1      36.297 -20.681 -19.711  0.00  0.00    +0.152 C 
BRANCH  18  19
ATOM     19  S   UNL     1      36.456 -20.697 -17.912  0.00  0.00    -0.047 S 
BRANCH  19  31
ATOM     20  O   UNL     1      34.561 -22.427 -18.362  0.00  0.00    -0.262 OA
ATOM     21  N   UNL     1      35.219 -22.298 -16.109  0.00  0.00    -0.250 N 
ATOM     22  C   UNL     1      36.501 -23.421 -14.295  0.00  0.00    +0.027 C 
ATOM     23  C   UNL     1      35.290 -23.442 -13.387  0.00  0.00    +0.029 C 
ATOM     24  C   UNL     1      36.410 -22.232 -15.236  0.00  0.00    +0.099 C 
ATOM     25  C   UNL     1      34.016 -23.303 -14.177  0.00  0.00    -0.009 C 
ATOM     26  C   UNL     1      33.991 -22.747 -15.477  0.00  0.00    +0.051 C 
ATOM     27  C   UNL     1      32.821 -23.712 -13.556  0.00  0.00    -0.007 C 
ATOM     28  C   UNL     1      32.737 -22.608 -16.101  0.00  0.00    +0.014 C 
ATOM     29  C   UNL     1      31.599 -23.586 -14.206  0.00  0.00    -0.022 C 
ATOM     30  C   UNL     1      31.558 -23.029 -15.477  0.00  0.00    -0.003 C 
ATOM     31  C   UNL     1      35.268 -21.951 -17.480  0.00  0.00    +0.280 C 
ATOM     32  C   UNL     1      30.347 -24.058 -13.551  0.00  0.00    +0.031 C 
ENDBRANCH  19  31
ENDBRANCH  18  19
ENDBRANCH   3  18
TORSDOF 6
ENDMDL
MODEL 9
REMARK VINA RESULT:     -10.3      1.616      2.538
REMARK  Name = 24878044
REMARK  6 active torsions:
REMARK  status: ('A' for Active; 'I' for Inactive)
REMARK    1  A    between atoms: N_2  and  C_6
REMARK    2  A    between atoms: C_3  and  C_18
REMARK    3  A    between atoms: C_7  and  S_12
REMARK    4  A    between atoms: S_12  and  N_15
REMARK    5  A    between atoms: C_18  and  S_19
REMARK    6  A    between atoms: S_19  and  C_31
REMARK                            x       y       z     vdW  Elec       q    Type
REMARK                         _______ _______ _______ _____ _____    ______ ____
ROOT
ATOM      1  O   UNL     1      35.158 -15.527 -20.206  0.00  0.00    -0.274 OA
ATOM      2  N   UNL     1      35.143 -17.306 -21.742  0.00  0.00    -0.283 N 
ATOM      3  C   UNL     1      35.242 -15.977 -21.346  0.00  0.00    +0.238 C 
ATOM      4  H   UNL     1      35.223 -17.479 -22.708  0.00  0.00    +0.155 HD
ENDROOT
BRANCH   2   6
ATOM      5 CL   UNL     1      37.639 -18.569 -20.534  0.00  0.00    -0.081 Cl
ATOM      6  C   UNL     1      34.940 -18.438 -20.916  0.00  0.00    +0.061 C 
ATOM      7  C   UNL     1      34.471 -20.662 -19.300  0.00  0.00    +0.123 C 
ATOM      8  C   UNL     1      36.009 -19.097 -20.311  0.00  0.00    +0.072 C 
ATOM      9  C   UNL     1      33.636 -18.891 -20.715  0.00  0.00    +0.017 C 
ATOM     10  C   UNL     1      35.775 -20.209 -19.502  0.00  0.00    +0.033 C 
ATOM     11  C   UNL     1      33.401 -20.003 -19.906  0.00  0.00    +0.021 C 
BRANCH   7  12
ATOM     12  S   UNL     1      34.177 -22.055 -18.288  0.00  0.00    +0.057 S 
ATOM     13  O   UNL     1      34.127 -23.237 -19.136  0.00  0.00    -0.153 OA
ATOM     14  O   UNL     1      35.099 -22.011 -17.162  0.00  0.00    -0.153 OA
BRANCH  12  15
ATOM     15  N   UNL     1      32.601 -21.717 -17.720  0.00  0.00    -0.203 NA
ATOM     16  H   UNL     1      32.510 -22.043 -16.758  0.00  0.00    +0.144 HD
ATOM     17  H   UNL     1      31.918 -22.194 -18.308  0.00  0.00    +0.144 HD
ENDBRANCH  12  15
ENDBRANCH   7  12
ENDBRANCH   2   6
BRANCH   3  18
ATOM     18  C   UNL     1      35.459 -15.049 -22.523  0.00  0.00    +0.152 C 
BRANCH  18  19
ATOM     19  S   UNL     1      33.871 -14.334 -23.002  0.00  0.00    -0.047 S 
BRANCH  19  31
ATOM     20  O   UNL     1      34.127 -12.670 -21.015  0.00  0.00    -0.262 OA
ATOM     21  N   UNL     1      33.853 -11.627 -23.103  0.00  0.00    -0.250 N 
ATOM     22  C   UNL     1      35.011 -10.400 -24.933  0.00  0.00    +0.027 C 
ATOM     23  C   UNL     1      34.054  -9.233 -24.821  0.00  0.00    +0.029 C 
ATOM     24  C   UNL     1      34.306 -11.677 -24.509  0.00  0.00    +0.099 C 
ATOM     25  C   UNL     1      33.375  -9.214 -23.477  0.00  0.00    -0.009 C 
ATOM     26  C   UNL     1      33.277 -10.367 -22.665  0.00  0.00    +0.051 C 
ATOM     27  C   UNL     1      32.793  -8.001 -23.063  0.00  0.00    -0.007 C 
ATOM     28  C   UNL     1      32.567 -10.252 -21.455  0.00  0.00    +0.014 C 
ATOM     29  C   UNL     1      32.119  -7.911 -21.851  0.00  0.00    -0.022 C 
ATOM     30  C   UNL     1      32.003  -9.038 -21.050  0.00  0.00    -0.003 C 
ATOM     31  C   UNL     1      33.975 -12.733 -22.230  0.00  0.00    +0.280 C 
ATOM     32  C   UNL     1      31.540  -6.611 -21.408  0.00  0.00    +0.031 C 
ENDBRANCH  19  31
ENDBRANCH  18  19
ENDBRANCH   3  18
TORSDOF 6
ENDMDL
