MODEL 1
REMARK VINA RESULT:     -12.5      0.000      0.000
REMARK  Name = 25174099
REMARK  5 active torsions:
REMARK  status: ('A' for Active; 'I' for Inactive)
REMARK    1  A    between atoms: C_5  and  C_33
REMARK    2  A    between atoms: C_14  and  C_18
REMARK    3  A    between atoms: N_17  and  C_20
REMARK    4  A    between atoms: C_20  and  C_24
REMARK    5  A    between atoms: C_33  and  C_36
REMARK                            x       y       z     vdW  Elec       q    Type
REMARK                         _______ _______ _______ _____ _____    ______ ____
ROOT
ATOM      1  S   UNL     1      37.558 -21.248 -16.290  0.00  0.00    -0.064 S 
ATOM      2  O   UNL     1      32.933 -22.613 -17.367  0.00  0.00    -0.274 OA
ATOM      3  N   UNL     1      36.212 -20.321 -18.410  0.00  0.00    -0.379 NA
ATOM      4  N   UNL     1      33.977 -21.097 -18.763  0.00  0.00    -0.255 N 
ATOM      5  C   UNL     1      34.580 -23.554 -14.869  0.00  0.00    +0.028 C 
ATOM      6  C   UNL     1      35.426 -24.465 -13.945  0.00  0.00    +0.005 C 
ATOM      7  C   UNL     1      35.470 -22.625 -15.660  0.00  0.00    -0.027 C 
ATOM      8  C   UNL     1      36.488 -23.680 -13.162  0.00  0.00    +0.006 C 
ATOM      9  C   UNL     1      37.475 -22.969 -14.097  0.00  0.00    +0.032 C 
ATOM     10  C   UNL     1      36.768 -22.352 -15.264  0.00  0.00    +0.002 C 
ATOM     11  C   UNL     1      35.146 -21.921 -16.867  0.00  0.00    +0.154 C 
ATOM     12  C   UNL     1      36.195 -21.124 -17.308  0.00  0.00    +0.152 C 
ATOM     13  C   UNL     1      33.914 -21.934 -17.651  0.00  0.00    +0.239 C 
ATOM     14  C   UNL     1      35.101 -20.348 -19.080  0.00  0.00    +0.240 C 
ATOM     15  H   UNL     1      33.189 -21.033 -19.351  0.00  0.00    +0.157 HD
ENDROOT
BRANCH  14  18
ATOM     16  O   UNL     1      33.911 -19.535 -20.900  0.00  0.00    -0.266 OA
ATOM     17  N   UNL     1      36.127 -18.824 -20.609  0.00  0.00    -0.294 N 
ATOM     18  C   UNL     1      34.979 -19.521 -20.302  0.00  0.00    +0.290 C 
ATOM     19  H   UNL     1      36.908 -18.923 -20.018  0.00  0.00    +0.150 HD
BRANCH  17  20
ATOM     20  C   UNL     1      36.239 -17.952 -21.756  0.00  0.00    +0.117 C 
BRANCH  20  24
ATOM     21  O   UNL     1      33.993 -12.868 -20.707  0.00  0.00    -0.464 OA
ATOM     22  O   UNL     1      33.853 -11.534 -24.063  0.00  0.00    -0.271 OA
ATOM     23  N   UNL     1      34.626 -13.586 -23.369  0.00  0.00    -0.279 N 
ATOM     24  C   UNL     1      35.632 -16.604 -21.497  0.00  0.00    -0.001 C 
ATOM     25  C   UNL     1      34.828 -14.479 -22.312  0.00  0.00    +0.085 C 
ATOM     26  C   UNL     1      35.399 -15.729 -22.559  0.00  0.00    +0.015 C 
ATOM     27  C   UNL     1      34.499 -14.100 -21.012  0.00  0.00    +0.153 C 
ATOM     28  C   UNL     1      35.307 -16.225 -20.194  0.00  0.00    +0.001 C 
ATOM     29  C   UNL     1      34.747 -14.970 -19.949  0.00  0.00    +0.038 C 
ATOM     30  C   UNL     1      33.385 -12.206 -21.800  0.00  0.00    +0.290 C 
ATOM     31  C   UNL     1      33.993 -12.379 -23.181  0.00  0.00    +0.271 C 
ATOM     32  H   UNL     1      34.944 -13.827 -24.269  0.00  0.00    +0.155 HD
ENDBRANCH  20  24
ENDBRANCH  17  20
ENDBRANCH  14  18
BRANCH   5  33
ATOM     33  C   UNL     1      33.544 -22.770 -14.056  0.00  0.00    +0.089 C 
BRANCH  33  36
ATOM     34  O   UNL     1      32.074 -24.215 -12.777  0.00  0.00    -0.275 OA
ATOM     35  N   UNL     1      31.421 -23.516 -14.868  0.00  0.00    -0.329 N 
ATOM     36  C   UNL     1      32.294 -23.578 -13.804  0.00  0.00    +0.220 C 
ATOM     37  H   UNL     1      30.565 -24.000 -14.832  0.00  0.00    +0.145 HD
ATOM     38  H   UNL     1      31.654 -22.987 -15.665  0.00  0.00    +0.145 HD
ENDBRANCH  33  36
ENDBRANCH   5  33
TORSDOF 5
ENDMDL
MODEL 2
REMARK VINA RESULT:     -12.4      2.256      3.159
REMARK  Name = 25174099
REMARK  5 active torsions:
REMARK  status: ('A' for Active; 'I' for Inactive)
REMARK    1  A    between atoms: C_5  and  C_33
REMARK    2  A    between atoms: C_14  and  C_18
REMARK    3  A    between atoms: N_17  and  C_20
REMARK    4  A    between atoms: C_20  and  C_24
REMARK    5  A    between atoms: C_33  and  C_36
REMARK                            x       y       z     vdW  Elec       q    Type
REMARK                         _______ _______ _______ _____ _____    ______ ____
ROOT
ATOM      1  S   UNL     1      35.377 -23.069 -14.760  0.00  0.00    -0.064 S 
ATOM      2  O   UNL     1      31.930 -21.729 -18.037  0.00  0.00    -0.274 OA
ATOM      3  N   UNL     1      35.935 -21.734 -17.013  0.00  0.00    -0.379 NA
ATOM      4  N   UNL     1      34.129 -21.168 -18.475  0.00  0.00    -0.255 N 
ATOM      5  C   UNL     1      31.393 -23.210 -15.325  0.00  0.00    +0.028 C 
ATOM      6  C   UNL     1      31.068 -24.355 -14.334  0.00  0.00    +0.005 C 
ATOM      7  C   UNL     1      32.885 -23.000 -15.426  0.00  0.00    -0.027 C 
ATOM      8  C   UNL     1      31.847 -24.228 -13.017  0.00  0.00    +0.006 C 
ATOM      9  C   UNL     1      33.363 -24.263 -13.245  0.00  0.00    +0.032 C 
ATOM     10  C   UNL     1      33.750 -23.459 -14.447  0.00  0.00    +0.002 C 
ATOM     11  C   UNL     1      33.607 -22.339 -16.475  0.00  0.00    +0.154 C 
ATOM     12  C   UNL     1      34.973 -22.297 -16.227  0.00  0.00    +0.152 C 
ATOM     13  C   UNL     1      33.112 -21.733 -17.708  0.00  0.00    +0.239 C 
ATOM     14  C   UNL     1      35.463 -21.197 -18.095  0.00  0.00    +0.240 C 
ATOM     15  H   UNL     1      33.891 -20.729 -19.323  0.00  0.00    +0.157 HD
ENDROOT
BRANCH  14  18
ATOM     16  O   UNL     1      37.375 -21.186 -19.411  0.00  0.00    -0.266 OA
ATOM     17  N   UNL     1      36.026 -19.268 -19.390  0.00  0.00    -0.294 N 
ATOM     18  C   UNL     1      36.398 -20.548 -19.042  0.00  0.00    +0.290 C 
ATOM     19  H   UNL     1      35.201 -18.898 -18.999  0.00  0.00    +0.150 HD
BRANCH  17  20
ATOM     20  C   UNL     1      36.786 -18.444 -20.301  0.00  0.00    +0.117 C 
BRANCH  20  24
ATOM     21  O   UNL     1      33.659 -16.903 -24.755  0.00  0.00    -0.464 OA
ATOM     22  O   UNL     1      33.743 -13.310 -24.374  0.00  0.00    -0.271 OA
ATOM     23  N   UNL     1      34.725 -14.914 -23.049  0.00  0.00    -0.279 N 
ATOM     24  C   UNL     1      35.969 -18.017 -21.486  0.00  0.00    -0.001 C 
ATOM     25  C   UNL     1      34.986 -16.270 -22.829  0.00  0.00    +0.085 C 
ATOM     26  C   UNL     1      35.741 -16.661 -21.722  0.00  0.00    +0.015 C 
ATOM     27  C   UNL     1      34.453 -17.227 -23.692  0.00  0.00    +0.153 C 
ATOM     28  C   UNL     1      35.434 -18.977 -22.346  0.00  0.00    +0.001 C 
ATOM     29  C   UNL     1      34.670 -18.583 -23.445  0.00  0.00    +0.038 C 
ATOM     30  C   UNL     1      33.807 -15.569 -25.202  0.00  0.00    +0.290 C 
ATOM     31  C   UNL     1      34.055 -14.482 -24.170  0.00  0.00    +0.271 C 
ATOM     32  H   UNL     1      35.028 -14.253 -22.387  0.00  0.00    +0.155 HD
ENDBRANCH  20  24
ENDBRANCH  17  20
ENDBRANCH  14  18
BRANCH   5  33
ATOM     33  C   UNL     1      30.678 -21.918 -14.913  0.00  0.00    +0.089 C 
BRANCH  33  36
ATOM     34  O   UNL     1      28.313 -21.390 -14.828  0.00  0.00    -0.275 OA
ATOM     35  N   UNL     1      29.171 -22.401 -16.707  0.00  0.00    -0.329 N 
ATOM     36  C   UNL     1      29.266 -21.860 -15.443  0.00  0.00    +0.220 C 
ATOM     37  H   UNL     1      28.301 -22.425 -17.168  0.00  0.00    +0.145 HD
ATOM     38  H   UNL     1      29.972 -22.763 -17.149  0.00  0.00    +0.145 HD
ENDBRANCH  33  36
ENDBRANCH   5  33
TORSDOF 5
ENDMDL
MODEL 3
REMARK VINA RESULT:     -12.3      3.937     12.009
REMARK  Name = 25174099
REMARK  5 active torsions:
REMARK  status: ('A' for Active; 'I' for Inactive)
REMARK    1  A    between atoms: C_5  and  C_33
REMARK    2  A    between atoms: C_14  and  C_18
REMARK    3  A    between atoms: N_17  and  C_20
REMARK    4  A    between atoms: C_20  and  C_24
REMARK    5  A    between atoms: C_33  and  C_36
REMARK                            x       y       z     vdW  Elec       q    Type
REMARK                         _______ _______ _______ _____ _____    ______ ____
ROOT
ATOM      1  S   UNL     1      32.480 -11.974 -20.648  0.00  0.00    -0.064 S 
ATOM      2  O   UNL     1      33.994 -10.427 -25.090  0.00  0.00    -0.274 OA
ATOM      3  N   UNL     1      33.475 -13.618 -22.513  0.00  0.00    -0.379 NA
ATOM      4  N   UNL     1      34.160 -12.680 -24.604  0.00  0.00    -0.255 N 
ATOM      5  C   UNL     1      32.899  -8.593 -22.793  0.00  0.00    +0.028 C 
ATOM      6  C   UNL     1      31.925  -7.697 -21.989  0.00  0.00    +0.005 C 
ATOM      7  C   UNL     1      32.865 -10.013 -22.279  0.00  0.00    -0.027 C 
ATOM      8  C   UNL     1      32.066  -7.895 -20.473  0.00  0.00    +0.006 C 
ATOM      9  C   UNL     1      31.773  -9.342 -20.057  0.00  0.00    +0.032 C 
ATOM     10  C   UNL     1      32.380 -10.317 -21.019  0.00  0.00    +0.002 C 
ATOM     11  C   UNL     1      33.295 -11.200 -22.959  0.00  0.00    +0.154 C 
ATOM     12  C   UNL     1      33.151 -12.337 -22.175  0.00  0.00    +0.152 C 
ATOM     13  C   UNL     1      33.841 -11.357 -24.305  0.00  0.00    +0.239 C 
ATOM     14  C   UNL     1      33.965 -13.722 -23.710  0.00  0.00    +0.240 C 
ATOM     15  H   UNL     1      34.542 -12.885 -25.488  0.00  0.00    +0.157 HD
ENDROOT
BRANCH  14  18
ATOM     16  O   UNL     1      34.235 -15.285 -25.405  0.00  0.00    -0.266 OA
ATOM     17  N   UNL     1      34.836 -15.894 -23.221  0.00  0.00    -0.294 N 
ATOM     18  C   UNL     1      34.362 -15.059 -24.209  0.00  0.00    +0.290 C 
ATOM     19  H   UNL     1      34.875 -15.554 -22.299  0.00  0.00    +0.150 HD
BRANCH  17  20
ATOM     20  C   UNL     1      35.282 -17.245 -23.476  0.00  0.00    +0.117 C 
BRANCH  20  24
ATOM     21  O   UNL     1      36.114 -20.090 -18.659  0.00  0.00    -0.464 OA
ATOM     22  O   UNL     1      32.868 -21.628 -18.265  0.00  0.00    -0.271 OA
ATOM     23  N   UNL     1      33.597 -20.232 -19.941  0.00  0.00    -0.279 N 
ATOM     24  C   UNL     1      35.490 -18.016 -22.205  0.00  0.00    -0.001 C 
ATOM     25  C   UNL     1      34.649 -19.498 -20.496  0.00  0.00    +0.085 C 
ATOM     26  C   UNL     1      34.448 -18.777 -21.674  0.00  0.00    +0.015 C 
ATOM     27  C   UNL     1      35.881 -19.452 -19.845  0.00  0.00    +0.153 C 
ATOM     28  C   UNL     1      36.723 -17.967 -21.554  0.00  0.00    +0.001 C 
ATOM     29  C   UNL     1      36.917 -18.678 -20.369  0.00  0.00    +0.038 C 
ATOM     30  C   UNL     1      35.224 -21.157 -18.391  0.00  0.00    +0.290 C 
ATOM     31  C   UNL     1      33.775 -21.019 -18.827  0.00  0.00    +0.271 C 
ATOM     32  H   UNL     1      32.706 -20.186 -20.358  0.00  0.00    +0.155 HD
ENDBRANCH  20  24
ENDBRANCH  17  20
ENDBRANCH  14  18
BRANCH   5  33
ATOM     33  C   UNL     1      34.321  -8.023 -22.751  0.00  0.00    +0.089 C 
BRANCH  33  36
ATOM     34  O   UNL     1      34.155  -6.260 -24.409  0.00  0.00    -0.275 OA
ATOM     35  N   UNL     1      35.674  -7.958 -24.723  0.00  0.00    -0.329 N 
ATOM     36  C   UNL     1      34.680  -7.303 -24.028  0.00  0.00    +0.220 C 
ATOM     37  H   UNL     1      36.001  -7.592 -25.576  0.00  0.00    +0.145 HD
ATOM     38  H   UNL     1      36.056  -8.792 -24.366  0.00  0.00    +0.145 HD
ENDBRANCH  33  36
ENDBRANCH   5  33
TORSDOF 5
ENDMDL
MODEL 4
REMARK VINA RESULT:     -12.2      4.198     11.456
REMARK  Name = 25174099
REMARK  5 active torsions:
REMARK  status: ('A' for Active; 'I' for Inactive)
REMARK    1  A    between atoms: C_5  and  C_33
REMARK    2  A    between atoms: C_14  and  C_18
REMARK    3  A    between atoms: N_17  and  C_20
REMARK    4  A    between atoms: C_20  and  C_24
REMARK    5  A    between atoms: C_33  and  C_36
REMARK                            x       y       z     vdW  Elec       q    Type
REMARK                         _______ _______ _______ _____ _____    ______ ____
ROOT
ATOM      1  S   UNL     1      34.148 -10.052 -25.126  0.00  0.00    -0.064 S 
ATOM      2  O   UNL     1      33.078 -12.211 -20.811  0.00  0.00    -0.274 OA
ATOM      3  N   UNL     1      34.218 -12.703 -24.755  0.00  0.00    -0.379 NA
ATOM      4  N   UNL     1      33.662 -13.562 -22.593  0.00  0.00    -0.255 N 
ATOM      5  C   UNL     1      32.944  -9.132 -21.396  0.00  0.00    +0.028 C 
ATOM      6  C   UNL     1      33.339  -7.634 -21.398  0.00  0.00    +0.005 C 
ATOM      7  C   UNL     1      33.397  -9.804 -22.670  0.00  0.00    -0.027 C 
ATOM      8  C   UNL     1      32.986  -6.937 -22.719  0.00  0.00    +0.006 C 
ATOM      9  C   UNL     1      33.704  -7.581 -23.913  0.00  0.00    +0.032 C 
ATOM     10  C   UNL     1      33.701  -9.075 -23.807  0.00  0.00    +0.002 C 
ATOM     11  C   UNL     1      33.578 -11.208 -22.902  0.00  0.00    +0.154 C 
ATOM     12  C   UNL     1      33.973 -11.479 -24.206  0.00  0.00    +0.152 C 
ATOM     13  C   UNL     1      33.406 -12.333 -21.987  0.00  0.00    +0.239 C 
ATOM     14  C   UNL     1      34.048 -13.681 -23.920  0.00  0.00    +0.240 C 
ATOM     15  H   UNL     1      33.565 -14.381 -22.056  0.00  0.00    +0.157 HD
ENDROOT
BRANCH  14  18
ATOM     16  O   UNL     1      34.068 -15.322 -25.562  0.00  0.00    -0.266 OA
ATOM     17  N   UNL     1      34.716 -15.914 -23.387  0.00  0.00    -0.294 N 
ATOM     18  C   UNL     1      34.279 -15.069 -24.383  0.00  0.00    +0.290 C 
ATOM     19  H   UNL     1      34.837 -15.547 -22.482  0.00  0.00    +0.150 HD
BRANCH  17  20
ATOM     20  C   UNL     1      35.007 -17.312 -23.609  0.00  0.00    +0.117 C 
BRANCH  20  24
ATOM     21  O   UNL     1      36.087 -19.984 -18.741  0.00  0.00    -0.464 OA
ATOM     22  O   UNL     1      32.908 -21.613 -18.196  0.00  0.00    -0.271 OA
ATOM     23  N   UNL     1      33.536 -20.245 -19.935  0.00  0.00    -0.279 N 
ATOM     24  C   UNL     1      35.281 -18.038 -22.323  0.00  0.00    -0.001 C 
ATOM     25  C   UNL     1      34.545 -19.494 -20.545  0.00  0.00    +0.085 C 
ATOM     26  C   UNL     1      34.282 -18.816 -21.736  0.00  0.00    +0.015 C 
ATOM     27  C   UNL     1      35.795 -19.389 -19.937  0.00  0.00    +0.153 C 
ATOM     28  C   UNL     1      36.531 -17.929 -21.715  0.00  0.00    +0.001 C 
ATOM     29  C   UNL     1      36.787 -18.598 -20.517  0.00  0.00    +0.038 C 
ATOM     30  C   UNL     1      35.242 -21.070 -18.414  0.00  0.00    +0.290 C 
ATOM     31  C   UNL     1      33.776 -20.993 -18.806  0.00  0.00    +0.271 C 
ATOM     32  H   UNL     1      32.631 -20.240 -20.324  0.00  0.00    +0.155 HD
ENDBRANCH  20  24
ENDBRANCH  17  20
ENDBRANCH  14  18
BRANCH   5  33
ATOM     33  C   UNL     1      31.433  -9.293 -21.192  0.00  0.00    +0.089 C 
BRANCH  33  36
ATOM     34  O   UNL     1      31.455  -9.411 -18.769  0.00  0.00    -0.275 OA
ATOM     35  N   UNL     1      30.362 -11.045 -19.963  0.00  0.00    -0.329 N 
ATOM     36  C   UNL     1      31.106  -9.890 -19.845  0.00  0.00    +0.220 C 
ATOM     37  H   UNL     1      30.081 -11.534 -19.157  0.00  0.00    +0.145 HD
ATOM     38  H   UNL     1      30.112 -11.380 -20.854  0.00  0.00    +0.145 HD
ENDBRANCH  33  36
ENDBRANCH   5  33
TORSDOF 5
ENDMDL
MODEL 5
REMARK VINA RESULT:     -12.0      2.103      2.832
REMARK  Name = 25174099
REMARK  5 active torsions:
REMARK  status: ('A' for Active; 'I' for Inactive)
REMARK    1  A    between atoms: C_5  and  C_33
REMARK    2  A    between atoms: C_14  and  C_18
REMARK    3  A    between atoms: N_17  and  C_20
REMARK    4  A    between atoms: C_20  and  C_24
REMARK    5  A    between atoms: C_33  and  C_36
REMARK                            x       y       z     vdW  Elec       q    Type
REMARK                         _______ _______ _______ _____ _____    ______ ____
ROOT
ATOM      1  S   UNL     1      32.639 -22.068 -17.244  0.00  0.00    -0.064 S 
ATOM      2  O   UNL     1      37.321 -21.927 -15.670  0.00  0.00    -0.274 OA
ATOM      3  N   UNL     1      34.620 -20.927 -18.636  0.00  0.00    -0.379 NA
ATOM      4  N   UNL     1      36.825 -20.963 -17.711  0.00  0.00    -0.255 N 
ATOM      5  C   UNL     1      34.934 -23.310 -14.178  0.00  0.00    +0.028 C 
ATOM      6  C   UNL     1      33.809 -23.544 -13.139  0.00  0.00    +0.005 C 
ATOM      7  C   UNL     1      34.373 -22.705 -15.443  0.00  0.00    -0.027 C 
ATOM      8  C   UNL     1      32.578 -24.225 -13.753  0.00  0.00    +0.006 C 
ATOM      9  C   UNL     1      31.964 -23.385 -14.880  0.00  0.00    +0.032 C 
ATOM     10  C   UNL     1      33.026 -22.787 -15.750  0.00  0.00    +0.002 C 
ATOM     11  C   UNL     1      35.087 -21.995 -16.464  0.00  0.00    +0.154 C 
ATOM     12  C   UNL     1      34.260 -21.605 -17.509  0.00  0.00    +0.152 C 
ATOM     13  C   UNL     1      36.504 -21.650 -16.542  0.00  0.00    +0.239 C 
ATOM     14  C   UNL     1      35.885 -20.643 -18.680  0.00  0.00    +0.240 C 
ATOM     15  H   UNL     1      37.761 -20.693 -17.856  0.00  0.00    +0.157 HD
ENDROOT
BRANCH  14  18
ATOM     16  O   UNL     1      37.621 -19.960 -20.061  0.00  0.00    -0.266 OA
ATOM     17  N   UNL     1      35.446 -19.242 -20.566  0.00  0.00    -0.294 N 
ATOM     18  C   UNL     1      36.417 -19.908 -19.850  0.00  0.00    +0.290 C 
ATOM     19  H   UNL     1      34.513 -19.303 -20.259  0.00  0.00    +0.150 HD
BRANCH  17  20
ATOM     20  C   UNL     1      35.733 -18.460 -21.747  0.00  0.00    +0.117 C 
BRANCH  20  24
ATOM     21  O   UNL     1      34.416 -13.010 -20.996  0.00  0.00    -0.464 OA
ATOM     22  O   UNL     1      33.903 -12.005 -24.429  0.00  0.00    -0.271 OA
ATOM     23  N   UNL     1      34.490 -14.075 -23.615  0.00  0.00    -0.279 N 
ATOM     24  C   UNL     1      35.369 -17.015 -21.565  0.00  0.00    -0.001 C 
ATOM     25  C   UNL     1      34.740 -14.881 -22.501  0.00  0.00    +0.085 C 
ATOM     26  C   UNL     1      35.085 -16.222 -22.677  0.00  0.00    +0.015 C 
ATOM     27  C   UNL     1      34.690 -14.330 -21.221  0.00  0.00    +0.153 C 
ATOM     28  C   UNL     1      35.322 -16.464 -20.283  0.00  0.00    +0.001 C 
ATOM     29  C   UNL     1      34.990 -15.120 -20.111  0.00  0.00    +0.038 C 
ATOM     30  C   UNL     1      33.732 -12.372 -22.057  0.00  0.00    +0.290 C 
ATOM     31  C   UNL     1      34.070 -12.772 -23.483  0.00  0.00    +0.271 C 
ATOM     32  H   UNL     1      34.616 -14.449 -24.517  0.00  0.00    +0.155 HD
ENDBRANCH  20  24
ENDBRANCH  17  20
ENDBRANCH  14  18
BRANCH   5  33
ATOM     33  C   UNL     1      35.680 -24.616 -14.472  0.00  0.00    +0.089 C 
BRANCH  33  36
ATOM     34  O   UNL     1      37.098 -24.774 -12.510  0.00  0.00    -0.275 OA
ATOM     35  N   UNL     1      38.069 -24.672 -14.593  0.00  0.00    -0.329 N 
ATOM     36  C   UNL     1      36.993 -24.696 -13.732  0.00  0.00    +0.220 C 
ATOM     37  H   UNL     1      38.985 -24.718 -14.237  0.00  0.00    +0.145 HD
ATOM     38  H   UNL     1      37.921 -24.609 -15.564  0.00  0.00    +0.145 HD
ENDBRANCH  33  36
ENDBRANCH   5  33
TORSDOF 5
ENDMDL
MODEL 6
REMARK VINA RESULT:     -11.6      3.403     10.994
REMARK  Name = 25174099
REMARK  5 active torsions:
REMARK  status: ('A' for Active; 'I' for Inactive)
REMARK    1  A    between atoms: C_5  and  C_33
REMARK    2  A    between atoms: C_14  and  C_18
REMARK    3  A    between atoms: N_17  and  C_20
REMARK    4  A    between atoms: C_20  and  C_24
REMARK    5  A    between atoms: C_33  and  C_36
REMARK                            x       y       z     vdW  Elec       q    Type
REMARK                         _______ _______ _______ _____ _____    ______ ____
ROOT
ATOM      1  S   UNL     1      34.203 -11.691 -24.549  0.00  0.00    -0.064 S 
ATOM      2  O   UNL     1      33.397 -12.909 -19.828  0.00  0.00    -0.274 OA
ATOM      3  N   UNL     1      34.782 -14.101 -23.537  0.00  0.00    -0.379 NA
ATOM      4  N   UNL     1      34.314 -14.504 -21.226  0.00  0.00    -0.255 N 
ATOM      5  C   UNL     1      32.680 -10.158 -21.152  0.00  0.00    +0.028 C 
ATOM      6  C   UNL     1      32.770  -8.657 -21.525  0.00  0.00    +0.005 C 
ATOM      7  C   UNL     1      33.312 -11.012 -22.225  0.00  0.00    -0.027 C 
ATOM      8  C   UNL     1      32.343  -8.388 -22.975  0.00  0.00    +0.006 C 
ATOM      9  C   UNL     1      33.224  -9.142 -23.979  0.00  0.00    +0.032 C 
ATOM     10  C   UNL     1      33.514 -10.535 -23.508  0.00  0.00    +0.002 C 
ATOM     11  C   UNL     1      33.778 -12.364 -22.105  0.00  0.00    +0.154 C 
ATOM     12  C   UNL     1      34.275 -12.856 -23.304  0.00  0.00    +0.152 C 
ATOM     13  C   UNL     1      33.793 -13.244 -20.940  0.00  0.00    +0.239 C 
ATOM     14  C   UNL     1      34.773 -14.861 -22.485  0.00  0.00    +0.240 C 
ATOM     15  H   UNL     1      34.359 -15.171 -20.503  0.00  0.00    +0.157 HD
ENDROOT
BRANCH  14  18
ATOM     16  O   UNL     1      35.309 -16.765 -23.701  0.00  0.00    -0.266 OA
ATOM     17  N   UNL     1      35.707 -16.770 -21.390  0.00  0.00    -0.294 N 
ATOM     18  C   UNL     1      35.294 -16.243 -22.594  0.00  0.00    +0.290 C 
ATOM     19  H   UNL     1      35.627 -16.212 -20.583  0.00  0.00    +0.150 HD
BRANCH  17  20
ATOM     20  C   UNL     1      36.252 -18.101 -21.255  0.00  0.00    +0.117 C 
BRANCH  20  24
ATOM     21  O   UNL     1      32.713 -21.553 -18.508  0.00  0.00    -0.464 OA
ATOM     22  O   UNL     1      35.020 -23.128 -16.214  0.00  0.00    -0.271 OA
ATOM     23  N   UNL     1      35.454 -21.530 -17.811  0.00  0.00    -0.279 N 
ATOM     24  C   UNL     1      35.324 -19.014 -20.507  0.00  0.00    -0.001 C 
ATOM     25  C   UNL     1      34.954 -20.679 -18.800  0.00  0.00    +0.085 C 
ATOM     26  C   UNL     1      35.822 -19.837 -19.496  0.00  0.00    +0.015 C 
ATOM     27  C   UNL     1      33.596 -20.707 -19.117  0.00  0.00    +0.153 C 
ATOM     28  C   UNL     1      33.967 -19.043 -20.828  0.00  0.00    +0.001 C 
ATOM     29  C   UNL     1      33.103 -19.895 -20.139  0.00  0.00    +0.038 C 
ATOM     30  C   UNL     1      33.144 -22.030 -17.247  0.00  0.00    +0.290 C 
ATOM     31  C   UNL     1      34.622 -22.316 -17.047  0.00  0.00    +0.271 C 
ATOM     32  H   UNL     1      36.426 -21.569 -17.656  0.00  0.00    +0.155 HD
ENDBRANCH  20  24
ENDBRANCH  17  20
ENDBRANCH  14  18
BRANCH   5  33
ATOM     33  C   UNL     1      31.224 -10.568 -20.903  0.00  0.00    +0.089 C 
BRANCH  33  36
ATOM     34  O   UNL     1      29.749 -10.416 -18.984  0.00  0.00    -0.275 OA
ATOM     35  N   UNL     1      31.996 -10.771 -18.648  0.00  0.00    -0.329 N 
ATOM     36  C   UNL     1      30.881 -10.571 -19.434  0.00  0.00    +0.220 C 
ATOM     37  H   UNL     1      31.910 -10.796 -17.668  0.00  0.00    +0.145 HD
ATOM     38  H   UNL     1      32.879 -10.890 -19.067  0.00  0.00    +0.145 HD
ENDBRANCH  33  36
ENDBRANCH   5  33
TORSDOF 5
ENDMDL
MODEL 7
REMARK VINA RESULT:     -11.5      2.536      3.519
REMARK  Name = 25174099
REMARK  5 active torsions:
REMARK  status: ('A' for Active; 'I' for Inactive)
REMARK    1  A    between atoms: C_5  and  C_33
REMARK    2  A    between atoms: C_14  and  C_18
REMARK    3  A    between atoms: N_17  and  C_20
REMARK    4  A    between atoms: C_20  and  C_24
REMARK    5  A    between atoms: C_33  and  C_36
REMARK                            x       y       z     vdW  Elec       q    Type
REMARK                         _______ _______ _______ _____ _____    ______ ____
ROOT
ATOM      1  S   UNL     1      32.788 -22.252 -17.166  0.00  0.00    -0.064 S 
ATOM      2  O   UNL     1      37.207 -21.910 -14.981  0.00  0.00    -0.274 OA
ATOM      3  N   UNL     1      34.944 -21.223 -18.372  0.00  0.00    -0.379 NA
ATOM      4  N   UNL     1      37.000 -21.146 -17.152  0.00  0.00    -0.255 N 
ATOM      5  C   UNL     1      34.634 -23.176 -13.709  0.00  0.00    +0.028 C 
ATOM      6  C   UNL     1      33.377 -23.325 -12.818  0.00  0.00    +0.005 C 
ATOM      7  C   UNL     1      34.255 -22.698 -15.091  0.00  0.00    -0.027 C 
ATOM      8  C   UNL     1      32.241 -24.075 -13.529  0.00  0.00    +0.006 C 
ATOM      9  C   UNL     1      31.790 -23.350 -14.804  0.00  0.00    +0.032 C 
ATOM     10  C   UNL     1      32.963 -22.824 -15.572  0.00  0.00    +0.002 C 
ATOM     11  C   UNL     1      35.104 -22.078 -16.066  0.00  0.00    +0.154 C 
ATOM     12  C   UNL     1      34.430 -21.797 -17.247  0.00  0.00    +0.152 C 
ATOM     13  C   UNL     1      36.519 -21.725 -15.979  0.00  0.00    +0.239 C 
ATOM     14  C   UNL     1      36.204 -20.929 -18.267  0.00  0.00    +0.240 C 
ATOM     15  H   UNL     1      37.947 -20.880 -17.192  0.00  0.00    +0.157 HD
ENDROOT
BRANCH  14  18
ATOM     16  O   UNL     1      37.622 -21.004 -20.103  0.00  0.00    -0.266 OA
ATOM     17  N   UNL     1      36.608 -18.960 -19.561  0.00  0.00    -0.294 N 
ATOM     18  C   UNL     1      36.893 -20.300 -19.417  0.00  0.00    +0.290 C 
ATOM     19  H   UNL     1      35.993 -18.540 -18.917  0.00  0.00    +0.150 HD
BRANCH  17  20
ATOM     20  C   UNL     1      37.166 -18.143 -20.614  0.00  0.00    +0.117 C 
BRANCH  20  24
ATOM     21  O   UNL     1      33.363 -17.198 -24.694  0.00  0.00    -0.464 OA
ATOM     22  O   UNL     1      33.439 -13.586 -24.804  0.00  0.00    -0.271 OA
ATOM     23  N   UNL     1      34.642 -15.003 -23.449  0.00  0.00    -0.279 N 
ATOM     24  C   UNL     1      36.168 -17.874 -21.704  0.00  0.00    -0.001 C 
ATOM     25  C   UNL     1      34.959 -16.318 -23.096  0.00  0.00    +0.085 C 
ATOM     26  C   UNL     1      35.881 -16.561 -22.077  0.00  0.00    +0.015 C 
ATOM     27  C   UNL     1      34.317 -17.380 -23.732  0.00  0.00    +0.153 C 
ATOM     28  C   UNL     1      35.525 -18.938 -22.337  0.00  0.00    +0.001 C 
ATOM     29  C   UNL     1      34.594 -18.692 -23.346  0.00  0.00    +0.038 C 
ATOM     30  C   UNL     1      33.416 -15.935 -25.329  0.00  0.00    +0.290 C 
ATOM     31  C   UNL     1      33.800 -14.721 -24.499  0.00  0.00    +0.271 C 
ATOM     32  H   UNL     1      35.031 -14.260 -22.934  0.00  0.00    +0.155 HD
ENDBRANCH  20  24
ENDBRANCH  17  20
ENDBRANCH  14  18
BRANCH   5  33
ATOM     33  C   UNL     1      35.413 -24.495 -13.773  0.00  0.00    +0.089 C 
BRANCH  33  36
ATOM     34  O   UNL     1      36.355 -24.715 -11.549  0.00  0.00    -0.275 OA
ATOM     35  N   UNL     1      37.762 -24.379 -13.337  0.00  0.00    -0.329 N 
ATOM     36  C   UNL     1      36.524 -24.545 -12.754  0.00  0.00    +0.220 C 
ATOM     37  H   UNL     1      38.574 -24.392 -12.781  0.00  0.00    +0.145 HD
ATOM     38  H   UNL     1      37.834 -24.247 -14.310  0.00  0.00    +0.145 HD
ENDBRANCH  33  36
ENDBRANCH   5  33
TORSDOF 5
ENDMDL
MODEL 8
REMARK VINA RESULT:     -11.5      2.674     10.502
REMARK  Name = 25174099
REMARK  5 active torsions:
REMARK  status: ('A' for Active; 'I' for Inactive)
REMARK    1  A    between atoms: C_5  and  C_33
REMARK    2  A    between atoms: C_14  and  C_18
REMARK    3  A    between atoms: N_17  and  C_20
REMARK    4  A    between atoms: C_20  and  C_24
REMARK    5  A    between atoms: C_33  and  C_36
REMARK                            x       y       z     vdW  Elec       q    Type
REMARK                         _______ _______ _______ _____ _____    ______ ____
ROOT
ATOM      1  S   UNL     1      34.937 -16.134 -24.137  0.00  0.00    -0.064 S 
ATOM      2  O   UNL     1      34.952 -14.571 -19.449  0.00  0.00    -0.274 OA
ATOM      3  N   UNL     1      35.788 -17.638 -22.093  0.00  0.00    -0.379 NA
ATOM      4  N   UNL     1      35.714 -16.708 -19.891  0.00  0.00    -0.255 N 
ATOM      5  C   UNL     1      33.897 -12.943 -21.914  0.00  0.00    +0.028 C 
ATOM      6  C   UNL     1      33.852 -11.888 -23.047  0.00  0.00    +0.005 C 
ATOM      7  C   UNL     1      34.393 -14.269 -22.440  0.00  0.00    -0.027 C 
ATOM      8  C   UNL     1      33.188 -12.426 -24.322  0.00  0.00    +0.006 C 
ATOM      9  C   UNL     1      33.936 -13.641 -24.885  0.00  0.00    +0.032 C 
ATOM     10  C   UNL     1      34.365 -14.569 -23.791  0.00  0.00    +0.002 C 
ATOM     11  C   UNL     1      34.939 -15.360 -21.687  0.00  0.00    +0.154 C 
ATOM     12  C   UNL     1      35.264 -16.444 -22.491  0.00  0.00    +0.152 C 
ATOM     13  C   UNL     1      35.182 -15.471 -20.251  0.00  0.00    +0.239 C 
ATOM     14  C   UNL     1      35.984 -17.709 -20.812  0.00  0.00    +0.240 C 
ATOM     15  H   UNL     1      35.906 -16.880 -18.940  0.00  0.00    +0.157 HD
ENDROOT
BRANCH  14  18
ATOM     16  O   UNL     1      37.748 -19.155 -20.383  0.00  0.00    -0.266 OA
ATOM     17  N   UNL     1      35.615 -19.737 -19.601  0.00  0.00    -0.294 N 
ATOM     18  C   UNL     1      36.550 -18.952 -20.240  0.00  0.00    +0.290 C 
ATOM     19  H   UNL     1      34.682 -19.426 -19.575  0.00  0.00    +0.150 HD
BRANCH  17  20
ATOM     20  C   UNL     1      35.940 -20.994 -18.968  0.00  0.00    +0.117 C 
BRANCH  20  24
ATOM     21  O   UNL     1      31.825 -22.714 -15.488  0.00  0.00    -0.464 OA
ATOM     22  O   UNL     1      33.798 -23.787 -12.657  0.00  0.00    -0.271 OA
ATOM     23  N   UNL     1      34.521 -22.904 -14.655  0.00  0.00    -0.279 N 
ATOM     24  C   UNL     1      34.860 -21.444 -18.027  0.00  0.00    -0.001 C 
ATOM     25  C   UNL     1      34.187 -22.361 -15.899  0.00  0.00    +0.085 C 
ATOM     26  C   UNL     1      35.196 -21.952 -16.772  0.00  0.00    +0.015 C 
ATOM     27  C   UNL     1      32.849 -22.274 -16.280  0.00  0.00    +0.153 C 
ATOM     28  C   UNL     1      33.521 -21.358 -18.411  0.00  0.00    +0.001 C 
ATOM     29  C   UNL     1      32.515 -21.780 -17.541  0.00  0.00    +0.038 C 
ATOM     30  C   UNL     1      32.154 -22.807 -14.116  0.00  0.00    +0.290 C 
ATOM     31  C   UNL     1      33.557 -23.245 -13.734  0.00  0.00    +0.271 C 
ATOM     32  H   UNL     1      35.469 -23.046 -14.431  0.00  0.00    +0.155 HD
ENDBRANCH  20  24
ENDBRANCH  17  20
ENDBRANCH  14  18
BRANCH   5  33
ATOM     33  C   UNL     1      32.522 -13.089 -21.254  0.00  0.00    +0.089 C 
BRANCH  33  36
ATOM     34  O   UNL     1      32.701 -11.437 -19.486  0.00  0.00    -0.275 OA
ATOM     35  N   UNL     1      31.037 -11.223 -21.059  0.00  0.00    -0.329 N 
ATOM     36  C   UNL     1      32.126 -11.848 -20.491  0.00  0.00    +0.220 C 
ATOM     37  H   UNL     1      30.677 -10.399 -20.657  0.00  0.00    +0.145 HD
ATOM     38  H   UNL     1      30.619 -11.600 -21.866  0.00  0.00    +0.145 HD
ENDBRANCH  33  36
ENDBRANCH   5  33
TORSDOF 5
ENDMDL
MODEL 9
REMARK VINA RESULT:     -11.5      1.369      1.884
REMARK  Name = 25174099
REMARK  5 active torsions:
REMARK  status: ('A' for Active; 'I' for Inactive)
REMARK    1  A    between atoms: C_5  and  C_33
REMARK    2  A    between atoms: C_14  and  C_18
REMARK    3  A    between atoms: N_17  and  C_20
REMARK    4  A    between atoms: C_20  and  C_24
REMARK    5  A    between atoms: C_33  and  C_36
REMARK                            x       y       z     vdW  Elec       q    Type
REMARK                         _______ _______ _______ _____ _____    ______ ____
ROOT
ATOM      1  S   UNL     1      37.193 -21.106 -16.494  0.00  0.00    -0.064 S 
ATOM      2  O   UNL     1      32.697 -21.999 -18.341  0.00  0.00    -0.274 OA
ATOM      3  N   UNL     1      36.324 -20.069 -18.803  0.00  0.00    -0.379 NA
ATOM      4  N   UNL     1      34.112 -20.613 -19.532  0.00  0.00    -0.255 N 
ATOM      5  C   UNL     1      33.796 -23.078 -15.608  0.00  0.00    +0.028 C 
ATOM      6  C   UNL     1      34.376 -24.062 -14.561  0.00  0.00    +0.005 C 
ATOM      7  C   UNL     1      34.897 -22.254 -16.232  0.00  0.00    -0.027 C 
ATOM      8  C   UNL     1      35.368 -23.382 -13.606  0.00  0.00    +0.006 C 
ATOM      9  C   UNL     1      36.565 -22.786 -14.357  0.00  0.00    +0.032 C 
ATOM     10  C   UNL     1      36.132 -22.112 -15.623  0.00  0.00    +0.002 C 
ATOM     11  C   UNL     1      34.855 -21.533 -17.472  0.00  0.00    +0.154 C 
ATOM     12  C   UNL     1      36.039 -20.854 -17.725  0.00  0.00    +0.152 C 
ATOM     13  C   UNL     1      33.777 -21.427 -18.452  0.00  0.00    +0.239 C 
ATOM     14  C   UNL     1      35.344 -19.987 -19.650  0.00  0.00    +0.240 C 
ATOM     15  H   UNL     1      33.445 -20.475 -20.243  0.00  0.00    +0.157 HD
ENDROOT
BRANCH  14  18
ATOM     16  O   UNL     1      34.755 -19.366 -21.807  0.00  0.00    -0.266 OA
ATOM     17  N   UNL     1      36.545 -18.255 -20.777  0.00  0.00    -0.294 N 
ATOM     18  C   UNL     1      35.516 -19.166 -20.870  0.00  0.00    +0.290 C 
ATOM     19  H   UNL     1      37.067 -18.221 -19.943  0.00  0.00    +0.150 HD
BRANCH  17  20
ATOM     20  C   UNL     1      36.895 -17.347 -21.846  0.00  0.00    +0.117 C 
BRANCH  20  24
ATOM     21  O   UNL     1      32.979 -13.334 -22.597  0.00  0.00    -0.464 OA
ATOM     22  O   UNL     1      32.199 -12.560 -19.155  0.00  0.00    -0.271 OA
ATOM     23  N   UNL     1      33.702 -14.098 -19.972  0.00  0.00    -0.279 N 
ATOM     24  C   UNL     1      35.863 -16.271 -22.027  0.00  0.00    -0.001 C 
ATOM     25  C   UNL     1      34.321 -14.672 -21.086  0.00  0.00    +0.085 C 
ATOM     26  C   UNL     1      35.274 -15.676 -20.911  0.00  0.00    +0.015 C 
ATOM     27  C   UNL     1      33.949 -14.270 -22.368  0.00  0.00    +0.153 C 
ATOM     28  C   UNL     1      35.490 -15.873 -23.311  0.00  0.00    +0.001 C 
ATOM     29  C   UNL     1      34.528 -14.878 -23.483  0.00  0.00    +0.038 C 
ATOM     30  C   UNL     1      32.733 -12.476 -21.500  0.00  0.00    +0.290 C 
ATOM     31  C   UNL     1      32.818 -13.051 -20.096  0.00  0.00    +0.271 C 
ATOM     32  H   UNL     1      33.904 -14.450 -19.075  0.00  0.00    +0.155 HD
ENDBRANCH  20  24
ENDBRANCH  17  20
ENDBRANCH  14  18
BRANCH   5  33
ATOM     33  C   UNL     1      32.725 -22.183 -14.975  0.00  0.00    +0.089 C 
BRANCH  33  36
ATOM     34  O   UNL     1      30.821 -23.615 -14.521  0.00  0.00    -0.275 OA
ATOM     35  N   UNL     1      30.700 -22.099 -16.245  0.00  0.00    -0.329 N 
ATOM     36  C   UNL     1      31.334 -22.725 -15.194  0.00  0.00    +0.220 C 
ATOM     37  H   UNL     1      29.784 -22.360 -16.494  0.00  0.00    +0.145 HD
ATOM     38  H   UNL     1      31.163 -21.391 -16.748  0.00  0.00    +0.145 HD
ENDBRANCH  33  36
ENDBRANCH   5  33
TORSDOF 5
ENDMDL
