MODEL 1
REMARK VINA RESULT:     -12.0      0.000      0.000
REMARK  Name = 25195365
REMARK  5 active torsions:
REMARK  status: ('A' for Active; 'I' for Inactive)
REMARK    1  A    between atoms: C_1  and  C_3
REMARK    2  A    between atoms: C_1  and  C_17
REMARK    3  A    between atoms: C_4  and  C_9
REMARK    4  A    between atoms: C_6  and  O_15
REMARK    5  A    between atoms: C_18  and  C_23
REMARK                            x       y       z     vdW  Elec       q    Type
REMARK                         _______ _______ _______ _____ _____    ______ ____
ROOT
ATOM      1  C   UNL     1      33.163 -22.526 -17.138  0.00  0.00    +0.086 C 
ATOM      2  C   UNL     1      31.779 -22.230 -16.530  0.00  0.00    +0.019 C 
ENDROOT
BRANCH   1   3
ATOM      3  C   UNL     1      33.577 -21.516 -18.154  0.00  0.00    -0.007 C 
ATOM      4  C   UNL     1      34.349 -19.625 -20.054  0.00  0.00    +0.034 C 
ATOM      5  C   UNL     1      34.916 -21.414 -18.532  0.00  0.00    +0.034 C 
ATOM      6  C   UNL     1      35.302 -20.469 -19.483  0.00  0.00    +0.138 C 
ATOM      7  C   UNL     1      32.625 -20.671 -18.725  0.00  0.00    -0.003 C 
ATOM      8  C   UNL     1      33.011 -19.727 -19.675  0.00  0.00    +0.003 C 
BRANCH   4   9
ATOM      9  C   UNL     1      34.729 -18.637 -21.041  0.00  0.00    +0.003 C 
ATOM     10  C   UNL     1      35.226 -17.399 -20.633  0.00  0.00    +0.000 C 
ATOM     11  C   UNL     1      34.599 -18.922 -22.400  0.00  0.00    +0.000 C 
ATOM     12  C   UNL     1      35.592 -16.447 -21.584  0.00  0.00    +0.000 C 
ATOM     13  C   UNL     1      34.965 -17.970 -23.351  0.00  0.00    +0.000 C 
ATOM     14  C   UNL     1      35.462 -16.732 -22.942  0.00  0.00    +0.000 C 
ENDBRANCH   4   9
BRANCH   6  15
ATOM     15  O   UNL     1      36.617 -20.392 -19.835  0.00  0.00    -0.471 OA
ATOM     16  C   UNL     1      37.470 -19.622 -18.991  0.00  0.00    +0.252 C 
ENDBRANCH   6  15
ENDBRANCH   1   3
BRANCH   1  17
ATOM     17  C   UNL     1      34.163 -22.671 -16.048  0.00  0.00    -0.087 C 
ATOM     18  C   UNL     1      34.954 -22.786 -15.151  0.00  0.00    -0.076 C 
BRANCH  18  23
ATOM     19  N   UNL     1      38.122 -22.633 -13.223  0.00  0.00    -0.336 NA
ATOM     20  N   UNL     1      36.415 -23.617 -11.835  0.00  0.00    -0.317 NA
ATOM     21  N   UNL     1      34.218 -23.915 -12.658  0.00  0.00    -0.334 N 
ATOM     22  N   UNL     1      38.599 -23.316 -11.029  0.00  0.00    -0.283 N 
ATOM     23  C   UNL     1      35.892 -22.927 -14.080  0.00  0.00    +0.179 C 
ATOM     24  C   UNL     1      37.204 -22.520 -14.205  0.00  0.00    +0.120 C 
ATOM     25  C   UNL     1      35.550 -23.474 -12.860  0.00  0.00    +0.186 C 
ATOM     26  C   UNL     1      37.702 -21.912 -15.477  0.00  0.00    +0.064 C 
ATOM     27  C   UNL     1      37.665 -23.182 -12.081  0.00  0.00    +0.196 C 
ATOM     28  H   UNL     1      33.955 -24.308 -11.795  0.00  0.00    +0.144 HD
ATOM     29  H   UNL     1      33.556 -23.828 -13.382  0.00  0.00    +0.144 HD
ATOM     30  H   UNL     1      39.527 -23.014 -11.154  0.00  0.00    +0.156 HD
ATOM     31  H   UNL     1      38.320 -23.710 -10.171  0.00  0.00    +0.156 HD
ENDBRANCH  18  23
ENDBRANCH   1  17
TORSDOF 5
ENDMDL
MODEL 2
REMARK VINA RESULT:     -11.2      4.509      7.141
REMARK  Name = 25195365
REMARK  5 active torsions:
REMARK  status: ('A' for Active; 'I' for Inactive)
REMARK    1  A    between atoms: C_1  and  C_3
REMARK    2  A    between atoms: C_1  and  C_17
REMARK    3  A    between atoms: C_4  and  C_9
REMARK    4  A    between atoms: C_6  and  O_15
REMARK    5  A    between atoms: C_18  and  C_23
REMARK                            x       y       z     vdW  Elec       q    Type
REMARK                         _______ _______ _______ _____ _____    ______ ____
ROOT
ATOM      1  C   UNL     1      35.904 -17.133 -21.824  0.00  0.00    +0.086 C 
ATOM      2  C   UNL     1      35.828 -17.623 -23.283  0.00  0.00    +0.019 C 
ENDROOT
BRANCH   1   3
ATOM      3  C   UNL     1      35.134 -15.877 -21.595  0.00  0.00    -0.007 C 
ATOM      4  C   UNL     1      33.692 -13.528 -21.165  0.00  0.00    +0.034 C 
ATOM      5  C   UNL     1      34.616 -15.168 -22.679  0.00  0.00    +0.034 C 
ATOM      6  C   UNL     1      33.895 -13.993 -22.464  0.00  0.00    +0.138 C 
ATOM      7  C   UNL     1      34.931 -15.411 -20.296  0.00  0.00    -0.003 C 
ATOM      8  C   UNL     1      34.210 -14.237 -20.081  0.00  0.00    +0.003 C 
BRANCH   4   9
ATOM      9  C   UNL     1      32.948 -12.311 -20.920  0.00  0.00    +0.003 C 
ATOM     10  C   UNL     1      33.043 -11.243 -21.813  0.00  0.00    +0.000 C 
ATOM     11  C   UNL     1      32.136 -12.205 -19.791  0.00  0.00    +0.000 C 
ATOM     12  C   UNL     1      32.326 -10.071 -21.577  0.00  0.00    +0.000 C 
ATOM     13  C   UNL     1      31.419 -11.032 -19.555  0.00  0.00    +0.000 C 
ATOM     14  C   UNL     1      31.514  -9.965 -20.448  0.00  0.00    +0.000 C 
ENDBRANCH   4   9
BRANCH   6  15
ATOM     15  O   UNL     1      33.399 -13.321 -23.542  0.00  0.00    -0.471 OA
ATOM     16  C   UNL     1      33.612 -13.907 -24.824  0.00  0.00    +0.252 C 
ENDBRANCH   6  15
ENDBRANCH   1   3
BRANCH   1  17
ATOM     17  C   UNL     1      35.483 -18.227 -20.910  0.00  0.00    -0.087 C 
ATOM     18  C   UNL     1      35.121 -19.110 -20.180  0.00  0.00    -0.076 C 
BRANCH  18  23
ATOM     19  N   UNL     1      35.210 -21.885 -17.717  0.00  0.00    -0.336 NA
ATOM     20  N   UNL     1      32.924 -21.515 -18.388  0.00  0.00    -0.317 NA
ATOM     21  N   UNL     1      32.388 -19.829 -19.957  0.00  0.00    -0.334 N 
ATOM     22  N   UNL     1      33.469 -23.184 -16.830  0.00  0.00    -0.283 N 
ATOM     23  C   UNL     1      34.686 -20.163 -19.316  0.00  0.00    +0.179 C 
ATOM     24  C   UNL     1      35.574 -20.884 -18.546  0.00  0.00    +0.120 C 
ATOM     25  C   UNL     1      33.360 -20.526 -19.195  0.00  0.00    +0.186 C 
ATOM     26  C   UNL     1      37.040 -20.591 -18.585  0.00  0.00    +0.064 C 
ATOM     27  C   UNL     1      33.888 -22.143 -17.687  0.00  0.00    +0.196 C 
ATOM     28  H   UNL     1      31.438 -20.074 -19.884  0.00  0.00    +0.144 HD
ATOM     29  H   UNL     1      32.666 -19.101 -20.559  0.00  0.00    +0.144 HD
ATOM     30  H   UNL     1      34.131 -23.677 -16.295  0.00  0.00    +0.156 HD
ATOM     31  H   UNL     1      32.514 -23.416 -16.768  0.00  0.00    +0.156 HD
ENDBRANCH  18  23
ENDBRANCH   1  17
TORSDOF 5
ENDMDL
MODEL 3
REMARK VINA RESULT:     -10.7      4.371      7.264
REMARK  Name = 25195365
REMARK  5 active torsions:
REMARK  status: ('A' for Active; 'I' for Inactive)
REMARK    1  A    between atoms: C_1  and  C_3
REMARK    2  A    between atoms: C_1  and  C_17
REMARK    3  A    between atoms: C_4  and  C_9
REMARK    4  A    between atoms: C_6  and  O_15
REMARK    5  A    between atoms: C_18  and  C_23
REMARK                            x       y       z     vdW  Elec       q    Type
REMARK                         _______ _______ _______ _____ _____    ______ ____
ROOT
ATOM      1  C   UNL     1      35.048 -17.660 -23.626  0.00  0.00    +0.086 C 
ATOM      2  C   UNL     1      34.208 -18.321 -24.736  0.00  0.00    +0.019 C 
ENDROOT
BRANCH   1   3
ATOM      3  C   UNL     1      34.696 -16.227 -23.411  0.00  0.00    -0.007 C 
ATOM      4  C   UNL     1      34.039 -13.546 -23.011  0.00  0.00    +0.034 C 
ATOM      5  C   UNL     1      34.959 -15.621 -22.183  0.00  0.00    +0.034 C 
ATOM      6  C   UNL     1      34.630 -14.280 -21.982  0.00  0.00    +0.138 C 
ATOM      7  C   UNL     1      34.105 -15.493 -24.439  0.00  0.00    -0.003 C 
ATOM      8  C   UNL     1      33.777 -14.152 -24.239  0.00  0.00    +0.003 C 
BRANCH   4   9
ATOM      9  C   UNL     1      33.689 -12.154 -22.823  0.00  0.00    +0.003 C 
ATOM     10  C   UNL     1      34.322 -11.168 -23.581  0.00  0.00    +0.000 C 
ATOM     11  C   UNL     1      32.719 -11.799 -21.887  0.00  0.00    +0.000 C 
ATOM     12  C   UNL     1      33.985  -9.827 -23.401  0.00  0.00    +0.000 C 
ATOM     13  C   UNL     1      32.382 -10.457 -21.707  0.00  0.00    +0.000 C 
ATOM     14  C   UNL     1      33.015  -9.472 -22.464  0.00  0.00    +0.000 C 
ENDBRANCH   4   9
BRANCH   6  15
ATOM     15  O   UNL     1      34.899 -13.712 -20.772  0.00  0.00    -0.471 OA
ATOM     16  C   UNL     1      34.933 -14.582 -19.642  0.00  0.00    +0.252 C 
ENDBRANCH   6  15
ENDBRANCH   1   3
BRANCH   1  17
ATOM     17  C   UNL     1      34.938 -18.460 -22.378  0.00  0.00    -0.087 C 
ATOM     18  C   UNL     1      34.828 -19.112 -21.375  0.00  0.00    -0.076 C 
BRANCH  18  23
ATOM     19  N   UNL     1      35.710 -21.032 -18.324  0.00  0.00    -0.336 NA
ATOM     20  N   UNL     1      33.313 -21.025 -18.571  0.00  0.00    -0.317 NA
ATOM     21  N   UNL     1      32.293 -19.912 -20.391  0.00  0.00    -0.334 N 
ATOM     22  N   UNL     1      34.337 -22.126 -16.768  0.00  0.00    -0.283 N 
ATOM     23  C   UNL     1      34.693 -19.892 -20.184  0.00  0.00    +0.179 C 
ATOM     24  C   UNL     1      35.790 -20.296 -19.452  0.00  0.00    +0.120 C 
ATOM     25  C   UNL     1      33.467 -20.290 -19.691  0.00  0.00    +0.186 C 
ATOM     26  C   UNL     1      37.176 -19.932 -19.879  0.00  0.00    +0.064 C 
ATOM     27  C   UNL     1      34.459 -21.356 -17.946  0.00  0.00    +0.196 C 
ATOM     28  H   UNL     1      31.410 -20.186 -20.055  0.00  0.00    +0.144 HD
ATOM     29  H   UNL     1      32.363 -19.375 -21.214  0.00  0.00    +0.144 HD
ATOM     30  H   UNL     1      35.141 -22.396 -16.271  0.00  0.00    +0.156 HD
ATOM     31  H   UNL     1      33.445 -22.392 -16.444  0.00  0.00    +0.156 HD
ENDBRANCH  18  23
ENDBRANCH   1  17
TORSDOF 5
ENDMDL
MODEL 4
REMARK VINA RESULT:     -10.7      4.491      7.624
REMARK  Name = 25195365
REMARK  5 active torsions:
REMARK  status: ('A' for Active; 'I' for Inactive)
REMARK    1  A    between atoms: C_1  and  C_3
REMARK    2  A    between atoms: C_1  and  C_17
REMARK    3  A    between atoms: C_4  and  C_9
REMARK    4  A    between atoms: C_6  and  O_15
REMARK    5  A    between atoms: C_18  and  C_23
REMARK                            x       y       z     vdW  Elec       q    Type
REMARK                         _______ _______ _______ _____ _____    ______ ____
ROOT
ATOM      1  C   UNL     1      34.835 -17.395 -23.908  0.00  0.00    +0.086 C 
ATOM      2  C   UNL     1      33.774 -18.076 -24.793  0.00  0.00    +0.019 C 
ENDROOT
BRANCH   1   3
ATOM      3  C   UNL     1      34.552 -15.949 -23.676  0.00  0.00    -0.007 C 
ATOM      4  C   UNL     1      34.022 -13.245 -23.243  0.00  0.00    +0.034 C 
ATOM      5  C   UNL     1      34.926 -15.349 -22.473  0.00  0.00    +0.034 C 
ATOM      6  C   UNL     1      34.661 -13.997 -22.256  0.00  0.00    +0.138 C 
ATOM      7  C   UNL     1      33.913 -15.197 -24.661  0.00  0.00    -0.003 C 
ATOM      8  C   UNL     1      33.648 -13.845 -24.445  0.00  0.00    +0.003 C 
BRANCH   4   9
ATOM      9  C   UNL     1      33.737 -11.841 -23.038  0.00  0.00    +0.003 C 
ATOM     10  C   UNL     1      34.388 -10.877 -23.809  0.00  0.00    +0.000 C 
ATOM     11  C   UNL     1      32.812 -11.451 -22.069  0.00  0.00    +0.000 C 
ATOM     12  C   UNL     1      34.112  -9.524 -23.613  0.00  0.00    +0.000 C 
ATOM     13  C   UNL     1      32.538 -10.097 -21.873  0.00  0.00    +0.000 C 
ATOM     14  C   UNL     1      33.188  -9.135 -22.644  0.00  0.00    +0.000 C 
ENDBRANCH   4   9
BRANCH   6  15
ATOM     15  O   UNL     1      35.039 -13.435 -21.073  0.00  0.00    -0.471 OA
ATOM     16  C   UNL     1      34.903 -14.240 -19.903  0.00  0.00    +0.252 C 
ENDBRANCH   6  15
ENDBRANCH   1   3
BRANCH   1  17
ATOM     17  C   UNL     1      34.981 -18.151 -22.637  0.00  0.00    -0.087 C 
ATOM     18  C   UNL     1      35.122 -18.768 -21.616  0.00  0.00    -0.076 C 
BRANCH  18  23
ATOM     19  N   UNL     1      34.349 -20.800 -18.608  0.00  0.00    -0.336 NA
ATOM     20  N   UNL     1      36.715 -20.339 -18.647  0.00  0.00    -0.317 NA
ATOM     21  N   UNL     1      37.664 -19.063 -20.398  0.00  0.00    -0.334 N 
ATOM     22  N   UNL     1      35.761 -21.605 -16.915  0.00  0.00    -0.283 N 
ATOM     23  C   UNL     1      35.295 -19.500 -20.399  0.00  0.00    +0.179 C 
ATOM     24  C   UNL     1      34.233 -20.101 -19.756  0.00  0.00    +0.120 C 
ATOM     25  C   UNL     1      36.524 -19.654 -19.793  0.00  0.00    +0.186 C 
ATOM     26  C   UNL     1      32.847 -20.008 -20.309  0.00  0.00    +0.064 C 
ATOM     27  C   UNL     1      35.600 -20.879 -18.116  0.00  0.00    +0.196 C 
ATOM     28  H   UNL     1      38.549 -19.162 -19.980  0.00  0.00    +0.144 HD
ATOM     29  H   UNL     1      37.567 -18.554 -21.235  0.00  0.00    +0.144 HD
ATOM     30  H   UNL     1      34.981 -22.020 -16.484  0.00  0.00    +0.156 HD
ATOM     31  H   UNL     1      36.655 -21.695 -16.511  0.00  0.00    +0.156 HD
ENDBRANCH  18  23
ENDBRANCH   1  17
TORSDOF 5
ENDMDL
MODEL 5
REMARK VINA RESULT:     -10.4      8.539     12.232
REMARK  Name = 25195365
REMARK  5 active torsions:
REMARK  status: ('A' for Active; 'I' for Inactive)
REMARK    1  A    between atoms: C_1  and  C_3
REMARK    2  A    between atoms: C_1  and  C_17
REMARK    3  A    between atoms: C_4  and  C_9
REMARK    4  A    between atoms: C_6  and  O_15
REMARK    5  A    between atoms: C_18  and  C_23
REMARK                            x       y       z     vdW  Elec       q    Type
REMARK                         _______ _______ _______ _____ _____    ______ ____
ROOT
ATOM      1  C   UNL     1      34.386 -11.101 -24.310  0.00  0.00    +0.086 C 
ATOM      2  C   UNL     1      33.408 -11.331 -25.478  0.00  0.00    +0.019 C 
ENDROOT
BRANCH   1   3
ATOM      3  C   UNL     1      33.973  -9.978 -23.422  0.00  0.00    -0.007 C 
ATOM      4  C   UNL     1      33.202  -7.875 -21.759  0.00  0.00    +0.034 C 
ATOM      5  C   UNL     1      32.887 -10.132 -22.560  0.00  0.00    +0.034 C 
ATOM      6  C   UNL     1      32.501  -9.080 -21.728  0.00  0.00    +0.138 C 
ATOM      7  C   UNL     1      34.673  -8.771 -23.452  0.00  0.00    -0.003 C 
ATOM      8  C   UNL     1      34.288  -7.720 -22.621  0.00  0.00    +0.003 C 
BRANCH   4   9
ATOM      9  C   UNL     1      32.818  -6.771 -20.906  0.00  0.00    +0.003 C 
ATOM     10  C   UNL     1      33.124  -6.801 -19.545  0.00  0.00    +0.000 C 
ATOM     11  C   UNL     1      32.141  -5.675 -21.444  0.00  0.00    +0.000 C 
ATOM     12  C   UNL     1      32.754  -5.737 -18.723  0.00  0.00    +0.000 C 
ATOM     13  C   UNL     1      31.771  -4.611 -20.621  0.00  0.00    +0.000 C 
ATOM     14  C   UNL     1      32.078  -4.643 -19.261  0.00  0.00    +0.000 C 
ENDBRANCH   4   9
BRANCH   6  15
ATOM     15  O   UNL     1      31.437  -9.259 -20.895  0.00  0.00    -0.471 OA
ATOM     16  C   UNL     1      31.342 -10.516 -20.228  0.00  0.00    +0.252 C 
ENDBRANCH   6  15
ENDBRANCH   1   3
BRANCH   1  17
ATOM     17  C   UNL     1      34.572 -12.372 -23.562  0.00  0.00    -0.087 C 
ATOM     18  C   UNL     1      34.746 -13.397 -22.959  0.00  0.00    -0.076 C 
BRANCH  18  23
ATOM     19  N   UNL     1      35.073 -15.790 -20.142  0.00  0.00    -0.336 NA
ATOM     20  N   UNL     1      35.454 -16.968 -22.210  0.00  0.00    -0.317 NA
ATOM     21  N   UNL     1      35.345 -15.831 -24.281  0.00  0.00    -0.334 N 
ATOM     22  N   UNL     1      35.558 -18.086 -20.149  0.00  0.00    -0.283 N 
ATOM     23  C   UNL     1      34.958 -14.614 -22.239  0.00  0.00    +0.179 C 
ATOM     24  C   UNL     1      34.881 -14.666 -20.862  0.00  0.00    +0.120 C 
ATOM     25  C   UNL     1      35.250 -15.807 -22.866  0.00  0.00    +0.186 C 
ATOM     26  C   UNL     1      34.572 -13.441 -20.063  0.00  0.00    +0.064 C 
ATOM     27  C   UNL     1      35.351 -16.889 -20.869  0.00  0.00    +0.196 C 
ATOM     28  H   UNL     1      35.553 -16.673 -24.746  0.00  0.00    +0.144 HD
ATOM     29  H   UNL     1      35.203 -15.005 -24.797  0.00  0.00    +0.144 HD
ATOM     30  H   UNL     1      35.495 -18.086 -19.167  0.00  0.00    +0.156 HD
ATOM     31  H   UNL     1      35.764 -18.921 -20.629  0.00  0.00    +0.156 HD
ENDBRANCH  18  23
ENDBRANCH   1  17
TORSDOF 5
ENDMDL
MODEL 6
REMARK VINA RESULT:     -10.3      7.052     10.998
REMARK  Name = 25195365
REMARK  5 active torsions:
REMARK  status: ('A' for Active; 'I' for Inactive)
REMARK    1  A    between atoms: C_1  and  C_3
REMARK    2  A    between atoms: C_1  and  C_17
REMARK    3  A    between atoms: C_4  and  C_9
REMARK    4  A    between atoms: C_6  and  O_15
REMARK    5  A    between atoms: C_18  and  C_23
REMARK                            x       y       z     vdW  Elec       q    Type
REMARK                         _______ _______ _______ _____ _____    ______ ____
ROOT
ATOM      1  C   UNL     1      34.332 -15.245 -24.437  0.00  0.00    +0.086 C 
ATOM      2  C   UNL     1      35.523 -15.040 -25.393  0.00  0.00    +0.019 C 
ENDROOT
BRANCH   1   3
ATOM      3  C   UNL     1      34.601 -16.271 -23.390  0.00  0.00    -0.007 C 
ATOM      4  C   UNL     1      35.104 -18.192 -21.430  0.00  0.00    +0.034 C 
ATOM      5  C   UNL     1      34.934 -15.875 -22.094  0.00  0.00    +0.034 C 
ATOM      6  C   UNL     1      35.186 -16.836 -21.114  0.00  0.00    +0.138 C 
ATOM      7  C   UNL     1      34.521 -17.628 -23.705  0.00  0.00    -0.003 C 
ATOM      8  C   UNL     1      34.771 -18.588 -22.726  0.00  0.00    +0.003 C 
BRANCH   4   9
ATOM      9  C   UNL     1      35.362 -19.205 -20.429  0.00  0.00    +0.003 C 
ATOM     10  C   UNL     1      34.300 -19.901 -19.851  0.00  0.00    +0.000 C 
ATOM     11  C   UNL     1      36.673 -19.486 -20.042  0.00  0.00    +0.000 C 
ATOM     12  C   UNL     1      34.549 -20.877 -18.887  0.00  0.00    +0.000 C 
ATOM     13  C   UNL     1      36.921 -20.462 -19.077  0.00  0.00    +0.000 C 
ATOM     14  C   UNL     1      35.859 -21.157 -18.500  0.00  0.00    +0.000 C 
ENDBRANCH   4   9
BRANCH   6  15
ATOM     15  O   UNL     1      35.508 -16.421 -19.856  0.00  0.00    -0.471 OA
ATOM     16  C   UNL     1      35.031 -15.138 -19.456  0.00  0.00    +0.252 C 
ENDBRANCH   6  15
ENDBRANCH   1   3
BRANCH   1  17
ATOM     17  C   UNL     1      33.933 -13.937 -23.856  0.00  0.00    -0.087 C 
ATOM     18  C   UNL     1      33.631 -12.877 -23.377  0.00  0.00    -0.076 C 
BRANCH  18  23
ATOM     19  N   UNL     1      33.361  -9.209 -22.884  0.00  0.00    -0.336 NA
ATOM     20  N   UNL     1      32.183 -10.320 -21.100  0.00  0.00    -0.317 NA
ATOM     21  N   UNL     1      32.090 -12.682 -21.006  0.00  0.00    -0.334 N 
ATOM     22  N   UNL     1      32.282  -7.977 -21.204  0.00  0.00    -0.283 N 
ATOM     23  C   UNL     1      33.278 -11.613 -22.808  0.00  0.00    +0.179 C 
ATOM     24  C   UNL     1      33.670 -10.423 -23.385  0.00  0.00    +0.120 C 
ATOM     25  C   UNL     1      32.529 -11.500 -21.656  0.00  0.00    +0.186 C 
ATOM     26  C   UNL     1      34.487 -10.407 -24.637  0.00  0.00    +0.064 C 
ATOM     27  C   UNL     1      32.625  -9.231 -21.757  0.00  0.00    +0.196 C 
ATOM     28  H   UNL     1      31.554 -12.621 -20.183  0.00  0.00    +0.144 HD
ATOM     29  H   UNL     1      32.322 -13.563 -21.380  0.00  0.00    +0.144 HD
ATOM     30  H   UNL     1      32.579  -7.149 -21.642  0.00  0.00    +0.156 HD
ATOM     31  H   UNL     1      31.744  -7.934 -20.379  0.00  0.00    +0.156 HD
ENDBRANCH  18  23
ENDBRANCH   1  17
TORSDOF 5
ENDMDL
MODEL 7
REMARK VINA RESULT:     -10.1      5.174      8.455
REMARK  Name = 25195365
REMARK  5 active torsions:
REMARK  status: ('A' for Active; 'I' for Inactive)
REMARK    1  A    between atoms: C_1  and  C_3
REMARK    2  A    between atoms: C_1  and  C_17
REMARK    3  A    between atoms: C_4  and  C_9
REMARK    4  A    between atoms: C_6  and  O_15
REMARK    5  A    between atoms: C_18  and  C_23
REMARK                            x       y       z     vdW  Elec       q    Type
REMARK                         _______ _______ _______ _____ _____    ______ ____
ROOT
ATOM      1  C   UNL     1      34.711 -16.765 -24.123  0.00  0.00    +0.086 C 
ATOM      2  C   UNL     1      33.518 -17.440 -24.826  0.00  0.00    +0.019 C 
ENDROOT
BRANCH   1   3
ATOM      3  C   UNL     1      34.475 -15.320 -23.840  0.00  0.00    -0.007 C 
ATOM      4  C   UNL     1      34.032 -12.618 -23.311  0.00  0.00    +0.034 C 
ATOM      5  C   UNL     1      33.950 -14.492 -24.832  0.00  0.00    +0.034 C 
ATOM      6  C   UNL     1      33.728 -13.140 -24.568  0.00  0.00    +0.138 C 
ATOM      7  C   UNL     1      34.779 -14.797 -22.584  0.00  0.00    -0.003 C 
ATOM      8  C   UNL     1      34.557 -13.446 -22.319  0.00  0.00    +0.003 C 
BRANCH   4   9
ATOM      9  C   UNL     1      33.811 -11.218 -23.015  0.00  0.00    +0.003 C 
ATOM     10  C   UNL     1      32.758 -10.838 -22.183  0.00  0.00    +0.000 C 
ATOM     11  C   UNL     1      34.652 -10.248 -23.562  0.00  0.00    +0.000 C 
ATOM     12  C   UNL     1      32.546  -9.490 -21.898  0.00  0.00    +0.000 C 
ATOM     13  C   UNL     1      34.439  -8.900 -23.277  0.00  0.00    +0.000 C 
ATOM     14  C   UNL     1      33.386  -8.521 -22.445  0.00  0.00    +0.000 C 
ENDBRANCH   4   9
BRANCH   6  15
ATOM     15  O   UNL     1      33.213 -12.354 -25.555  0.00  0.00    -0.471 OA
ATOM     16  C   UNL     1      34.052 -12.092 -26.678  0.00  0.00    +0.252 C 
ENDBRANCH   6  15
ENDBRANCH   1   3
BRANCH   1  17
ATOM     17  C   UNL     1      35.061 -17.529 -22.896  0.00  0.00    -0.087 C 
ATOM     18  C   UNL     1      35.330 -18.164 -21.913  0.00  0.00    -0.076 C 
BRANCH  18  23
ATOM     19  N   UNL     1      34.944 -20.357 -18.944  0.00  0.00    -0.336 NA
ATOM     20  N   UNL     1      37.260 -19.721 -19.143  0.00  0.00    -0.317 NA
ATOM     21  N   UNL     1      37.975 -18.315 -20.905  0.00  0.00    -0.334 N 
ATOM     22  N   UNL     1      36.538 -21.116 -17.399  0.00  0.00    -0.283 N 
ATOM     23  C   UNL     1      35.651 -18.925 -20.745  0.00  0.00    +0.179 C 
ATOM     24  C   UNL     1      34.688 -19.626 -20.049  0.00  0.00    +0.120 C 
ATOM     25  C   UNL     1      36.932 -19.010 -20.241  0.00  0.00    +0.186 C 
ATOM     26  C   UNL     1      33.259 -19.616 -20.490  0.00  0.00    +0.064 C 
ATOM     27  C   UNL     1      36.232 -20.361 -18.552  0.00  0.00    +0.196 C 
ATOM     28  H   UNL     1      38.895 -18.363 -20.560  0.00  0.00    +0.144 HD
ATOM     29  H   UNL     1      37.777 -17.784 -21.710  0.00  0.00    +0.144 HD
ATOM     30  H   UNL     1      35.826 -21.604 -16.927  0.00  0.00    +0.156 HD
ATOM     31  H   UNL     1      37.465 -21.155 -17.067  0.00  0.00    +0.156 HD
ENDBRANCH  18  23
ENDBRANCH   1  17
TORSDOF 5
ENDMDL
MODEL 8
REMARK VINA RESULT:     -10.1      4.684      8.657
REMARK  Name = 25195365
REMARK  5 active torsions:
REMARK  status: ('A' for Active; 'I' for Inactive)
REMARK    1  A    between atoms: C_1  and  C_3
REMARK    2  A    between atoms: C_1  and  C_17
REMARK    3  A    between atoms: C_4  and  C_9
REMARK    4  A    between atoms: C_6  and  O_15
REMARK    5  A    between atoms: C_18  and  C_23
REMARK                            x       y       z     vdW  Elec       q    Type
REMARK                         _______ _______ _______ _____ _____    ______ ____
ROOT
ATOM      1  C   UNL     1      36.486 -21.466 -17.337  0.00  0.00    +0.086 C 
ATOM      2  C   UNL     1      37.381 -20.761 -16.299  0.00  0.00    +0.019 C 
ENDROOT
BRANCH   1   3
ATOM      3  C   UNL     1      35.192 -21.934 -16.762  0.00  0.00    -0.007 C 
ATOM      4  C   UNL     1      32.772 -22.809 -15.687  0.00  0.00    +0.034 C 
ATOM      5  C   UNL     1      35.129 -22.349 -15.431  0.00  0.00    +0.034 C 
ATOM      6  C   UNL     1      33.919 -22.787 -14.894  0.00  0.00    +0.138 C 
ATOM      7  C   UNL     1      34.045 -21.958 -17.554  0.00  0.00    -0.003 C 
ATOM      8  C   UNL     1      32.835 -22.395 -17.017  0.00  0.00    +0.003 C 
BRANCH   4   9
ATOM      9  C   UNL     1      31.506 -23.261 -15.150  0.00  0.00    +0.003 C 
ATOM     10  C   UNL     1      30.329 -22.587 -15.476  0.00  0.00    +0.000 C 
ATOM     11  C   UNL     1      31.463 -24.371 -14.305  0.00  0.00    +0.000 C 
ATOM     12  C   UNL     1      29.109 -23.023 -14.959  0.00  0.00    +0.000 C 
ATOM     13  C   UNL     1      30.242 -24.805 -13.787  0.00  0.00    +0.000 C 
ATOM     14  C   UNL     1      29.066 -24.131 -14.115  0.00  0.00    +0.000 C 
ENDBRANCH   4   9
BRANCH   6  15
ATOM     15  O   UNL     1      33.885 -23.185 -13.590  0.00  0.00    -0.471 OA
ATOM     16  C   UNL     1      35.137 -23.467 -12.967  0.00  0.00    +0.252 C 
ENDBRANCH   6  15
ENDBRANCH   1   3
BRANCH   1  17
ATOM     17  C   UNL     1      36.291 -20.575 -18.510  0.00  0.00    -0.087 C 
ATOM     18  C   UNL     1      36.110 -19.856 -19.456  0.00  0.00    -0.076 C 
BRANCH  18  23
ATOM     19  N   UNL     1      34.383 -18.034 -22.189  0.00  0.00    -0.336 NA
ATOM     20  N   UNL     1      36.724 -17.464 -22.234  0.00  0.00    -0.317 NA
ATOM     21  N   UNL     1      38.222 -18.399 -20.661  0.00  0.00    -0.334 N 
ATOM     22  N   UNL     1      35.228 -16.542 -23.791  0.00  0.00    -0.283 N 
ATOM     23  C   UNL     1      35.890 -18.997 -20.578  0.00  0.00    +0.179 C 
ATOM     24  C   UNL     1      34.637 -18.833 -21.132  0.00  0.00    +0.120 C 
ATOM     25  C   UNL     1      36.905 -18.280 -21.176  0.00  0.00    +0.186 C 
ATOM     26  C   UNL     1      33.451 -19.554 -20.577  0.00  0.00    +0.064 C 
ATOM     27  C   UNL     1      35.456 -17.388 -22.683  0.00  0.00    +0.196 C 
ATOM     28  H   UNL     1      38.959 -17.895 -21.075  0.00  0.00    +0.144 HD
ATOM     29  H   UNL     1      38.396 -18.985 -19.889  0.00  0.00    +0.144 HD
ATOM     30  H   UNL     1      34.321 -16.449 -24.160  0.00  0.00    +0.156 HD
ATOM     31  H   UNL     1      35.977 -16.045 -24.192  0.00  0.00    +0.156 HD
ENDBRANCH  18  23
ENDBRANCH   1  17
TORSDOF 5
ENDMDL
MODEL 9
REMARK VINA RESULT:     -10.0     10.751     14.121
REMARK  Name = 25195365
REMARK  5 active torsions:
REMARK  status: ('A' for Active; 'I' for Inactive)
REMARK    1  A    between atoms: C_1  and  C_3
REMARK    2  A    between atoms: C_1  and  C_17
REMARK    3  A    between atoms: C_4  and  C_9
REMARK    4  A    between atoms: C_6  and  O_15
REMARK    5  A    between atoms: C_18  and  C_23
REMARK                            x       y       z     vdW  Elec       q    Type
REMARK                         _______ _______ _______ _____ _____    ______ ____
ROOT
ATOM      1  C   UNL     1      31.901 -10.166 -19.174  0.00  0.00    +0.086 C 
ATOM      2  C   UNL     1      30.462 -10.475 -18.719  0.00  0.00    +0.019 C 
ENDROOT
BRANCH   1   3
ATOM      3  C   UNL     1      32.420 -11.154 -20.163  0.00  0.00    -0.007 C 
ATOM      4  C   UNL     1      33.390 -13.004 -22.011  0.00  0.00    +0.034 C 
ATOM      5  C   UNL     1      32.886 -10.721 -21.404  0.00  0.00    +0.034 C 
ATOM      6  C   UNL     1      33.371 -11.646 -22.328  0.00  0.00    +0.138 C 
ATOM      7  C   UNL     1      32.438 -12.513 -19.846  0.00  0.00    -0.003 C 
ATOM      8  C   UNL     1      32.924 -13.437 -20.770  0.00  0.00    +0.003 C 
BRANCH   4   9
ATOM      9  C   UNL     1      33.888 -13.980 -22.956  0.00  0.00    +0.003 C 
ATOM     10  C   UNL     1      33.384 -14.013 -24.256  0.00  0.00    +0.000 C 
ATOM     11  C   UNL     1      34.873 -14.889 -22.567  0.00  0.00    +0.000 C 
ATOM     12  C   UNL     1      33.865 -14.953 -25.167  0.00  0.00    +0.000 C 
ATOM     13  C   UNL     1      35.353 -15.829 -23.478  0.00  0.00    +0.000 C 
ATOM     14  C   UNL     1      34.849 -15.861 -24.778  0.00  0.00    +0.000 C 
ENDBRANCH   4   9
BRANCH   6  15
ATOM     15  O   UNL     1      33.822 -11.195 -23.533  0.00  0.00    -0.471 OA
ATOM     16  C   UNL     1      33.843  -9.782 -23.729  0.00  0.00    +0.252 C 
ENDBRANCH   6  15
ENDBRANCH   1   3
BRANCH   1  17
ATOM     17  C   UNL     1      31.972  -8.771 -19.681  0.00  0.00    -0.087 C 
ATOM     18  C   UNL     1      32.011  -7.638 -20.079  0.00  0.00    -0.076 C 
BRANCH  18  23
ATOM     19  N   UNL     1      31.807  -4.706 -22.346  0.00  0.00    -0.336 NA
ATOM     20  N   UNL     1      32.419  -3.943 -20.144  0.00  0.00    -0.317 NA
ATOM     21  N   UNL     1      32.668  -5.480 -18.363  0.00  0.00    -0.334 N 
ATOM     22  N   UNL     1      32.168  -2.428 -21.919  0.00  0.00    -0.283 N 
ATOM     23  C   UNL     1      32.054  -6.287 -20.548  0.00  0.00    +0.179 C 
ATOM     24  C   UNL     1      31.778  -5.965 -21.861  0.00  0.00    +0.120 C 
ATOM     25  C   UNL     1      32.371  -5.225 -19.727  0.00  0.00    +0.186 C 
ATOM     26  C   UNL     1      31.421  -7.024 -22.854  0.00  0.00    +0.064 C 
ATOM     27  C   UNL     1      32.129  -3.758 -21.446  0.00  0.00    +0.196 C 
ATOM     28  H   UNL     1      32.896  -4.735 -17.762  0.00  0.00    +0.144 HD
ATOM     29  H   UNL     1      32.644  -6.402 -18.019  0.00  0.00    +0.144 HD
ATOM     30  H   UNL     1      31.966  -2.235 -22.861  0.00  0.00    +0.156 HD
ATOM     31  H   UNL     1      32.398  -1.694 -21.303  0.00  0.00    +0.156 HD
ENDBRANCH  18  23
ENDBRANCH   1  17
TORSDOF 5
ENDMDL
