MODEL 1
REMARK VINA RESULT:     -12.4      0.000      0.000
REMARK  Name = 445480
REMARK  5 active torsions:
REMARK  status: ('A' for Active; 'I' for Inactive)
REMARK    1  A    between atoms: N_2  and  C_21
REMARK    2  A    between atoms: C_3  and  N_7
REMARK    3  A    between atoms: N_7  and  S_9
REMARK    4  A    between atoms: S_9  and  C_14
REMARK    5  A    between atoms: C_21  and  C_24
REMARK                            x       y       z     vdW  Elec       q    Type
REMARK                         _______ _______ _______ _____ _____    ______ ____
ROOT
ATOM      1  O   UNL     1      36.794 -20.476 -19.286  0.00  0.00    -0.273 OA
ATOM      2  N   UNL     1      35.235 -19.298 -20.594  0.00  0.00    -0.274 N 
ATOM      3  C   UNL     1      34.419 -20.983 -19.206  0.00  0.00    +0.153 C 
ATOM      4  C   UNL     1      33.280 -20.049 -19.598  0.00  0.00    +0.048 C 
ATOM      5  C   UNL     1      33.810 -19.338 -20.829  0.00  0.00    +0.096 C 
ATOM      6  C   UNL     1      35.654 -20.244 -19.659  0.00  0.00    +0.242 C 
ENDROOT
BRANCH   3   7
ATOM      7  N   UNL     1      34.470 -21.172 -17.752  0.00  0.00    -0.171 NA
ATOM      8  H   UNL     1      35.448 -21.314 -17.499  0.00  0.00    +0.149 HD
BRANCH   7   9
ATOM      9  S   UNL     1      33.575 -22.467 -17.075  0.00  0.00    +0.066 S 
ATOM     10  O   UNL     1      33.826 -23.674 -17.840  0.00  0.00    -0.152 OA
ATOM     11  O   UNL     1      32.224 -22.018 -16.799  0.00  0.00    -0.152 OA
BRANCH   9  14
ATOM     12  S   UNL     1      35.879 -22.331 -15.288  0.00  0.00    -0.066 S 
ATOM     13  N   UNL     1      34.425 -23.845 -12.012  0.00  0.00    -0.243 NA
ATOM     14  C   UNL     1      34.255 -22.784 -15.446  0.00  0.00    +0.153 C 
ATOM     15  C   UNL     1      33.713 -23.315 -14.327  0.00  0.00    +0.046 C 
ATOM     16  C   UNL     1      34.664 -23.365 -13.264  0.00  0.00    +0.089 C 
ATOM     17  C   UNL     1      35.904 -22.855 -13.651  0.00  0.00    +0.048 C 
ATOM     18  C   UNL     1      36.966 -22.822 -12.735  0.00  0.00    +0.010 C 
ATOM     19  C   UNL     1      36.728 -23.310 -11.457  0.00  0.00    +0.021 C 
ATOM     20  C   UNL     1      35.468 -23.798 -11.160  0.00  0.00    +0.099 C 
ENDBRANCH   9  14
ENDBRANCH   7   9
ENDBRANCH   3   7
BRANCH   2  21
ATOM     21  C   UNL     1      36.106 -18.438 -21.366  0.00  0.00    +0.120 C 
BRANCH  21  24
ATOM     22  N   UNL     1      33.942 -13.175 -23.815  0.00  0.00    -0.230 NA
ATOM     23  N   UNL     1      34.545 -15.116 -25.004  0.00  0.00    -0.343 N 
ATOM     24  C   UNL     1      35.585 -17.028 -21.370  0.00  0.00    -0.002 C 
ATOM     25  C   UNL     1      35.251 -16.424 -22.575  0.00  0.00    +0.000 C 
ATOM     26  C   UNL     1      35.446 -16.347 -20.170  0.00  0.00    -0.003 C 
ATOM     27  C   UNL     1      34.766 -15.106 -22.587  0.00  0.00    +0.031 C 
ATOM     28  C   UNL     1      34.619 -14.401 -21.373  0.00  0.00    +0.004 C 
ATOM     29  C   UNL     1      34.965 -15.037 -20.168  0.00  0.00    -0.000 C 
ATOM     30  C   UNL     1      34.412 -14.442 -23.762  0.00  0.00    +0.125 C 
ATOM     31  C   UNL     1      34.134 -13.089 -21.406  0.00  0.00    +0.021 C 
ATOM     32  C   UNL     1      33.815 -12.533 -22.635  0.00  0.00    +0.100 C 
ATOM     33  H   UNL     1      34.301 -14.660 -25.841  0.00  0.00    +0.144 HD
ATOM     34  H   UNL     1      34.883 -16.041 -25.027  0.00  0.00    +0.144 HD
ENDBRANCH  21  24
ENDBRANCH   2  21
TORSDOF 5
ENDMDL
MODEL 2
REMARK VINA RESULT:     -11.9      0.901      1.695
REMARK  Name = 445480
REMARK  5 active torsions:
REMARK  status: ('A' for Active; 'I' for Inactive)
REMARK    1  A    between atoms: N_2  and  C_21
REMARK    2  A    between atoms: C_3  and  N_7
REMARK    3  A    between atoms: N_7  and  S_9
REMARK    4  A    between atoms: S_9  and  C_14
REMARK    5  A    between atoms: C_21  and  C_24
REMARK                            x       y       z     vdW  Elec       q    Type
REMARK                         _______ _______ _______ _____ _____    ______ ____
ROOT
ATOM      1  O   UNL     1      36.663 -20.205 -18.909  0.00  0.00    -0.273 OA
ATOM      2  N   UNL     1      35.306 -19.119 -20.494  0.00  0.00    -0.274 N 
ATOM      3  C   UNL     1      34.324 -20.795 -19.206  0.00  0.00    +0.153 C 
ATOM      4  C   UNL     1      33.237 -19.914 -19.810  0.00  0.00    +0.048 C 
ATOM      5  C   UNL     1      33.942 -19.217 -20.959  0.00  0.00    +0.096 C 
ATOM      6  C   UNL     1      35.593 -20.025 -19.473  0.00  0.00    +0.242 C 
ENDROOT
BRANCH   3   7
ATOM      7  N   UNL     1      34.139 -20.944 -17.758  0.00  0.00    -0.171 NA
ATOM      8  H   UNL     1      35.056 -20.841 -17.323  0.00  0.00    +0.149 HD
BRANCH   7   9
ATOM      9  S   UNL     1      33.461 -22.407 -17.177  0.00  0.00    +0.066 S 
ATOM     10  O   UNL     1      33.885 -23.502 -18.029  0.00  0.00    -0.152 OA
ATOM     11  O   UNL     1      32.060 -22.192 -16.869  0.00  0.00    -0.152 OA
BRANCH   9  14
ATOM     12  S   UNL     1      35.829 -22.277 -15.475  0.00  0.00    -0.066 S 
ATOM     13  N   UNL     1      34.498 -23.816 -12.159  0.00  0.00    -0.243 NA
ATOM     14  C   UNL     1      34.200 -22.733 -15.577  0.00  0.00    +0.153 C 
ATOM     15  C   UNL     1      33.701 -23.273 -14.443  0.00  0.00    +0.046 C 
ATOM     16  C   UNL     1      34.690 -23.327 -13.415  0.00  0.00    +0.089 C 
ATOM     17  C   UNL     1      35.914 -22.811 -13.843  0.00  0.00    +0.048 C 
ATOM     18  C   UNL     1      37.008 -22.781 -12.967  0.00  0.00    +0.010 C 
ATOM     19  C   UNL     1      36.818 -23.279 -11.684  0.00  0.00    +0.021 C 
ATOM     20  C   UNL     1      35.571 -23.772 -11.345  0.00  0.00    +0.099 C 
ENDBRANCH   9  14
ENDBRANCH   7   9
ENDBRANCH   3   7
BRANCH   2  21
ATOM     21  C   UNL     1      36.265 -18.248 -21.138  0.00  0.00    +0.120 C 
BRANCH  21  24
ATOM     22  N   UNL     1      33.901 -13.113 -23.671  0.00  0.00    -0.230 NA
ATOM     23  N   UNL     1      34.900 -13.281 -21.546  0.00  0.00    -0.343 N 
ATOM     24  C   UNL     1      35.593 -17.410 -22.189  0.00  0.00    -0.002 C 
ATOM     25  C   UNL     1      35.378 -16.059 -21.954  0.00  0.00    +0.000 C 
ATOM     26  C   UNL     1      35.195 -17.997 -23.381  0.00  0.00    -0.003 C 
ATOM     27  C   UNL     1      34.749 -15.269 -22.930  0.00  0.00    +0.031 C 
ATOM     28  C   UNL     1      34.339 -15.854 -24.147  0.00  0.00    +0.004 C 
ATOM     29  C   UNL     1      34.569 -17.224 -24.359  0.00  0.00    -0.000 C 
ATOM     30  C   UNL     1      34.503 -13.906 -22.756  0.00  0.00    +0.125 C 
ATOM     31  C   UNL     1      33.714 -15.051 -25.108  0.00  0.00    +0.021 C 
ATOM     32  C   UNL     1      33.523 -13.707 -24.823  0.00  0.00    +0.100 C 
ATOM     33  H   UNL     1      34.733 -12.321 -21.410  0.00  0.00    +0.144 HD
ATOM     34  H   UNL     1      35.344 -13.809 -20.843  0.00  0.00    +0.144 HD
ENDBRANCH  21  24
ENDBRANCH   2  21
TORSDOF 5
ENDMDL
MODEL 3
REMARK VINA RESULT:     -11.5      4.525     10.264
REMARK  Name = 445480
REMARK  5 active torsions:
REMARK  status: ('A' for Active; 'I' for Inactive)
REMARK    1  A    between atoms: N_2  and  C_21
REMARK    2  A    between atoms: C_3  and  N_7
REMARK    3  A    between atoms: N_7  and  S_9
REMARK    4  A    between atoms: S_9  and  C_14
REMARK    5  A    between atoms: C_21  and  C_24
REMARK                            x       y       z     vdW  Elec       q    Type
REMARK                         _______ _______ _______ _____ _____    ______ ____
ROOT
ATOM      1  O   UNL     1      35.666 -15.506 -20.522  0.00  0.00    -0.273 OA
ATOM      2  N   UNL     1      35.926 -17.205 -22.127  0.00  0.00    -0.274 N 
ATOM      3  C   UNL     1      34.673 -15.336 -22.733  0.00  0.00    +0.153 C 
ATOM      4  C   UNL     1      35.121 -16.077 -23.987  0.00  0.00    +0.048 C 
ATOM      5  C   UNL     1      35.474 -17.461 -23.475  0.00  0.00    +0.096 C 
ATOM      6  C   UNL     1      35.482 -15.979 -21.634  0.00  0.00    +0.242 C 
ENDROOT
BRANCH   3   7
ATOM      7  N   UNL     1      35.009 -13.910 -22.815  0.00  0.00    -0.171 NA
ATOM      8  H   UNL     1      35.220 -13.593 -21.868  0.00  0.00    +0.149 HD
BRANCH   7   9
ATOM      9  S   UNL     1      33.834 -12.840 -23.460  0.00  0.00    +0.066 S 
ATOM     10  O   UNL     1      32.749 -13.612 -24.035  0.00  0.00    -0.152 OA
ATOM     11  O   UNL     1      34.504 -11.801 -24.218  0.00  0.00    -0.152 OA
BRANCH   9  14
ATOM     12  S   UNL     1      32.794 -12.935 -20.734  0.00  0.00    -0.066 S 
ATOM     13  N   UNL     1      31.786  -9.223 -20.147  0.00  0.00    -0.243 NA
ATOM     14  C   UNL     1      33.111 -11.955 -22.078  0.00  0.00    +0.153 C 
ATOM     15  C   UNL     1      32.774 -10.656 -21.913  0.00  0.00    +0.046 C 
ATOM     16  C   UNL     1      32.222 -10.425 -20.618  0.00  0.00    +0.089 C 
ATOM     17  C   UNL     1      32.171 -11.594 -19.857  0.00  0.00    +0.048 C 
ATOM     18  C   UNL     1      31.658 -11.561 -18.552  0.00  0.00    +0.010 C 
ATOM     19  C   UNL     1      31.212 -10.339 -18.068  0.00  0.00    +0.021 C 
ATOM     20  C   UNL     1      31.299  -9.230 -18.890  0.00  0.00    +0.099 C 
ENDBRANCH   9  14
ENDBRANCH   7   9
ENDBRANCH   3   7
BRANCH   2  21
ATOM     21  C   UNL     1      36.651 -18.202 -21.370  0.00  0.00    +0.120 C 
BRANCH  21  24
ATOM     22  N   UNL     1      34.917 -22.147 -16.919  0.00  0.00    -0.230 NA
ATOM     23  N   UNL     1      37.107 -21.380 -17.321  0.00  0.00    -0.343 N 
ATOM     24  C   UNL     1      35.702 -19.043 -20.562  0.00  0.00    -0.002 C 
ATOM     25  C   UNL     1      36.188 -19.800 -19.504  0.00  0.00    +0.000 C 
ATOM     26  C   UNL     1      34.354 -19.055 -20.885  0.00  0.00    -0.003 C 
ATOM     27  C   UNL     1      35.308 -20.591 -18.746  0.00  0.00    +0.031 C 
ATOM     28  C   UNL     1      33.934 -20.611 -19.065  0.00  0.00    +0.004 C 
ATOM     29  C   UNL     1      33.470 -19.836 -20.140  0.00  0.00    -0.000 C 
ATOM     30  C   UNL     1      35.732 -21.374 -17.672  0.00  0.00    +0.125 C 
ATOM     31  C   UNL     1      33.073 -21.405 -18.298  0.00  0.00    +0.021 C 
ATOM     32  C   UNL     1      33.609 -22.141 -17.252  0.00  0.00    +0.100 C 
ATOM     33  H   UNL     1      37.420 -21.928 -16.565  0.00  0.00    +0.144 HD
ATOM     34  H   UNL     1      37.748 -20.836 -17.834  0.00  0.00    +0.144 HD
ENDBRANCH  21  24
ENDBRANCH   2  21
TORSDOF 5
ENDMDL
MODEL 4
REMARK VINA RESULT:     -11.4      5.522     11.660
REMARK  Name = 445480
REMARK  5 active torsions:
REMARK  status: ('A' for Active; 'I' for Inactive)
REMARK    1  A    between atoms: N_2  and  C_21
REMARK    2  A    between atoms: C_3  and  N_7
REMARK    3  A    between atoms: N_7  and  S_9
REMARK    4  A    between atoms: S_9  and  C_14
REMARK    5  A    between atoms: C_21  and  C_24
REMARK                            x       y       z     vdW  Elec       q    Type
REMARK                         _______ _______ _______ _____ _____    ______ ____
ROOT
ATOM      1  O   UNL     1      33.977 -14.138 -23.512  0.00  0.00    -0.273 OA
ATOM      2  N   UNL     1      34.864 -15.370 -21.716  0.00  0.00    -0.274 N 
ATOM      3  C   UNL     1      33.849 -13.331 -21.223  0.00  0.00    +0.153 C 
ATOM      4  C   UNL     1      33.933 -14.177 -19.958  0.00  0.00    +0.048 C 
ATOM      5  C   UNL     1      35.001 -15.204 -20.288  0.00  0.00    +0.096 C 
ATOM      6  C   UNL     1      34.205 -14.301 -22.323  0.00  0.00    +0.242 C 
ENDROOT
BRANCH   3   7
ATOM      7  N   UNL     1      32.485 -12.833 -21.436  0.00  0.00    -0.171 NA
ATOM      8  H   UNL     1      32.244 -13.013 -22.411  0.00  0.00    +0.149 HD
BRANCH   7   9
ATOM      9  S   UNL     1      32.175 -11.175 -21.132  0.00  0.00    +0.066 S 
ATOM     10  O   UNL     1      32.682 -10.826 -19.818  0.00  0.00    -0.152 OA
ATOM     11  O   UNL     1      30.811 -10.869 -21.518  0.00  0.00    -0.152 OA
BRANCH   9  14
ATOM     12  S   UNL     1      33.017  -8.555 -22.106  0.00  0.00    -0.066 S 
ATOM     13  N   UNL     1      35.448  -9.530 -24.983  0.00  0.00    -0.243 NA
ATOM     14  C   UNL     1      33.164 -10.232 -22.293  0.00  0.00    +0.153 C 
ATOM     15  C   UNL     1      34.001 -10.611 -23.284  0.00  0.00    +0.046 C 
ATOM     16  C   UNL     1      34.568  -9.480 -23.945  0.00  0.00    +0.089 C 
ATOM     17  C   UNL     1      34.115  -8.278 -23.400  0.00  0.00    +0.048 C 
ATOM     18  C   UNL     1      34.565  -7.056 -23.922  0.00  0.00    +0.010 C 
ATOM     19  C   UNL     1      35.462  -7.102 -24.981  0.00  0.00    +0.021 C 
ATOM     20  C   UNL     1      35.858  -8.338 -25.459  0.00  0.00    +0.099 C 
ENDBRANCH   9  14
ENDBRANCH   7   9
ENDBRANCH   3   7
BRANCH   2  21
ATOM     21  C   UNL     1      35.475 -16.482 -22.411  0.00  0.00    +0.120 C 
BRANCH  21  24
ATOM     22  N   UNL     1      34.020 -21.241 -18.721  0.00  0.00    -0.230 NA
ATOM     23  N   UNL     1      32.506 -19.924 -19.953  0.00  0.00    -0.343 N 
ATOM     24  C   UNL     1      35.725 -17.622 -21.463  0.00  0.00    -0.002 C 
ATOM     25  C   UNL     1      34.652 -18.361 -20.983  0.00  0.00    +0.000 C 
ATOM     26  C   UNL     1      37.024 -17.921 -21.080  0.00  0.00    -0.003 C 
ATOM     27  C   UNL     1      34.877 -19.427 -20.096  0.00  0.00    +0.031 C 
ATOM     28  C   UNL     1      36.194 -19.741 -19.697  0.00  0.00    +0.004 C 
ATOM     29  C   UNL     1      37.260 -18.977 -20.199  0.00  0.00    -0.000 C 
ATOM     30  C   UNL     1      33.844 -20.208 -19.576  0.00  0.00    +0.125 C 
ATOM     31  C   UNL     1      36.398 -20.807 -18.813  0.00  0.00    +0.021 C 
ATOM     32  C   UNL     1      35.293 -21.513 -18.363  0.00  0.00    +0.100 C 
ATOM     33  H   UNL     1      31.767 -20.466 -19.594  0.00  0.00    +0.144 HD
ATOM     34  H   UNL     1      32.317 -19.183 -20.573  0.00  0.00    +0.144 HD
ENDBRANCH  21  24
ENDBRANCH   2  21
TORSDOF 5
ENDMDL
MODEL 5
REMARK VINA RESULT:     -11.4      1.602      2.105
REMARK  Name = 445480
REMARK  5 active torsions:
REMARK  status: ('A' for Active; 'I' for Inactive)
REMARK    1  A    between atoms: N_2  and  C_21
REMARK    2  A    between atoms: C_3  and  N_7
REMARK    3  A    between atoms: N_7  and  S_9
REMARK    4  A    between atoms: S_9  and  C_14
REMARK    5  A    between atoms: C_21  and  C_24
REMARK                            x       y       z     vdW  Elec       q    Type
REMARK                         _______ _______ _______ _____ _____    ______ ____
ROOT
ATOM      1  O   UNL     1      34.087 -19.410 -21.127  0.00  0.00    -0.273 OA
ATOM      2  N   UNL     1      36.219 -18.419 -21.080  0.00  0.00    -0.274 N 
ATOM      3  C   UNL     1      35.723 -19.981 -19.423  0.00  0.00    +0.153 C 
ATOM      4  C   UNL     1      37.234 -19.807 -19.524  0.00  0.00    +0.048 C 
ATOM      5  C   UNL     1      37.392 -18.479 -20.239  0.00  0.00    +0.096 C 
ATOM      6  C   UNL     1      35.202 -19.271 -20.648  0.00  0.00    +0.242 C 
ENDROOT
BRANCH   3   7
ATOM      7  N   UNL     1      35.349 -21.399 -19.486  0.00  0.00    -0.171 NA
ATOM      8  H   UNL     1      35.013 -21.582 -20.432  0.00  0.00    +0.149 HD
BRANCH   7   9
ATOM      9  S   UNL     1      34.150 -21.966 -18.401  0.00  0.00    +0.066 S 
ATOM     10  O   UNL     1      33.733 -23.297 -18.801  0.00  0.00    -0.152 OA
ATOM     11  O   UNL     1      33.181 -20.912 -18.170  0.00  0.00    -0.152 OA
BRANCH   9  14
ATOM     12  S   UNL     1      33.925 -22.849 -15.627  0.00  0.00    -0.066 S 
ATOM     13  N   UNL     1      37.487 -22.077 -14.266  0.00  0.00    -0.243 NA
ATOM     14  C   UNL     1      34.938 -22.173 -16.804  0.00  0.00    +0.153 C 
ATOM     15  C   UNL     1      36.187 -21.890 -16.368  0.00  0.00    +0.046 C 
ATOM     16  C   UNL     1      36.347 -22.238 -14.994  0.00  0.00    +0.089 C 
ATOM     17  C   UNL     1      35.179 -22.779 -14.454  0.00  0.00    +0.048 C 
ATOM     18  C   UNL     1      35.147 -23.182 -13.111  0.00  0.00    +0.010 C 
ATOM     19  C   UNL     1      36.306 -23.019 -12.364  0.00  0.00    +0.021 C 
ATOM     20  C   UNL     1      37.419 -22.474 -12.979  0.00  0.00    +0.099 C 
ENDBRANCH   9  14
ENDBRANCH   7   9
ENDBRANCH   3   7
BRANCH   2  21
ATOM     21  C   UNL     1      36.113 -17.468 -22.165  0.00  0.00    +0.120 C 
BRANCH  21  24
ATOM     22  N   UNL     1      33.020 -12.135 -22.768  0.00  0.00    -0.230 NA
ATOM     23  N   UNL     1      33.787 -13.503 -24.524  0.00  0.00    -0.343 N 
ATOM     24  C   UNL     1      35.399 -16.226 -21.710  0.00  0.00    -0.002 C 
ATOM     25  C   UNL     1      34.879 -15.350 -22.653  0.00  0.00    +0.000 C 
ATOM     26  C   UNL     1      35.270 -15.970 -20.353  0.00  0.00    -0.003 C 
ATOM     27  C   UNL     1      34.213 -14.186 -22.235  0.00  0.00    +0.031 C 
ATOM     28  C   UNL     1      34.074 -13.914 -20.857  0.00  0.00    +0.004 C 
ATOM     29  C   UNL     1      34.610 -14.818 -19.925  0.00  0.00    -0.000 C 
ATOM     30  C   UNL     1      33.668 -13.265 -23.131  0.00  0.00    +0.125 C 
ATOM     31  C   UNL     1      33.407 -12.749 -20.461  0.00  0.00    +0.021 C 
ATOM     32  C   UNL     1      32.907 -11.907 -21.442  0.00  0.00    +0.100 C 
ATOM     33  H   UNL     1      33.408 -12.861 -25.168  0.00  0.00    +0.144 HD
ATOM     34  H   UNL     1      34.248 -14.310 -24.848  0.00  0.00    +0.144 HD
ENDBRANCH  21  24
ENDBRANCH   2  21
TORSDOF 5
ENDMDL
MODEL 6
REMARK VINA RESULT:     -11.3      2.111      2.505
REMARK  Name = 445480
REMARK  5 active torsions:
REMARK  status: ('A' for Active; 'I' for Inactive)
REMARK    1  A    between atoms: N_2  and  C_21
REMARK    2  A    between atoms: C_3  and  N_7
REMARK    3  A    between atoms: N_7  and  S_9
REMARK    4  A    between atoms: S_9  and  C_14
REMARK    5  A    between atoms: C_21  and  C_24
REMARK                            x       y       z     vdW  Elec       q    Type
REMARK                         _______ _______ _______ _____ _____    ______ ____
ROOT
ATOM      1  O   UNL     1      36.370 -19.818 -19.096  0.00  0.00    -0.273 OA
ATOM      2  N   UNL     1      35.152 -18.693 -20.764  0.00  0.00    -0.274 N 
ATOM      3  C   UNL     1      34.149 -20.543 -19.765  0.00  0.00    +0.153 C 
ATOM      4  C   UNL     1      33.084 -19.691 -20.444  0.00  0.00    +0.048 C 
ATOM      5  C   UNL     1      33.876 -18.845 -21.422  0.00  0.00    +0.096 C 
ATOM      6  C   UNL     1      35.374 -19.664 -19.788  0.00  0.00    +0.242 C 
ENDROOT
BRANCH   3   7
ATOM      7  N   UNL     1      33.784 -20.835 -18.374  0.00  0.00    -0.171 NA
ATOM      8  H   UNL     1      34.179 -20.094 -17.794  0.00  0.00    +0.149 HD
BRANCH   7   9
ATOM      9  S   UNL     1      34.290 -22.330 -17.703  0.00  0.00    +0.066 S 
ATOM     10  O   UNL     1      35.576 -22.152 -17.055  0.00  0.00    -0.152 OA
ATOM     11  O   UNL     1      34.077 -23.383 -18.676  0.00  0.00    -0.152 OA
BRANCH   9  14
ATOM     12  S   UNL     1      33.884 -23.412 -15.023  0.00  0.00    -0.066 S 
ATOM     13  N   UNL     1      30.031 -23.061 -14.610  0.00  0.00    -0.243 NA
ATOM     14  C   UNL     1      33.143 -22.732 -16.386  0.00  0.00    +0.153 C 
ATOM     15  C   UNL     1      31.802 -22.594 -16.280  0.00  0.00    +0.046 C 
ATOM     16  C   UNL     1      31.330 -23.065 -15.019  0.00  0.00    +0.089 C 
ATOM     17  C   UNL     1      32.369 -23.546 -14.221  0.00  0.00    +0.048 C 
ATOM     18  C   UNL     1      32.095 -24.052 -12.941  0.00  0.00    +0.010 C 
ATOM     19  C   UNL     1      30.773 -24.051 -12.519  0.00  0.00    +0.021 C 
ATOM     20  C   UNL     1      29.806 -23.555 -13.375  0.00  0.00    +0.099 C 
ENDBRANCH   9  14
ENDBRANCH   7   9
ENDBRANCH   3   7
BRANCH   2  21
ATOM     21  C   UNL     1      36.114 -17.702 -21.195  0.00  0.00    +0.120 C 
BRANCH  21  24
ATOM     22  N   UNL     1      33.580 -12.890 -24.163  0.00  0.00    -0.230 NA
ATOM     23  N   UNL     1      34.438 -14.842 -25.160  0.00  0.00    -0.343 N 
ATOM     24  C   UNL     1      35.457 -16.357 -21.338  0.00  0.00    -0.002 C 
ATOM     25  C   UNL     1      35.133 -15.883 -22.602  0.00  0.00    +0.000 C 
ATOM     26  C   UNL     1      35.185 -15.605 -20.205  0.00  0.00    -0.003 C 
ATOM     27  C   UNL     1      34.521 -14.627 -22.744  0.00  0.00    +0.031 C 
ATOM     28  C   UNL     1      34.238 -13.852 -21.599  0.00  0.00    +0.004 C 
ATOM     29  C   UNL     1      34.577 -14.355 -20.332  0.00  0.00    -0.000 C 
ATOM     30  C   UNL     1      34.170 -14.094 -23.985  0.00  0.00    +0.125 C 
ATOM     31  C   UNL     1      33.628 -12.603 -21.761  0.00  0.00    +0.021 C 
ATOM     32  C   UNL     1      33.325 -12.177 -23.045  0.00  0.00    +0.100 C 
ATOM     33  H   UNL     1      34.197 -14.478 -26.042  0.00  0.00    +0.144 HD
ATOM     34  H   UNL     1      34.866 -15.727 -25.093  0.00  0.00    +0.144 HD
ENDBRANCH  21  24
ENDBRANCH   2  21
TORSDOF 5
ENDMDL
MODEL 7
REMARK VINA RESULT:     -11.3      2.809     10.416
REMARK  Name = 445480
REMARK  5 active torsions:
REMARK  status: ('A' for Active; 'I' for Inactive)
REMARK    1  A    between atoms: N_2  and  C_21
REMARK    2  A    between atoms: C_3  and  N_7
REMARK    3  A    between atoms: N_7  and  S_9
REMARK    4  A    between atoms: S_9  and  C_14
REMARK    5  A    between atoms: C_21  and  C_24
REMARK                            x       y       z     vdW  Elec       q    Type
REMARK                         _______ _______ _______ _____ _____    ______ ____
ROOT
ATOM      1  O   UNL     1      32.702 -19.838 -19.628  0.00  0.00    -0.273 OA
ATOM      2  N   UNL     1      34.125 -21.271 -18.422  0.00  0.00    -0.274 N 
ATOM      3  C   UNL     1      35.085 -19.960 -20.092  0.00  0.00    +0.153 C 
ATOM      4  C   UNL     1      36.170 -20.445 -19.138  0.00  0.00    +0.048 C 
ATOM      5  C   UNL     1      35.525 -21.626 -18.436  0.00  0.00    +0.096 C 
ATOM      6  C   UNL     1      33.803 -20.306 -19.376  0.00  0.00    +0.242 C 
ENDROOT
BRANCH   3   7
ATOM      7  N   UNL     1      35.160 -18.507 -20.282  0.00  0.00    -0.171 NA
ATOM      8  H   UNL     1      34.207 -18.145 -20.237  0.00  0.00    +0.149 HD
BRANCH   7   9
ATOM      9  S   UNL     1      35.861 -17.918 -21.732  0.00  0.00    +0.066 S 
ATOM     10  O   UNL     1      35.351 -18.683 -22.854  0.00  0.00    -0.152 OA
ATOM     11  O   UNL     1      37.284 -17.735 -21.531  0.00  0.00    -0.152 OA
BRANCH   9  14
ATOM     12  S   UNL     1      34.919 -15.874 -23.592  0.00  0.00    -0.066 S 
ATOM     13  N   UNL     1      34.179 -12.906 -21.189  0.00  0.00    -0.243 NA
ATOM     14  C   UNL     1      35.249 -16.250 -21.974  0.00  0.00    +0.153 C 
ATOM     15  C   UNL     1      35.004 -15.242 -21.107  0.00  0.00    +0.046 C 
ATOM     16  C   UNL     1      34.517 -14.084 -21.783  0.00  0.00    +0.089 C 
ATOM     17  C   UNL     1      34.419 -14.287 -23.160  0.00  0.00    +0.048 C 
ATOM     18  C   UNL     1      33.957 -13.257 -23.991  0.00  0.00    +0.010 C 
ATOM     19  C   UNL     1      33.611 -12.054 -23.391  0.00  0.00    +0.021 C 
ATOM     20  C   UNL     1      33.739 -11.938 -22.019  0.00  0.00    +0.099 C 
ENDBRANCH   9  14
ENDBRANCH   7   9
ENDBRANCH   3   7
BRANCH   2  21
ATOM     21  C   UNL     1      33.177 -21.965 -17.577  0.00  0.00    +0.120 C 
BRANCH  21  24
ATOM     22  N   UNL     1      37.783 -22.845 -13.529  0.00  0.00    -0.230 NA
ATOM     23  N   UNL     1      38.007 -22.085 -15.746  0.00  0.00    -0.343 N 
ATOM     24  C   UNL     1      33.811 -22.335 -16.265  0.00  0.00    -0.002 C 
ATOM     25  C   UNL     1      35.189 -22.244 -16.121  0.00  0.00    +0.000 C 
ATOM     26  C   UNL     1      33.012 -22.764 -15.216  0.00  0.00    -0.003 C 
ATOM     27  C   UNL     1      35.790 -22.590 -14.899  0.00  0.00    +0.031 C 
ATOM     28  C   UNL     1      34.989 -23.028 -13.824  0.00  0.00    +0.004 C 
ATOM     29  C   UNL     1      33.597 -23.111 -13.998  0.00  0.00    -0.000 C 
ATOM     30  C   UNL     1      37.168 -22.521 -14.689  0.00  0.00    +0.125 C 
ATOM     31  C   UNL     1      35.606 -23.368 -12.614  0.00  0.00    +0.021 C 
ATOM     32  C   UNL     1      36.984 -23.259 -12.522  0.00  0.00    +0.100 C 
ATOM     33  H   UNL     1      38.981 -22.032 -15.612  0.00  0.00    +0.144 HD
ATOM     34  H   UNL     1      37.615 -21.835 -16.614  0.00  0.00    +0.144 HD
ENDBRANCH  21  24
ENDBRANCH   2  21
TORSDOF 5
ENDMDL
MODEL 8
REMARK VINA RESULT:     -11.1      4.742     11.592
REMARK  Name = 445480
REMARK  5 active torsions:
REMARK  status: ('A' for Active; 'I' for Inactive)
REMARK    1  A    between atoms: N_2  and  C_21
REMARK    2  A    between atoms: C_3  and  N_7
REMARK    3  A    between atoms: N_7  and  S_9
REMARK    4  A    between atoms: S_9  and  C_14
REMARK    5  A    between atoms: C_21  and  C_24
REMARK                            x       y       z     vdW  Elec       q    Type
REMARK                         _______ _______ _______ _____ _____    ______ ____
ROOT
ATOM      1  O   UNL     1      35.323 -15.469 -20.132  0.00  0.00    -0.273 OA
ATOM      2  N   UNL     1      35.836 -16.862 -21.956  0.00  0.00    -0.274 N 
ATOM      3  C   UNL     1      34.444 -15.036 -22.356  0.00  0.00    +0.153 C 
ATOM      4  C   UNL     1      35.031 -15.528 -23.673  0.00  0.00    +0.048 C 
ATOM      5  C   UNL     1      35.487 -16.939 -23.355  0.00  0.00    +0.096 C 
ATOM      6  C   UNL     1      35.248 -15.773 -21.313  0.00  0.00    +0.242 C 
ENDROOT
BRANCH   3   7
ATOM      7  N   UNL     1      34.643 -13.592 -22.195  0.00  0.00    -0.171 NA
ATOM      8  H   UNL     1      35.351 -13.462 -21.471  0.00  0.00    +0.149 HD
BRANCH   7   9
ATOM      9  S   UNL     1      33.290 -12.633 -21.761  0.00  0.00    +0.066 S 
ATOM     10  O   UNL     1      33.269 -12.459 -20.321  0.00  0.00    -0.152 OA
ATOM     11  O   UNL     1      32.123 -13.108 -22.479  0.00  0.00    -0.152 OA
BRANCH   9  14
ATOM     12  S   UNL     1      32.447  -9.842 -21.900  0.00  0.00    -0.066 S 
ATOM     13  N   UNL     1      35.074  -8.349 -24.351  0.00  0.00    -0.243 NA
ATOM     14  C   UNL     1      33.565 -10.996 -22.437  0.00  0.00    +0.153 C 
ATOM     15  C   UNL     1      34.495 -10.514 -23.292  0.00  0.00    +0.046 C 
ATOM     16  C   UNL     1      34.303  -9.122 -23.537  0.00  0.00    +0.089 C 
ATOM     17  C   UNL     1      33.208  -8.616 -22.835  0.00  0.00    +0.048 C 
ATOM     18  C   UNL     1      32.864  -7.261 -22.952  0.00  0.00    +0.010 C 
ATOM     19  C   UNL     1      33.646  -6.469 -23.781  0.00  0.00    +0.021 C 
ATOM     20  C   UNL     1      34.713  -7.053 -24.440  0.00  0.00    +0.099 C 
ENDBRANCH   9  14
ENDBRANCH   7   9
ENDBRANCH   3   7
BRANCH   2  21
ATOM     21  C   UNL     1      36.611 -17.899 -21.310  0.00  0.00    +0.120 C 
BRANCH  21  24
ATOM     22  N   UNL     1      35.079 -22.131 -17.053  0.00  0.00    -0.230 NA
ATOM     23  N   UNL     1      37.213 -21.190 -17.371  0.00  0.00    -0.343 N 
ATOM     24  C   UNL     1      35.710 -18.839 -20.558  0.00  0.00    -0.002 C 
ATOM     25  C   UNL     1      36.227 -19.599 -19.517  0.00  0.00    +0.000 C 
ATOM     26  C   UNL     1      34.373 -18.938 -20.915  0.00  0.00    -0.003 C 
ATOM     27  C   UNL     1      35.393 -20.481 -18.811  0.00  0.00    +0.031 C 
ATOM     28  C   UNL     1      34.031 -20.590 -19.164  0.00  0.00    +0.004 C 
ATOM     29  C   UNL     1      33.534 -19.810 -20.221  0.00  0.00    -0.000 C 
ATOM     30  C   UNL     1      35.850 -21.271 -17.756  0.00  0.00    +0.125 C 
ATOM     31  C   UNL     1      33.215 -21.475 -18.448  0.00  0.00    +0.021 C 
ATOM     32  C   UNL     1      33.781 -22.209 -17.418  0.00  0.00    +0.100 C 
ATOM     33  H   UNL     1      37.549 -21.742 -16.629  0.00  0.00    +0.144 HD
ATOM     34  H   UNL     1      37.823 -20.581 -17.847  0.00  0.00    +0.144 HD
ENDBRANCH  21  24
ENDBRANCH   2  21
TORSDOF 5
ENDMDL
MODEL 9
REMARK VINA RESULT:     -11.0      2.973     10.476
REMARK  Name = 445480
REMARK  5 active torsions:
REMARK  status: ('A' for Active; 'I' for Inactive)
REMARK    1  A    between atoms: N_2  and  C_21
REMARK    2  A    between atoms: C_3  and  N_7
REMARK    3  A    between atoms: N_7  and  S_9
REMARK    4  A    between atoms: S_9  and  C_14
REMARK    5  A    between atoms: C_21  and  C_24
REMARK                            x       y       z     vdW  Elec       q    Type
REMARK                         _______ _______ _______ _____ _____    ______ ____
ROOT
ATOM      1  O   UNL     1      36.380 -20.791 -19.465  0.00  0.00    -0.273 OA
ATOM      2  N   UNL     1      34.168 -21.410 -18.961  0.00  0.00    -0.274 N 
ATOM      3  C   UNL     1      34.509 -19.295 -19.879  0.00  0.00    +0.153 C 
ATOM      4  C   UNL     1      33.050 -19.697 -20.054  0.00  0.00    +0.048 C 
ATOM      5  C   UNL     1      32.859 -20.802 -19.032  0.00  0.00    +0.096 C 
ATOM      6  C   UNL     1      35.178 -20.573 -19.435  0.00  0.00    +0.242 C 
ENDROOT
BRANCH   3   7
ATOM      7  N   UNL     1      35.093 -18.856 -21.151  0.00  0.00    -0.171 NA
ATOM      8  H   UNL     1      35.653 -19.630 -21.511  0.00  0.00    +0.149 HD
BRANCH   7   9
ATOM      9  S   UNL     1      36.094 -17.464 -21.142  0.00  0.00    +0.066 S 
ATOM     10  O   UNL     1      37.405 -17.815 -21.656  0.00  0.00    -0.152 OA
ATOM     11  O   UNL     1      35.941 -16.777 -19.875  0.00  0.00    -0.152 OA
BRANCH   9  14
ATOM     12  S   UNL     1      34.958 -14.825 -21.659  0.00  0.00    -0.066 S 
ATOM     13  N   UNL     1      34.267 -15.002 -25.483  0.00  0.00    -0.243 NA
ATOM     14  C   UNL     1      35.407 -16.313 -22.333  0.00  0.00    +0.153 C 
ATOM     15  C   UNL     1      35.181 -16.413 -23.662  0.00  0.00    +0.046 C 
ATOM     16  C   UNL     1      34.608 -15.214 -24.183  0.00  0.00    +0.089 C 
ATOM     17  C   UNL     1      34.428 -14.250 -23.190  0.00  0.00    +0.048 C 
ATOM     18  C   UNL     1      33.876 -13.002 -23.515  0.00  0.00    +0.010 C 
ATOM     19  C   UNL     1      33.525 -12.781 -24.840  0.00  0.00    +0.021 C 
ATOM     20  C   UNL     1      33.738 -13.792 -25.759  0.00  0.00    +0.099 C 
ENDBRANCH   9  14
ENDBRANCH   7   9
ENDBRANCH   3   7
BRANCH   2  21
ATOM     21  C   UNL     1      34.370 -22.700 -18.339  0.00  0.00    +0.120 C 
BRANCH  21  24
ATOM     22  N   UNL     1      29.961 -22.459 -13.994  0.00  0.00    -0.230 NA
ATOM     23  N   UNL     1      29.629 -22.312 -16.321  0.00  0.00    -0.343 N 
ATOM     24  C   UNL     1      33.799 -22.711 -16.948  0.00  0.00    -0.002 C 
ATOM     25  C   UNL     1      32.428 -22.578 -16.770  0.00  0.00    +0.000 C 
ATOM     26  C   UNL     1      34.648 -22.850 -15.861  0.00  0.00    -0.003 C 
ATOM     27  C   UNL     1      31.887 -22.585 -15.473  0.00  0.00    +0.031 C 
ATOM     28  C   UNL     1      32.740 -22.727 -14.358  0.00  0.00    +0.004 C 
ATOM     29  C   UNL     1      34.123 -22.858 -14.568  0.00  0.00    -0.000 C 
ATOM     30  C   UNL     1      30.520 -22.457 -15.225  0.00  0.00    +0.125 C 
ATOM     31  C   UNL     1      32.181 -22.731 -13.075  0.00  0.00    +0.021 C 
ATOM     32  C   UNL     1      30.807 -22.596 -12.952  0.00  0.00    +0.100 C 
ATOM     33  H   UNL     1      28.662 -22.220 -16.160  0.00  0.00    +0.144 HD
ATOM     34  H   UNL     1      29.979 -22.304 -17.241  0.00  0.00    +0.144 HD
ENDBRANCH  21  24
ENDBRANCH   2  21
TORSDOF 5
ENDMDL
