MODEL 1
REMARK VINA RESULT:     -12.9      0.000      0.000
REMARK  Name = 448408
REMARK  8 active torsions:
REMARK  status: ('A' for Active; 'I' for Inactive)
REMARK    1  A    between atoms: N_2  and  C_25
REMARK    2  A    between atoms: C_3  and  C_6
REMARK    3  A    between atoms: C_5  and  N_12
REMARK    4  A    between atoms: C_25  and  C_26
REMARK    5  A    between atoms: C_27  and  S_32
REMARK    6  A    between atoms: S_32  and  C_33
REMARK    7  A    between atoms: C_34  and  C_39
REMARK    8  A    between atoms: C_39  and  O_40
REMARK                            x       y       z     vdW  Elec       q    Type
REMARK                         _______ _______ _______ _____ _____    ______ ____
ROOT
ATOM      1  O   UNL     1      37.218 -19.415 -19.896  0.00  0.00    -0.270 OA
ATOM      2  N   UNL     1      35.279 -18.589 -20.861  0.00  0.00    -0.297 N 
ATOM      3  C   UNL     1      35.976 -19.407 -19.965  0.00  0.00    +0.246 C 
ATOM      4  H   UNL     1      34.295 -18.633 -20.862  0.00  0.00    +0.150 HD
ENDROOT
BRANCH   3   6
ATOM      5  C   UNL     1      35.025 -21.776 -17.201  0.00  0.00    +0.090 C 
ATOM      6  C   UNL     1      35.184 -20.283 -19.116  0.00  0.00    +0.055 C 
ATOM      7  C   UNL     1      35.777 -20.926 -18.030  0.00  0.00    +0.023 C 
ATOM      8  C   UNL     1      33.663 -21.965 -17.490  0.00  0.00    +0.018 C 
ATOM      9  C   UNL     1      33.830 -20.481 -19.390  0.00  0.00    +0.005 C 
ATOM     10  C   UNL     1      33.070 -21.321 -18.577  0.00  0.00    +0.002 C 
BRANCH   5  12
ATOM     11  O   UNL     1      34.072 -23.669 -12.458  0.00  0.00    -0.207 OA
ATOM     12  N   UNL     1      35.616 -22.417 -16.118  0.00  0.00    -0.137 N 
ATOM     13  N   UNL     1      36.881 -22.186 -15.677  0.00  0.00    -0.215 N 
ATOM     14  N   UNL     1      34.794 -22.871 -15.089  0.00  0.00    -0.143 NA
ATOM     15  N   UNL     1      37.808 -22.467 -13.418  0.00  0.00    -0.309 NA
ATOM     16  N   UNL     1      36.245 -23.262 -11.759  0.00  0.00    -0.251 NA
ATOM     17  N   UNL     1      38.440 -22.822 -11.175  0.00  0.00    -0.283 N 
ATOM     18  C   UNL     1      36.934 -22.479 -14.354  0.00  0.00    +0.243 C 
ATOM     19  C   UNL     1      35.562 -22.911 -14.045  0.00  0.00    +0.241 C 
ATOM     20  C   UNL     1      35.223 -23.318 -12.676  0.00  0.00    +0.239 C 
ATOM     21  C   UNL     1      37.447 -22.861 -12.126  0.00  0.00    +0.208 C 
ATOM     22  H   UNL     1      37.631 -21.862 -16.225  0.00  0.00    +0.175 HD
ATOM     23  H   UNL     1      39.346 -22.527 -11.420  0.00  0.00    +0.156 HD
ATOM     24  H   UNL     1      38.243 -23.088 -10.248  0.00  0.00    +0.156 HD
ENDBRANCH   5  12
ENDBRANCH   3   6
BRANCH   2  25
ATOM     25  C   UNL     1      35.924 -17.683 -21.785  0.00  0.00    +0.117 C 
BRANCH  25  26
ATOM     26  C   UNL     1      35.056 -17.381 -22.972  0.00  0.00    +0.003 C 
ATOM     27  C   UNL     1      34.881 -16.082 -23.440  0.00  0.00    +0.027 C 
ATOM     28  C   UNL     1      34.421 -18.448 -23.600  0.00  0.00    -0.002 C 
ATOM     29  C   UNL     1      34.064 -15.848 -24.546  0.00  0.00    +0.006 C 
ATOM     30  C   UNL     1      33.605 -18.215 -24.706  0.00  0.00    -0.000 C 
ATOM     31  C   UNL     1      33.427 -16.915 -25.180  0.00  0.00    +0.000 C 
BRANCH  27  32
ATOM     32  S   UNL     1      35.677 -14.682 -22.663  0.00  0.00    -0.087 S 
BRANCH  32  33
ATOM     33  C   UNL     1      34.311 -13.971 -21.757  0.00  0.00    +0.028 C 
ATOM     34  C   UNL     1      33.573 -12.899 -22.261  0.00  0.00    +0.013 C 
ATOM     35  C   UNL     1      33.987 -14.513 -20.512  0.00  0.00    +0.006 C 
ATOM     36  C   UNL     1      32.513 -12.372 -21.524  0.00  0.00    -0.001 C 
ATOM     37  C   UNL     1      32.928 -13.985 -19.774  0.00  0.00    +0.000 C 
ATOM     38  C   UNL     1      32.191 -12.915 -20.280  0.00  0.00    -0.000 C 
BRANCH  34  39
ATOM     39  C   UNL     1      33.879 -12.282 -23.589  0.00  0.00    +0.164 C 
BRANCH  39  40
ATOM     40  O   UNL     1      34.670 -11.118 -23.393  0.00  0.00    -0.377 OA
ATOM     41  H   UNL     1      35.602 -11.373 -23.300  0.00  0.00    +0.211 HD
ENDBRANCH  39  40
ENDBRANCH  34  39
ENDBRANCH  32  33
ENDBRANCH  27  32
ENDBRANCH  25  26
ENDBRANCH   2  25
TORSDOF 8
ENDMDL
MODEL 2
REMARK VINA RESULT:     -12.6      1.395      1.710
REMARK  Name = 448408
REMARK  8 active torsions:
REMARK  status: ('A' for Active; 'I' for Inactive)
REMARK    1  A    between atoms: N_2  and  C_25
REMARK    2  A    between atoms: C_3  and  C_6
REMARK    3  A    between atoms: C_5  and  N_12
REMARK    4  A    between atoms: C_25  and  C_26
REMARK    5  A    between atoms: C_27  and  S_32
REMARK    6  A    between atoms: S_32  and  C_33
REMARK    7  A    between atoms: C_34  and  C_39
REMARK    8  A    between atoms: C_39  and  O_40
REMARK                            x       y       z     vdW  Elec       q    Type
REMARK                         _______ _______ _______ _____ _____    ______ ____
ROOT
ATOM      1  O   UNL     1      37.364 -19.629 -20.045  0.00  0.00    -0.270 OA
ATOM      2  N   UNL     1      35.416 -18.479 -20.553  0.00  0.00    -0.297 N 
ATOM      3  C   UNL     1      36.138 -19.483 -19.897  0.00  0.00    +0.246 C 
ATOM      4  H   UNL     1      34.446 -18.421 -20.390  0.00  0.00    +0.150 HD
ENDROOT
BRANCH   3   6
ATOM      5  C   UNL     1      35.235 -21.714 -17.005  0.00  0.00    +0.090 C 
ATOM      6  C   UNL     1      35.386 -20.382 -19.036  0.00  0.00    +0.055 C 
ATOM      7  C   UNL     1      35.949 -20.844 -17.847  0.00  0.00    +0.023 C 
ATOM      8  C   UNL     1      33.942 -22.110 -17.388  0.00  0.00    +0.018 C 
ATOM      9  C   UNL     1      34.100 -20.785 -19.402  0.00  0.00    +0.005 C 
ATOM     10  C   UNL     1      33.379 -21.647 -18.578  0.00  0.00    +0.002 C 
BRANCH   5  12
ATOM     11  O   UNL     1      39.668 -23.376 -14.866  0.00  0.00    -0.207 OA
ATOM     12  N   UNL     1      35.796 -22.174 -15.819  0.00  0.00    -0.137 N 
ATOM     13  N   UNL     1      35.165 -22.977 -14.922  0.00  0.00    -0.215 N 
ATOM     14  N   UNL     1      37.178 -22.336 -15.760  0.00  0.00    -0.143 NA
ATOM     15  N   UNL     1      36.131 -24.570 -13.320  0.00  0.00    -0.309 NA
ATOM     16  N   UNL     1      38.540 -24.724 -13.354  0.00  0.00    -0.251 NA
ATOM     17  N   UNL     1      37.311 -26.022 -11.886  0.00  0.00    -0.283 N 
ATOM     18  C   UNL     1      36.102 -23.688 -14.248  0.00  0.00    +0.243 C 
ATOM     19  C   UNL     1      37.369 -23.227 -14.837  0.00  0.00    +0.241 C 
ATOM     20  C   UNL     1      38.637 -23.783 -14.352  0.00  0.00    +0.239 C 
ATOM     21  C   UNL     1      37.359 -25.078 -12.886  0.00  0.00    +0.208 C 
ATOM     22  H   UNL     1      34.191 -23.032 -14.785  0.00  0.00    +0.175 HD
ATOM     23  H   UNL     1      36.444 -26.305 -11.517  0.00  0.00    +0.156 HD
ATOM     24  H   UNL     1      38.145 -26.414 -11.540  0.00  0.00    +0.156 HD
ENDBRANCH   5  12
ENDBRANCH   3   6
BRANCH   2  25
ATOM     25  C   UNL     1      36.015 -17.525 -21.458  0.00  0.00    +0.117 C 
BRANCH  25  26
ATOM     26  C   UNL     1      35.193 -17.335 -22.699  0.00  0.00    +0.003 C 
ATOM     27  C   UNL     1      34.993 -16.077 -23.261  0.00  0.00    +0.027 C 
ATOM     28  C   UNL     1      34.626 -18.465 -23.281  0.00  0.00    -0.002 C 
ATOM     29  C   UNL     1      34.219 -15.949 -24.414  0.00  0.00    +0.006 C 
ATOM     30  C   UNL     1      33.852 -18.336 -24.435  0.00  0.00    -0.000 C 
ATOM     31  C   UNL     1      33.650 -17.079 -25.002  0.00  0.00    +0.000 C 
BRANCH  27  32
ATOM     32  S   UNL     1      35.701 -14.599 -22.547  0.00  0.00    -0.087 S 
BRANCH  32  33
ATOM     33  C   UNL     1      34.297 -13.938 -21.663  0.00  0.00    +0.028 C 
ATOM     34  C   UNL     1      33.508 -12.916 -22.196  0.00  0.00    +0.013 C 
ATOM     35  C   UNL     1      33.993 -14.467 -20.407  0.00  0.00    +0.006 C 
ATOM     36  C   UNL     1      32.419 -12.427 -21.475  0.00  0.00    -0.001 C 
ATOM     37  C   UNL     1      32.905 -13.977 -19.687  0.00  0.00    +0.000 C 
ATOM     38  C   UNL     1      32.117 -12.956 -20.220  0.00  0.00    -0.000 C 
BRANCH  34  39
ATOM     39  C   UNL     1      33.790 -12.316 -23.535  0.00  0.00    +0.164 C 
BRANCH  39  40
ATOM     40  O   UNL     1      34.694 -11.230 -23.381  0.00  0.00    -0.377 OA
ATOM     41  H   UNL     1      34.404 -10.671 -22.642  0.00  0.00    +0.211 HD
ENDBRANCH  39  40
ENDBRANCH  34  39
ENDBRANCH  32  33
ENDBRANCH  27  32
ENDBRANCH  25  26
ENDBRANCH   2  25
TORSDOF 8
ENDMDL
MODEL 3
REMARK VINA RESULT:     -12.5      3.466     11.255
REMARK  Name = 448408
REMARK  8 active torsions:
REMARK  status: ('A' for Active; 'I' for Inactive)
REMARK    1  A    between atoms: N_2  and  C_25
REMARK    2  A    between atoms: C_3  and  C_6
REMARK    3  A    between atoms: C_5  and  N_12
REMARK    4  A    between atoms: C_25  and  C_26
REMARK    5  A    between atoms: C_27  and  S_32
REMARK    6  A    between atoms: S_32  and  C_33
REMARK    7  A    between atoms: C_34  and  C_39
REMARK    8  A    between atoms: C_39  and  O_40
REMARK                            x       y       z     vdW  Elec       q    Type
REMARK                         _______ _______ _______ _____ _____    ______ ____
ROOT
ATOM      1  O   UNL     1      32.720 -21.282 -19.501  0.00  0.00    -0.270 OA
ATOM      2  N   UNL     1      33.766 -21.950 -17.543  0.00  0.00    -0.297 N 
ATOM      3  C   UNL     1      33.717 -21.258 -18.758  0.00  0.00    +0.246 C 
ATOM      4  H   UNL     1      34.588 -21.888 -17.004  0.00  0.00    +0.150 HD
ENDROOT
BRANCH   3   6
ATOM      5  C   UNL     1      35.962 -18.786 -20.493  0.00  0.00    +0.090 C 
ATOM      6  C   UNL     1      34.906 -20.514 -19.142  0.00  0.00    +0.055 C 
ATOM      7  C   UNL     1      34.821 -19.514 -20.111  0.00  0.00    +0.023 C 
ATOM      8  C   UNL     1      37.189 -19.089 -19.879  0.00  0.00    +0.018 C 
ATOM      9  C   UNL     1      36.133 -20.802 -18.542  0.00  0.00    +0.005 C 
ATOM     10  C   UNL     1      37.273 -20.090 -18.910  0.00  0.00    +0.002 C 
BRANCH   5  12
ATOM     11  O   UNL     1      34.870 -13.756 -21.195  0.00  0.00    -0.207 OA
ATOM     12  N   UNL     1      35.877 -17.789 -21.457  0.00  0.00    -0.137 N 
ATOM     13  N   UNL     1      35.427 -17.974 -22.727  0.00  0.00    -0.215 N 
ATOM     14  N   UNL     1      35.682 -16.476 -21.036  0.00  0.00    -0.143 NA
ATOM     15  N   UNL     1      34.381 -16.354 -24.250  0.00  0.00    -0.309 NA
ATOM     16  N   UNL     1      34.120 -14.126 -23.357  0.00  0.00    -0.251 NA
ATOM     17  N   UNL     1      33.408 -14.611 -25.504  0.00  0.00    -0.283 N 
ATOM     18  C   UNL     1      34.925 -16.798 -23.180  0.00  0.00    +0.243 C 
ATOM     19  C   UNL     1      35.121 -15.884 -22.044  0.00  0.00    +0.241 C 
ATOM     20  C   UNL     1      34.692 -14.485 -22.159  0.00  0.00    +0.239 C 
ATOM     21  C   UNL     1      33.984 -15.015 -24.321  0.00  0.00    +0.208 C 
ATOM     22  H   UNL     1      35.460 -18.819 -23.232  0.00  0.00    +0.175 HD
ATOM     23  H   UNL     1      33.294 -15.252 -26.242  0.00  0.00    +0.156 HD
ATOM     24  H   UNL     1      33.109 -13.679 -25.612  0.00  0.00    +0.156 HD
ENDBRANCH   5  12
ENDBRANCH   3   6
BRANCH   2  25
ATOM     25  C   UNL     1      32.675 -22.753 -17.036  0.00  0.00    +0.117 C 
BRANCH  25  26
ATOM     26  C   UNL     1      32.634 -22.760 -15.535  0.00  0.00    +0.003 C 
ATOM     27  C   UNL     1      33.782 -22.951 -14.771  0.00  0.00    +0.027 C 
ATOM     28  C   UNL     1      31.401 -22.568 -14.919  0.00  0.00    -0.002 C 
ATOM     29  C   UNL     1      33.695 -22.951 -13.379  0.00  0.00    +0.006 C 
ATOM     30  C   UNL     1      31.315 -22.568 -13.527  0.00  0.00    -0.000 C 
ATOM     31  C   UNL     1      32.462 -22.758 -12.757  0.00  0.00    +0.000 C 
BRANCH  27  32
ATOM     32  S   UNL     1      35.385 -23.201 -15.521  0.00  0.00    -0.087 S 
BRANCH  32  33
ATOM     33  C   UNL     1      36.382 -23.572 -14.085  0.00  0.00    +0.028 C 
ATOM     34  C   UNL     1      36.801 -24.872 -13.798  0.00  0.00    +0.013 C 
ATOM     35  C   UNL     1      36.740 -22.522 -13.238  0.00  0.00    +0.006 C 
ATOM     36  C   UNL     1      37.578 -25.121 -12.667  0.00  0.00    -0.001 C 
ATOM     37  C   UNL     1      37.517 -22.771 -12.107  0.00  0.00    +0.000 C 
ATOM     38  C   UNL     1      37.936 -24.071 -11.821  0.00  0.00    -0.000 C 
BRANCH  34  39
ATOM     39  C   UNL     1      36.444 -26.030 -14.673  0.00  0.00    +0.164 C 
BRANCH  39  40
ATOM     40  O   UNL     1      37.523 -26.297 -15.559  0.00  0.00    -0.377 OA
ATOM     41  H   UNL     1      38.016 -27.071 -15.244  0.00  0.00    +0.211 HD
ENDBRANCH  39  40
ENDBRANCH  34  39
ENDBRANCH  32  33
ENDBRANCH  27  32
ENDBRANCH  25  26
ENDBRANCH   2  25
TORSDOF 8
ENDMDL
MODEL 4
REMARK VINA RESULT:     -12.5      1.118      1.569
REMARK  Name = 448408
REMARK  8 active torsions:
REMARK  status: ('A' for Active; 'I' for Inactive)
REMARK    1  A    between atoms: N_2  and  C_25
REMARK    2  A    between atoms: C_3  and  C_6
REMARK    3  A    between atoms: C_5  and  N_12
REMARK    4  A    between atoms: C_25  and  C_26
REMARK    5  A    between atoms: C_27  and  S_32
REMARK    6  A    between atoms: S_32  and  C_33
REMARK    7  A    between atoms: C_34  and  C_39
REMARK    8  A    between atoms: C_39  and  O_40
REMARK                            x       y       z     vdW  Elec       q    Type
REMARK                         _______ _______ _______ _____ _____    ______ ____
ROOT
ATOM      1  O   UNL     1      37.153 -19.326 -19.939  0.00  0.00    -0.270 OA
ATOM      2  N   UNL     1      35.245 -18.777 -21.136  0.00  0.00    -0.297 N 
ATOM      3  C   UNL     1      35.925 -19.433 -20.103  0.00  0.00    +0.246 C 
ATOM      4  H   UNL     1      34.271 -18.907 -21.208  0.00  0.00    +0.150 HD
ENDROOT
BRANCH   3   6
ATOM      5  C   UNL     1      34.983 -21.738 -17.282  0.00  0.00    +0.090 C 
ATOM      6  C   UNL     1      35.133 -20.280 -19.225  0.00  0.00    +0.055 C 
ATOM      7  C   UNL     1      35.735 -20.916 -18.139  0.00  0.00    +0.023 C 
ATOM      8  C   UNL     1      33.613 -21.906 -17.542  0.00  0.00    +0.018 C 
ATOM      9  C   UNL     1      33.770 -20.457 -19.469  0.00  0.00    +0.005 C 
ATOM     10  C   UNL     1      33.011 -21.269 -18.628  0.00  0.00    +0.002 C 
BRANCH   5  12
ATOM     11  O   UNL     1      34.048 -23.690 -12.559  0.00  0.00    -0.207 OA
ATOM     12  N   UNL     1      35.583 -22.371 -16.199  0.00  0.00    -0.137 N 
ATOM     13  N   UNL     1      36.839 -22.112 -15.748  0.00  0.00    -0.215 N 
ATOM     14  N   UNL     1      34.767 -22.854 -15.179  0.00  0.00    -0.143 NA
ATOM     15  N   UNL     1      37.759 -22.386 -13.485  0.00  0.00    -0.309 NA
ATOM     16  N   UNL     1      36.206 -23.233 -11.843  0.00  0.00    -0.251 NA
ATOM     17  N   UNL     1      38.384 -22.741 -11.241  0.00  0.00    -0.283 N 
ATOM     18  C   UNL     1      36.891 -22.413 -14.427  0.00  0.00    +0.243 C 
ATOM     19  C   UNL     1      35.529 -22.882 -14.130  0.00  0.00    +0.241 C 
ATOM     20  C   UNL     1      35.191 -23.308 -12.767  0.00  0.00    +0.239 C 
ATOM     21  C   UNL     1      37.398 -22.799 -12.199  0.00  0.00    +0.208 C 
ATOM     22  H   UNL     1      37.585 -21.764 -16.289  0.00  0.00    +0.175 HD
ATOM     23  H   UNL     1      39.285 -22.422 -11.478  0.00  0.00    +0.156 HD
ATOM     24  H   UNL     1      38.188 -23.020 -10.317  0.00  0.00    +0.156 HD
ENDBRANCH   5  12
ENDBRANCH   3   6
BRANCH   2  25
ATOM     25  C   UNL     1      35.894 -17.922 -22.104  0.00  0.00    +0.117 C 
BRANCH  25  26
ATOM     26  C   UNL     1      34.969 -17.535 -23.221  0.00  0.00    +0.003 C 
ATOM     27  C   UNL     1      34.811 -16.210 -23.616  0.00  0.00    +0.027 C 
ATOM     28  C   UNL     1      34.263 -18.550 -23.860  0.00  0.00    -0.002 C 
ATOM     29  C   UNL     1      33.939 -15.897 -24.658  0.00  0.00    +0.006 C 
ATOM     30  C   UNL     1      33.391 -18.237 -24.902  0.00  0.00    -0.000 C 
ATOM     31  C   UNL     1      33.229 -16.911 -25.302  0.00  0.00    +0.000 C 
BRANCH  27  32
ATOM     32  S   UNL     1      35.697 -14.875 -22.823  0.00  0.00    -0.087 S 
BRANCH  32  33
ATOM     33  C   UNL     1      34.368 -14.039 -21.971  0.00  0.00    +0.028 C 
ATOM     34  C   UNL     1      34.193 -14.154 -20.590  0.00  0.00    +0.013 C 
ATOM     35  C   UNL     1      33.489 -13.255 -22.720  0.00  0.00    +0.006 C 
ATOM     36  C   UNL     1      33.143 -13.485 -19.961  0.00  0.00    -0.001 C 
ATOM     37  C   UNL     1      32.438 -12.587 -22.091  0.00  0.00    +0.000 C 
ATOM     38  C   UNL     1      32.265 -12.702 -20.711  0.00  0.00    -0.000 C 
BRANCH  34  39
ATOM     39  C   UNL     1      35.106 -14.980 -19.743  0.00  0.00    +0.164 C 
BRANCH  39  40
ATOM     40  O   UNL     1      34.621 -16.316 -19.697  0.00  0.00    -0.377 OA
ATOM     41  H   UNL     1      34.003 -16.409 -18.955  0.00  0.00    +0.211 HD
ENDBRANCH  39  40
ENDBRANCH  34  39
ENDBRANCH  32  33
ENDBRANCH  27  32
ENDBRANCH  25  26
ENDBRANCH   2  25
TORSDOF 8
ENDMDL
MODEL 5
REMARK VINA RESULT:     -12.3      3.637     11.437
REMARK  Name = 448408
REMARK  8 active torsions:
REMARK  status: ('A' for Active; 'I' for Inactive)
REMARK    1  A    between atoms: N_2  and  C_25
REMARK    2  A    between atoms: C_3  and  C_6
REMARK    3  A    between atoms: C_5  and  N_12
REMARK    4  A    between atoms: C_25  and  C_26
REMARK    5  A    between atoms: C_27  and  S_32
REMARK    6  A    between atoms: S_32  and  C_33
REMARK    7  A    between atoms: C_34  and  C_39
REMARK    8  A    between atoms: C_39  and  O_40
REMARK                            x       y       z     vdW  Elec       q    Type
REMARK                         _______ _______ _______ _____ _____    ______ ____
ROOT
ATOM      1  O   UNL     1      37.638 -18.765 -18.849  0.00  0.00    -0.270 OA
ATOM      2  N   UNL     1      36.030 -20.433 -18.918  0.00  0.00    -0.297 N 
ATOM      3  C   UNL     1      36.622 -19.251 -19.377  0.00  0.00    +0.246 C 
ATOM      4  H   UNL     1      35.226 -20.762 -19.383  0.00  0.00    +0.150 HD
ENDROOT
BRANCH   3   6
ATOM      5  C   UNL     1      35.229 -16.538 -21.580  0.00  0.00    +0.090 C 
ATOM      6  C   UNL     1      35.982 -18.585 -20.500  0.00  0.00    +0.055 C 
ATOM      7  C   UNL     1      35.846 -17.196 -20.502  0.00  0.00    +0.023 C 
ATOM      8  C   UNL     1      34.752 -17.307 -22.654  0.00  0.00    +0.018 C 
ATOM      9  C   UNL     1      35.503 -19.335 -21.575  0.00  0.00    +0.005 C 
ATOM     10  C   UNL     1      34.889 -18.696 -22.652  0.00  0.00    +0.002 C 
BRANCH   5  12
ATOM     11  O   UNL     1      32.357 -12.631 -19.714  0.00  0.00    -0.207 OA
ATOM     12  N   UNL     1      35.094 -15.154 -21.583  0.00  0.00    -0.137 N 
ATOM     13  N   UNL     1      35.326 -14.355 -22.657  0.00  0.00    -0.215 N 
ATOM     14  N   UNL     1      34.175 -14.577 -20.710  0.00  0.00    -0.143 NA
ATOM     15  N   UNL     1      34.365 -12.155 -23.187  0.00  0.00    -0.309 NA
ATOM     16  N   UNL     1      32.791 -11.307 -21.566  0.00  0.00    -0.251 NA
ATOM     17  N   UNL     1      33.300 -10.070 -23.453  0.00  0.00    -0.283 N 
ATOM     18  C   UNL     1      34.573 -13.234 -22.529  0.00  0.00    +0.243 C 
ATOM     19  C   UNL     1      33.862 -13.445 -21.259  0.00  0.00    +0.241 C 
ATOM     20  C   UNL     1      32.931 -12.420 -20.772  0.00  0.00    +0.239 C 
ATOM     21  C   UNL     1      33.470 -11.203 -22.691  0.00  0.00    +0.208 C 
ATOM     22  H   UNL     1      35.937 -14.556 -23.403  0.00  0.00    +0.175 HD
ATOM     23  H   UNL     1      33.794  -9.964 -24.298  0.00  0.00    +0.156 HD
ATOM     24  H   UNL     1      32.682  -9.364 -23.154  0.00  0.00    +0.156 HD
ENDBRANCH   5  12
ENDBRANCH   3   6
BRANCH   2  25
ATOM     25  C   UNL     1      36.533 -21.197 -17.798  0.00  0.00    +0.117 C 
BRANCH  25  26
ATOM     26  C   UNL     1      35.423 -21.776 -16.970  0.00  0.00    +0.003 C 
ATOM     27  C   UNL     1      35.621 -22.169 -15.650  0.00  0.00    +0.027 C 
ATOM     28  C   UNL     1      34.172 -21.913 -17.566  0.00  0.00    -0.002 C 
ATOM     29  C   UNL     1      34.560 -22.703 -14.919  0.00  0.00    +0.006 C 
ATOM     30  C   UNL     1      33.111 -22.447 -16.835  0.00  0.00    -0.000 C 
ATOM     31  C   UNL     1      33.305 -22.842 -15.512  0.00  0.00    +0.000 C 
BRANCH  27  32
ATOM     32  S   UNL     1      37.210 -22.012 -14.846  0.00  0.00    -0.087 S 
BRANCH  32  33
ATOM     33  C   UNL     1      37.307 -23.565 -13.970  0.00  0.00    +0.028 C 
ATOM     34  C   UNL     1      37.464 -23.619 -12.583  0.00  0.00    +0.013 C 
ATOM     35  C   UNL     1      37.222 -24.748 -14.705  0.00  0.00    +0.006 C 
ATOM     36  C   UNL     1      37.535 -24.852 -11.935  0.00  0.00    -0.001 C 
ATOM     37  C   UNL     1      37.294 -25.981 -14.057  0.00  0.00    +0.000 C 
ATOM     38  C   UNL     1      37.450 -26.033 -12.672  0.00  0.00    -0.000 C 
BRANCH  34  39
ATOM     39  C   UNL     1      37.559 -22.381 -11.750  0.00  0.00    +0.164 C 
BRANCH  39  40
ATOM     40  O   UNL     1      38.812 -22.364 -11.079  0.00  0.00    -0.377 OA
ATOM     41  H   UNL     1      38.905 -23.170 -10.547  0.00  0.00    +0.211 HD
ENDBRANCH  39  40
ENDBRANCH  34  39
ENDBRANCH  32  33
ENDBRANCH  27  32
ENDBRANCH  25  26
ENDBRANCH   2  25
TORSDOF 8
ENDMDL
MODEL 6
REMARK VINA RESULT:     -12.3      6.041     12.372
REMARK  Name = 448408
REMARK  8 active torsions:
REMARK  status: ('A' for Active; 'I' for Inactive)
REMARK    1  A    between atoms: N_2  and  C_25
REMARK    2  A    between atoms: C_3  and  C_6
REMARK    3  A    between atoms: C_5  and  N_12
REMARK    4  A    between atoms: C_25  and  C_26
REMARK    5  A    between atoms: C_27  and  S_32
REMARK    6  A    between atoms: S_32  and  C_33
REMARK    7  A    between atoms: C_34  and  C_39
REMARK    8  A    between atoms: C_39  and  O_40
REMARK                            x       y       z     vdW  Elec       q    Type
REMARK                         _______ _______ _______ _____ _____    ______ ____
ROOT
ATOM      1  O   UNL     1      33.194 -13.090 -21.282  0.00  0.00    -0.270 OA
ATOM      2  N   UNL     1      34.960 -13.854 -22.576  0.00  0.00    -0.297 N 
ATOM      3  C   UNL     1      33.972 -12.922 -22.239  0.00  0.00    +0.246 C 
ATOM      4  H   UNL     1      35.541 -13.657 -23.347  0.00  0.00    +0.150 HD
ENDROOT
BRANCH   3   6
ATOM      5  C   UNL     1      33.543  -9.335 -23.292  0.00  0.00    +0.090 C 
ATOM      6  C   UNL     1      33.867 -11.738 -23.077  0.00  0.00    +0.055 C 
ATOM      7  C   UNL     1      33.647 -10.489 -22.495  0.00  0.00    +0.023 C 
ATOM      8  C   UNL     1      33.664  -9.467 -24.685  0.00  0.00    +0.018 C 
ATOM      9  C   UNL     1      33.985 -11.851 -24.463  0.00  0.00    +0.005 C 
ATOM     10  C   UNL     1      33.884 -10.717 -25.266  0.00  0.00    +0.002 C 
BRANCH   5  12
ATOM     11  O   UNL     1      33.145  -6.877 -18.732  0.00  0.00    -0.207 OA
ATOM     12  N   UNL     1      33.324  -8.090 -22.712  0.00  0.00    -0.137 N 
ATOM     13  N   UNL     1      32.469  -7.150 -23.195  0.00  0.00    -0.215 N 
ATOM     14  N   UNL     1      33.496  -7.961 -21.336  0.00  0.00    -0.143 NA
ATOM     15  N   UNL     1      31.281  -5.371 -21.984  0.00  0.00    -0.309 NA
ATOM     16  N   UNL     1      31.695  -5.294 -19.608  0.00  0.00    -0.251 NA
ATOM     17  N   UNL     1      30.267  -3.764 -20.591  0.00  0.00    -0.283 N 
ATOM     18  C   UNL     1      32.054  -6.376 -22.161  0.00  0.00    +0.243 C 
ATOM     19  C   UNL     1      32.752  -6.954 -21.002  0.00  0.00    +0.241 C 
ATOM     20  C   UNL     1      32.549  -6.370 -19.671  0.00  0.00    +0.239 C 
ATOM     21  C   UNL     1      31.113  -4.843 -20.701  0.00  0.00    +0.208 C 
ATOM     22  H   UNL     1      32.198  -7.048 -24.136  0.00  0.00    +0.175 HD
ATOM     23  H   UNL     1      29.818  -3.405 -21.390  0.00  0.00    +0.156 HD
ATOM     24  H   UNL     1      30.110  -3.350 -19.711  0.00  0.00    +0.156 HD
ENDBRANCH   5  12
ENDBRANCH   3   6
BRANCH   2  25
ATOM     25  C   UNL     1      35.173 -15.089 -21.857  0.00  0.00    +0.117 C 
BRANCH  25  26
ATOM     26  C   UNL     1      34.943 -16.291 -22.726  0.00  0.00    +0.003 C 
ATOM     27  C   UNL     1      35.294 -17.573 -22.312  0.00  0.00    +0.027 C 
ATOM     28  C   UNL     1      34.362 -16.089 -23.974  0.00  0.00    -0.002 C 
ATOM     29  C   UNL     1      35.063 -18.661 -23.154  0.00  0.00    +0.006 C 
ATOM     30  C   UNL     1      34.131 -17.176 -24.816  0.00  0.00    -0.000 C 
ATOM     31  C   UNL     1      34.480 -18.462 -24.406  0.00  0.00    +0.000 C 
BRANCH  27  32
ATOM     32  S   UNL     1      36.043 -17.879 -20.717  0.00  0.00    -0.087 S 
BRANCH  32  33
ATOM     33  C   UNL     1      34.987 -19.174 -20.086  0.00  0.00    +0.028 C 
ATOM     34  C   UNL     1      35.496 -20.238 -19.338  0.00  0.00    +0.013 C 
ATOM     35  C   UNL     1      33.619 -19.106 -20.356  0.00  0.00    +0.006 C 
ATOM     36  C   UNL     1      34.638 -21.230 -18.862  0.00  0.00    -0.001 C 
ATOM     37  C   UNL     1      32.762 -20.098 -19.880  0.00  0.00    +0.000 C 
ATOM     38  C   UNL     1      33.272 -21.160 -19.133  0.00  0.00    -0.000 C 
BRANCH  34  39
ATOM     39  C   UNL     1      36.952 -20.358 -19.021  0.00  0.00    +0.164 C 
BRANCH  39  40
ATOM     40  O   UNL     1      37.140 -20.201 -17.621  0.00  0.00    -0.377 OA
ATOM     41  H   UNL     1      36.289 -19.999 -17.201  0.00  0.00    +0.211 HD
ENDBRANCH  39  40
ENDBRANCH  34  39
ENDBRANCH  32  33
ENDBRANCH  27  32
ENDBRANCH  25  26
ENDBRANCH   2  25
TORSDOF 8
ENDMDL
MODEL 7
REMARK VINA RESULT:     -12.1      1.683      2.417
REMARK  Name = 448408
REMARK  8 active torsions:
REMARK  status: ('A' for Active; 'I' for Inactive)
REMARK    1  A    between atoms: N_2  and  C_25
REMARK    2  A    between atoms: C_3  and  C_6
REMARK    3  A    between atoms: C_5  and  N_12
REMARK    4  A    between atoms: C_25  and  C_26
REMARK    5  A    between atoms: C_27  and  S_32
REMARK    6  A    between atoms: S_32  and  C_33
REMARK    7  A    between atoms: C_34  and  C_39
REMARK    8  A    between atoms: C_39  and  O_40
REMARK                            x       y       z     vdW  Elec       q    Type
REMARK                         _______ _______ _______ _____ _____    ______ ____
ROOT
ATOM      1  O   UNL     1      37.119 -18.423 -21.071  0.00  0.00    -0.270 OA
ATOM      2  N   UNL     1      35.239 -17.071 -21.192  0.00  0.00    -0.297 N 
ATOM      3  C   UNL     1      35.918 -18.234 -20.809  0.00  0.00    +0.246 C 
ATOM      4  H   UNL     1      34.288 -16.987 -20.952  0.00  0.00    +0.150 HD
ENDROOT
BRANCH   3   6
ATOM      5  C   UNL     1      35.020 -20.982 -18.401  0.00  0.00    +0.090 C 
ATOM      6  C   UNL     1      35.149 -19.244 -20.100  0.00  0.00    +0.055 C 
ATOM      7  C   UNL     1      35.750 -20.001 -19.094  0.00  0.00    +0.023 C 
ATOM      8  C   UNL     1      33.672 -21.183 -18.742  0.00  0.00    +0.018 C 
ATOM      9  C   UNL     1      33.808 -19.456 -20.426  0.00  0.00    +0.005 C 
ATOM     10  C   UNL     1      33.071 -20.425 -19.748  0.00  0.00    +0.002 C 
BRANCH   5  12
ATOM     11  O   UNL     1      34.010 -23.968 -14.271  0.00  0.00    -0.207 OA
ATOM     12  N   UNL     1      35.619 -21.736 -17.398  0.00  0.00    -0.137 N 
ATOM     13  N   UNL     1      36.777 -21.407 -16.767  0.00  0.00    -0.215 N 
ATOM     14  N   UNL     1      34.805 -22.523 -16.586  0.00  0.00    -0.143 NA
ATOM     15  N   UNL     1      37.536 -22.010 -14.509  0.00  0.00    -0.309 NA
ATOM     16  N   UNL     1      36.003 -23.378 -13.243  0.00  0.00    -0.251 NA
ATOM     17  N   UNL     1      38.021 -22.729 -12.317  0.00  0.00    -0.283 N 
ATOM     18  C   UNL     1      36.765 -21.962 -15.530  0.00  0.00    +0.243 C 
ATOM     19  C   UNL     1      35.472 -22.662 -15.483  0.00  0.00    +0.241 C 
ATOM     20  C   UNL     1      35.092 -23.400 -14.273  0.00  0.00    +0.239 C 
ATOM     21  C   UNL     1      37.139 -22.722 -13.373  0.00  0.00    +0.208 C 
ATOM     22  H   UNL     1      37.502 -20.858 -17.145  0.00  0.00    +0.175 HD
ATOM     23  H   UNL     1      38.877 -22.249 -12.386  0.00  0.00    +0.156 HD
ATOM     24  H   UNL     1      37.795 -23.215 -11.491  0.00  0.00    +0.156 HD
ENDBRANCH   5  12
ENDBRANCH   3   6
BRANCH   2  25
ATOM     25  C   UNL     1      35.859 -15.988 -21.923  0.00  0.00    +0.117 C 
BRANCH  25  26
ATOM     26  C   UNL     1      34.974 -15.475 -23.022  0.00  0.00    +0.003 C 
ATOM     27  C   UNL     1      34.281 -14.274 -22.904  0.00  0.00    +0.027 C 
ATOM     28  C   UNL     1      34.863 -16.242 -24.177  0.00  0.00    -0.002 C 
ATOM     29  C   UNL     1      33.469 -13.837 -23.950  0.00  0.00    +0.006 C 
ATOM     30  C   UNL     1      34.052 -15.805 -25.224  0.00  0.00    -0.000 C 
ATOM     31  C   UNL     1      33.355 -14.603 -25.111  0.00  0.00    +0.000 C 
BRANCH  27  32
ATOM     32  S   UNL     1      34.394 -13.257 -21.437  0.00  0.00    -0.087 S 
BRANCH  32  33
ATOM     33  C   UNL     1      33.755 -11.704 -22.047  0.00  0.00    +0.028 C 
ATOM     34  C   UNL     1      32.595 -11.130 -21.522  0.00  0.00    +0.013 C 
ATOM     35  C   UNL     1      34.445 -11.061 -23.076  0.00  0.00    +0.006 C 
ATOM     36  C   UNL     1      32.128  -9.916 -22.024  0.00  0.00    -0.001 C 
ATOM     37  C   UNL     1      33.977  -9.847 -23.578  0.00  0.00    +0.000 C 
ATOM     38  C   UNL     1      32.819  -9.274 -23.053  0.00  0.00    -0.000 C 
BRANCH  34  39
ATOM     39  C   UNL     1      31.821 -11.778 -20.420  0.00  0.00    +0.164 C 
BRANCH  39  40
ATOM     40  O   UNL     1      30.626 -11.043 -20.193  0.00  0.00    -0.377 OA
ATOM     41  H   UNL     1      30.632 -10.686 -19.291  0.00  0.00    +0.211 HD
ENDBRANCH  39  40
ENDBRANCH  34  39
ENDBRANCH  32  33
ENDBRANCH  27  32
ENDBRANCH  25  26
ENDBRANCH   2  25
TORSDOF 8
ENDMDL
MODEL 8
REMARK VINA RESULT:     -12.1      4.226      7.922
REMARK  Name = 448408
REMARK  8 active torsions:
REMARK  status: ('A' for Active; 'I' for Inactive)
REMARK    1  A    between atoms: N_2  and  C_25
REMARK    2  A    between atoms: C_3  and  C_6
REMARK    3  A    between atoms: C_5  and  N_12
REMARK    4  A    between atoms: C_25  and  C_26
REMARK    5  A    between atoms: C_27  and  S_32
REMARK    6  A    between atoms: S_32  and  C_33
REMARK    7  A    between atoms: C_34  and  C_39
REMARK    8  A    between atoms: C_39  and  O_40
REMARK                            x       y       z     vdW  Elec       q    Type
REMARK                         _______ _______ _______ _____ _____    ______ ____
ROOT
ATOM      1  O   UNL     1      34.002 -12.868 -20.956  0.00  0.00    -0.270 OA
ATOM      2  N   UNL     1      33.453 -11.823 -22.952  0.00  0.00    -0.297 N 
ATOM      3  C   UNL     1      33.891 -12.916 -22.194  0.00  0.00    +0.246 C 
ATOM      4  H   UNL     1      33.389 -11.931 -23.929  0.00  0.00    +0.150 HD
ENDROOT
BRANCH   3   6
ATOM      5  C   UNL     1      34.934 -16.459 -22.913  0.00  0.00    +0.090 C 
ATOM      6  C   UNL     1      34.243 -14.125 -22.921  0.00  0.00    +0.055 C 
ATOM      7  C   UNL     1      34.591 -15.282 -22.224  0.00  0.00    +0.023 C 
ATOM      8  C   UNL     1      34.918 -16.445 -24.317  0.00  0.00    +0.018 C 
ATOM      9  C   UNL     1      34.232 -14.128 -24.317  0.00  0.00    +0.005 C 
ATOM     10  C   UNL     1      34.569 -15.287 -25.014  0.00  0.00    +0.002 C 
BRANCH   5  12
ATOM     11  O   UNL     1      32.983 -20.378 -20.114  0.00  0.00    -0.207 OA
ATOM     12  N   UNL     1      35.280 -17.612 -22.218  0.00  0.00    -0.137 N 
ATOM     13  N   UNL     1      36.410 -17.762 -21.478  0.00  0.00    -0.215 N 
ATOM     14  N   UNL     1      34.259 -18.439 -21.757  0.00  0.00    -0.143 NA
ATOM     15  N   UNL     1      36.816 -19.231 -19.550  0.00  0.00    -0.309 NA
ATOM     16  N   UNL     1      34.938 -20.594 -18.886  0.00  0.00    -0.251 NA
ATOM     17  N   UNL     1      36.938 -20.727 -17.732  0.00  0.00    -0.283 N 
ATOM     18  C   UNL     1      36.173 -18.684 -20.513  0.00  0.00    +0.243 C 
ATOM     19  C   UNL     1      34.775 -19.075 -20.751  0.00  0.00    +0.241 C 
ATOM     20  C   UNL     1      34.147 -20.080 -19.886  0.00  0.00    +0.239 C 
ATOM     21  C   UNL     1      36.183 -20.183 -18.746  0.00  0.00    +0.208 C 
ATOM     22  H   UNL     1      37.258 -17.281 -21.619  0.00  0.00    +0.175 HD
ATOM     23  H   UNL     1      37.871 -20.440 -17.604  0.00  0.00    +0.156 HD
ATOM     24  H   UNL     1      36.545 -21.403 -17.134  0.00  0.00    +0.156 HD
ENDBRANCH   5  12
ENDBRANCH   3   6
BRANCH   2  25
ATOM     25  C   UNL     1      33.091 -10.547 -22.379  0.00  0.00    +0.117 C 
BRANCH  25  26
ATOM     26  C   UNL     1      33.804  -9.408 -23.049  0.00  0.00    +0.003 C 
ATOM     27  C   UNL     1      33.223  -8.150 -23.173  0.00  0.00    +0.027 C 
ATOM     28  C   UNL     1      35.080  -9.647 -23.552  0.00  0.00    -0.002 C 
ATOM     29  C   UNL     1      33.923  -7.122 -23.805  0.00  0.00    +0.006 C 
ATOM     30  C   UNL     1      35.780  -8.620 -24.183  0.00  0.00    -0.000 C 
ATOM     31  C   UNL     1      35.202  -7.357 -24.309  0.00  0.00    +0.000 C 
BRANCH  27  32
ATOM     32  S   UNL     1      31.587  -7.799 -22.543  0.00  0.00    -0.087 S 
BRANCH  32  33
ATOM     33  C   UNL     1      31.958  -6.594 -21.277  0.00  0.00    +0.028 C 
ATOM     34  C   UNL     1      32.293  -6.975 -19.976  0.00  0.00    +0.013 C 
ATOM     35  C   UNL     1      31.906  -5.241 -21.613  0.00  0.00    +0.006 C 
ATOM     36  C   UNL     1      32.577  -6.005 -19.015  0.00  0.00    -0.001 C 
ATOM     37  C   UNL     1      32.189  -4.270 -20.652  0.00  0.00    +0.000 C 
ATOM     38  C   UNL     1      32.525  -4.653 -19.353  0.00  0.00    -0.000 C 
BRANCH  34  39
ATOM     39  C   UNL     1      32.363  -8.411 -19.565  0.00  0.00    +0.164 C 
BRANCH  39  40
ATOM     40  O   UNL     1      33.106  -8.517 -18.358  0.00  0.00    -0.377 OA
ATOM     41  H   UNL     1      32.534  -8.868 -17.657  0.00  0.00    +0.211 HD
ENDBRANCH  39  40
ENDBRANCH  34  39
ENDBRANCH  32  33
ENDBRANCH  27  32
ENDBRANCH  25  26
ENDBRANCH   2  25
TORSDOF 8
ENDMDL
MODEL 9
REMARK VINA RESULT:     -12.1      5.686     11.937
REMARK  Name = 448408
REMARK  8 active torsions:
REMARK  status: ('A' for Active; 'I' for Inactive)
REMARK    1  A    between atoms: N_2  and  C_25
REMARK    2  A    between atoms: C_3  and  C_6
REMARK    3  A    between atoms: C_5  and  N_12
REMARK    4  A    between atoms: C_25  and  C_26
REMARK    5  A    between atoms: C_27  and  S_32
REMARK    6  A    between atoms: S_32  and  C_33
REMARK    7  A    between atoms: C_34  and  C_39
REMARK    8  A    between atoms: C_39  and  O_40
REMARK                            x       y       z     vdW  Elec       q    Type
REMARK                         _______ _______ _______ _____ _____    ______ ____
ROOT
ATOM      1  O   UNL     1      34.938 -14.642 -19.845  0.00  0.00    -0.270 OA
ATOM      2  N   UNL     1      34.796 -14.282 -22.131  0.00  0.00    -0.297 N 
ATOM      3  C   UNL     1      34.432 -14.031 -20.803  0.00  0.00    +0.246 C 
ATOM      4  H   UNL     1      34.355 -13.761 -22.841  0.00  0.00    +0.150 HD
ENDROOT
BRANCH   3   6
ATOM      5  C   UNL     1      32.285 -10.974 -21.252  0.00  0.00    +0.090 C 
ATOM      6  C   UNL     1      33.404 -13.028 -20.578  0.00  0.00    +0.055 C 
ATOM      7  C   UNL     1      33.274 -11.952 -21.456  0.00  0.00    +0.023 C 
ATOM      8  C   UNL     1      31.431 -11.103 -20.145  0.00  0.00    +0.018 C 
ATOM      9  C   UNL     1      32.546 -13.142 -19.483  0.00  0.00    +0.005 C 
ATOM     10  C   UNL     1      31.560 -12.180 -19.266  0.00  0.00    +0.002 C 
BRANCH   5  12
ATOM     11  O   UNL     1      34.991  -7.592 -24.121  0.00  0.00    -0.207 OA
ATOM     12  N   UNL     1      32.156  -9.902 -22.128  0.00  0.00    -0.137 N 
ATOM     13  N   UNL     1      31.212  -8.929 -22.028  0.00  0.00    -0.215 N 
ATOM     14  N   UNL     1      33.296  -9.438 -22.779  0.00  0.00    -0.143 NA
ATOM     15  N   UNL     1      31.296  -6.603 -22.819  0.00  0.00    -0.309 NA
ATOM     16  N   UNL     1      33.346  -5.970 -23.925  0.00  0.00    -0.251 NA
ATOM     17  N   UNL     1      31.636  -4.433 -23.672  0.00  0.00    -0.283 N 
ATOM     18  C   UNL     1      31.695  -7.801 -22.606  0.00  0.00    +0.243 C 
ATOM     19  C   UNL     1      33.035  -8.201 -23.065  0.00  0.00    +0.241 C 
ATOM     20  C   UNL     1      33.884  -7.223 -23.756  0.00  0.00    +0.239 C 
ATOM     21  C   UNL     1      32.134  -5.700 -23.479  0.00  0.00    +0.208 C 
ATOM     22  H   UNL     1      30.327  -9.026 -21.607  0.00  0.00    +0.175 HD
ATOM     23  H   UNL     1      30.734  -4.203 -23.351  0.00  0.00    +0.156 HD
ATOM     24  H   UNL     1      32.182  -3.754 -24.132  0.00  0.00    +0.156 HD
ENDBRANCH   5  12
ENDBRANCH   3   6
BRANCH   2  25
ATOM     25  C   UNL     1      35.784 -15.264 -22.518  0.00  0.00    +0.117 C 
BRANCH  25  26
ATOM     26  C   UNL     1      35.160 -16.450 -23.194  0.00  0.00    +0.003 C 
ATOM     27  C   UNL     1      35.281 -17.737 -22.676  0.00  0.00    +0.027 C 
ATOM     28  C   UNL     1      34.449 -16.228 -24.370  0.00  0.00    -0.002 C 
ATOM     29  C   UNL     1      34.686 -18.809 -23.340  0.00  0.00    +0.006 C 
ATOM     30  C   UNL     1      33.854 -17.300 -25.033  0.00  0.00    -0.000 C 
ATOM     31  C   UNL     1      33.971 -18.590 -24.518  0.00  0.00    +0.000 C 
BRANCH  27  32
ATOM     32  S   UNL     1      36.185 -18.068 -21.170  0.00  0.00    -0.087 S 
BRANCH  32  33
ATOM     33  C   UNL     1      35.064 -19.180 -20.335  0.00  0.00    +0.028 C 
ATOM     34  C   UNL     1      35.520 -20.145 -19.435  0.00  0.00    +0.013 C 
ATOM     35  C   UNL     1      33.698 -19.069 -20.601  0.00  0.00    +0.006 C 
ATOM     36  C   UNL     1      34.613 -20.995 -18.802  0.00  0.00    -0.001 C 
ATOM     37  C   UNL     1      32.791 -19.919 -19.969  0.00  0.00    +0.000 C 
ATOM     38  C   UNL     1      33.249 -20.882 -19.069  0.00  0.00    -0.000 C 
BRANCH  34  39
ATOM     39  C   UNL     1      36.972 -20.305 -19.115  0.00  0.00    +0.164 C 
BRANCH  39  40
ATOM     40  O   UNL     1      37.163 -20.151 -17.715  0.00  0.00    -0.377 OA
ATOM     41  H   UNL     1      36.306 -19.997 -17.287  0.00  0.00    +0.211 HD
ENDBRANCH  39  40
ENDBRANCH  34  39
ENDBRANCH  32  33
ENDBRANCH  27  32
ENDBRANCH  25  26
ENDBRANCH   2  25
TORSDOF 8
ENDMDL
