MODEL 1
REMARK VINA RESULT:     -11.7      0.000      0.000
REMARK  Name = 11955716
REMARK  6 active torsions:
REMARK  status: ('A' for Active; 'I' for Inactive)
REMARK    1  A    between atoms: C_4  and  C_25
REMARK    2  A    between atoms: C_11  and  C_12
REMARK    3  A    between atoms: C_13  and  C_18
REMARK    4  A    between atoms: C_15  and  O_21
REMARK    5  A    between atoms: C_16  and  O_23
REMARK    6  A    between atoms: C_25  and  N_26
REMARK                            x       y       z     vdW  Elec       q    Type
REMARK                         _______ _______ _______ _____ _____    ______ ____
ROOT
ATOM      1  O   UNL     1      33.862 -11.596 -24.833  0.00  0.00    -0.269 OA
ATOM      2  N   UNL     1      34.316 -12.757 -22.871  0.00  0.00    -0.231 N 
ATOM      3  C   UNL     1      34.926 -14.951 -22.390  0.00  0.00    +0.016 C 
ATOM      4  C   UNL     1      35.480 -16.956 -21.223  0.00  0.00    -0.043 C 
ATOM      5  C   UNL     1      34.769 -14.283 -21.169  0.00  0.00    +0.016 C 
ATOM      6  C   UNL     1      34.659 -14.024 -23.528  0.00  0.00    +0.072 C 
ATOM      7  C   UNL     1      34.391 -12.858 -21.402  0.00  0.00    +0.072 C 
ATOM      8  C   UNL     1      35.282 -16.287 -22.433  0.00  0.00    -0.005 C 
ATOM      9  C   UNL     1      35.323 -16.286 -19.998  0.00  0.00    -0.006 C 
ATOM     10  C   UNL     1      34.964 -14.937 -19.966  0.00  0.00    +0.001 C 
ATOM     11  C   UNL     1      33.915 -11.652 -23.607  0.00  0.00    +0.259 C 
ENDROOT
BRANCH  11  12
ATOM     12  C   UNL     1      33.507 -10.455 -22.857  0.00  0.00    +0.088 C 
ATOM     13  C   UNL     1      32.278  -9.480 -21.024  0.00  0.00    +0.012 C 
ATOM     14  C   UNL     1      32.677 -10.604 -21.749  0.00  0.00    +0.006 C 
ATOM     15  C   UNL     1      33.941  -9.190 -23.245  0.00  0.00    +0.141 C 
ATOM     16  C   UNL     1      32.712  -8.212 -21.410  0.00  0.00    +0.133 C 
ATOM     17  C   UNL     1      33.543  -8.067 -22.520  0.00  0.00    +0.073 C 
BRANCH  13  18
ATOM     18  C   UNL     1      31.388  -9.654 -19.837  0.00  0.00    +0.025 C 
ATOM     19  C   UNL     1      32.180  -9.857 -18.534  0.00  0.00    +0.005 C 
ATOM     20  C   UNL     1      30.380 -10.803 -20.023  0.00  0.00    +0.005 C 
ENDBRANCH  13  18
BRANCH  15  21
ATOM     21  O   UNL     1      34.753  -9.028 -24.328  0.00  0.00    -0.505 OA
ATOM     22  H   UNL     1      34.612  -9.540 -25.100  0.00  0.00    +0.292 HD
ENDBRANCH  15  21
BRANCH  16  23
ATOM     23  O   UNL     1      32.332  -7.104 -20.714  0.00  0.00    -0.506 OA
ATOM     24  H   UNL     1      32.270  -7.136 -19.780  0.00  0.00    +0.292 HD
ENDBRANCH  16  23
ENDBRANCH  11  12
BRANCH   4  25
ATOM     25  C   UNL     1      35.863 -18.404 -21.229  0.00  0.00    -0.050 C 
BRANCH  25  26
ATOM     26  N   UNL     1      35.308 -19.118 -20.081  0.00  0.00    +0.387 N 
ATOM     27  N   UNL     1      34.254 -21.474 -18.778  0.00  0.00    +0.383 N 
ATOM     28  C   UNL     1      33.960 -19.615 -20.380  0.00  0.00    -0.100 C 
ATOM     29  C   UNL     1      36.185 -20.226 -19.684  0.00  0.00    -0.100 C 
ATOM     30  C   UNL     1      33.377 -20.367 -19.178  0.00  0.00    -0.101 C 
ATOM     31  C   UNL     1      35.604 -20.977 -18.481  0.00  0.00    -0.101 C 
ATOM     32  C   UNL     1      33.700 -22.187 -17.629  0.00  0.00    -0.101 C 
ATOM     33  H   UNL     1      35.245 -18.463 -19.303  0.00  0.00    -0.079 HD
ATOM     34  H   UNL     1      34.319 -22.131 -19.556  0.00  0.00    -0.080 HD
ENDBRANCH  25  26
ENDBRANCH   4  25
TORSDOF 6
ENDMDL
MODEL 2
REMARK VINA RESULT:     -11.5      5.837     11.592
REMARK  Name = 11955716
REMARK  6 active torsions:
REMARK  status: ('A' for Active; 'I' for Inactive)
REMARK    1  A    between atoms: C_4  and  C_25
REMARK    2  A    between atoms: C_11  and  C_12
REMARK    3  A    between atoms: C_13  and  C_18
REMARK    4  A    between atoms: C_15  and  O_21
REMARK    5  A    between atoms: C_16  and  O_23
REMARK    6  A    between atoms: C_25  and  N_26
REMARK                            x       y       z     vdW  Elec       q    Type
REMARK                         _______ _______ _______ _____ _____    ______ ____
ROOT
ATOM      1  O   UNL     1      35.801 -23.010 -15.344  0.00  0.00    -0.269 OA
ATOM      2  N   UNL     1      34.592 -21.967 -17.034  0.00  0.00    -0.231 N 
ATOM      3  C   UNL     1      35.167 -20.627 -18.849  0.00  0.00    +0.016 C 
ATOM      4  C   UNL     1      35.040 -19.223 -20.773  0.00  0.00    -0.043 C 
ATOM      5  C   UNL     1      33.770 -20.720 -18.823  0.00  0.00    +0.016 C 
ATOM      6  C   UNL     1      35.761 -21.416 -17.730  0.00  0.00    +0.072 C 
ATOM      7  C   UNL     1      33.327 -21.582 -17.687  0.00  0.00    +0.072 C 
ATOM      8  C   UNL     1      35.816 -19.884 -19.818  0.00  0.00    -0.005 C 
ATOM      9  C   UNL     1      33.638 -19.316 -20.747  0.00  0.00    -0.006 C 
ATOM     10  C   UNL     1      32.992 -20.070 -19.764  0.00  0.00    +0.001 C 
ATOM     11  C   UNL     1      34.732 -22.703 -15.867  0.00  0.00    +0.259 C 
ENDROOT
BRANCH  11  12
ATOM     12  C   UNL     1      33.500 -23.139 -15.194  0.00  0.00    +0.088 C 
ATOM     13  C   UNL     1      31.089 -23.156 -15.098  0.00  0.00    +0.012 C 
ATOM     14  C   UNL     1      32.270 -22.754 -15.722  0.00  0.00    +0.006 C 
ATOM     15  C   UNL     1      33.556 -23.924 -14.045  0.00  0.00    +0.141 C 
ATOM     16  C   UNL     1      31.142 -23.943 -13.947  0.00  0.00    +0.133 C 
ATOM     17  C   UNL     1      32.375 -24.326 -13.420  0.00  0.00    +0.073 C 
BRANCH  13  18
ATOM     18  C   UNL     1      29.777 -22.736 -15.675  0.00  0.00    +0.025 C 
ATOM     19  C   UNL     1      29.029 -21.740 -14.771  0.00  0.00    +0.005 C 
ATOM     20  C   UNL     1      28.868 -23.936 -15.999  0.00  0.00    +0.005 C 
ENDBRANCH  13  18
BRANCH  15  21
ATOM     21  O   UNL     1      34.752 -24.308 -13.515  0.00  0.00    -0.505 OA
ATOM     22  H   UNL     1      35.550 -24.088 -13.953  0.00  0.00    +0.292 HD
ENDBRANCH  15  21
BRANCH  16  23
ATOM     23  O   UNL     1      29.999 -24.344 -13.324  0.00  0.00    -0.506 OA
ATOM     24  H   UNL     1      29.682 -25.217 -13.443  0.00  0.00    +0.292 HD
ENDBRANCH  16  23
ENDBRANCH  11  12
BRANCH   4  25
ATOM     25  C   UNL     1      35.707 -18.406 -21.836  0.00  0.00    -0.050 C 
BRANCH  25  26
ATOM     26  N   UNL     1      35.052 -17.113 -22.018  0.00  0.00    +0.387 N 
ATOM     27  N   UNL     1      35.069 -14.267 -22.529  0.00  0.00    +0.383 N 
ATOM     28  C   UNL     1      35.493 -16.157 -20.994  0.00  0.00    -0.100 C 
ATOM     29  C   UNL     1      35.315 -16.581 -23.361  0.00  0.00    -0.100 C 
ATOM     30  C   UNL     1      34.810 -14.799 -21.186  0.00  0.00    -0.101 C 
ATOM     31  C   UNL     1      34.630 -15.223 -23.554  0.00  0.00    -0.101 C 
ATOM     32  C   UNL     1      34.413 -12.974 -22.712  0.00  0.00    -0.101 C 
ATOM     33  H   UNL     1      34.047 -17.251 -21.918  0.00  0.00    -0.079 HD
ATOM     34  H   UNL     1      36.075 -14.128 -22.631  0.00  0.00    -0.080 HD
ENDBRANCH  25  26
ENDBRANCH   4  25
TORSDOF 6
ENDMDL
MODEL 3
REMARK VINA RESULT:     -11.4      6.790     12.901
REMARK  Name = 11955716
REMARK  6 active torsions:
REMARK  status: ('A' for Active; 'I' for Inactive)
REMARK    1  A    between atoms: C_4  and  C_25
REMARK    2  A    between atoms: C_11  and  C_12
REMARK    3  A    between atoms: C_13  and  C_18
REMARK    4  A    between atoms: C_15  and  O_21
REMARK    5  A    between atoms: C_16  and  O_23
REMARK    6  A    between atoms: C_25  and  N_26
REMARK                            x       y       z     vdW  Elec       q    Type
REMARK                         _______ _______ _______ _____ _____    ______ ____
ROOT
ATOM      1  O   UNL     1      33.163 -24.060 -14.589  0.00  0.00    -0.269 OA
ATOM      2  N   UNL     1      34.707 -22.715 -15.691  0.00  0.00    -0.231 N 
ATOM      3  C   UNL     1      34.761 -21.684 -17.777  0.00  0.00    +0.016 C 
ATOM      4  C   UNL     1      35.480 -20.455 -19.690  0.00  0.00    -0.043 C 
ATOM      5  C   UNL     1      35.988 -21.427 -17.150  0.00  0.00    +0.016 C 
ATOM      6  C   UNL     1      33.885 -22.500 -16.887  0.00  0.00    +0.072 C 
ATOM      7  C   UNL     1      36.018 -22.048 -15.793  0.00  0.00    +0.072 C 
ATOM      8  C   UNL     1      34.493 -21.204 -19.045  0.00  0.00    -0.005 C 
ATOM      9  C   UNL     1      36.710 -20.197 -19.062  0.00  0.00    -0.006 C 
ATOM     10  C   UNL     1      36.971 -20.686 -17.780  0.00  0.00    +0.001 C 
ATOM     11  C   UNL     1      34.263 -23.516 -14.648  0.00  0.00    +0.259 C 
ENDROOT
BRANCH  11  12
ATOM     12  C   UNL     1      35.191 -23.743 -13.532  0.00  0.00    +0.088 C 
ATOM     13  C   UNL     1      37.298 -24.607 -12.734  0.00  0.00    +0.012 C 
ATOM     14  C   UNL     1      36.404 -24.381 -13.781  0.00  0.00    +0.006 C 
ATOM     15  C   UNL     1      34.868 -23.329 -12.242  0.00  0.00    +0.141 C 
ATOM     16  C   UNL     1      36.977 -24.193 -11.441  0.00  0.00    +0.133 C 
ATOM     17  C   UNL     1      35.762 -23.554 -11.195  0.00  0.00    +0.073 C 
BRANCH  13  18
ATOM     18  C   UNL     1      38.595 -25.292 -13.015  0.00  0.00    +0.025 C 
ATOM     19  C   UNL     1      39.765 -24.301 -13.154  0.00  0.00    +0.005 C 
ATOM     20  C   UNL     1      38.523 -26.197 -14.259  0.00  0.00    +0.005 C 
ENDBRANCH  13  18
BRANCH  15  21
ATOM     21  O   UNL     1      33.684 -22.704 -11.982  0.00  0.00    -0.505 OA
ATOM     22  H   UNL     1      33.556 -22.267 -11.163  0.00  0.00    +0.292 HD
ENDBRANCH  15  21
BRANCH  16  23
ATOM     23  O   UNL     1      37.838 -24.406 -10.408  0.00  0.00    -0.506 OA
ATOM     24  H   UNL     1      38.538 -23.804 -10.249  0.00  0.00    +0.292 HD
ENDBRANCH  16  23
ENDBRANCH  11  12
BRANCH   4  25
ATOM     25  C   UNL     1      35.227 -19.922 -21.066  0.00  0.00    -0.050 C 
BRANCH  25  26
ATOM     26  N   UNL     1      35.552 -18.500 -21.167  0.00  0.00    +0.387 N 
ATOM     27  N   UNL     1      34.887 -15.737 -21.693  0.00  0.00    +0.383 N 
ATOM     28  C   UNL     1      35.343 -18.015 -22.536  0.00  0.00    -0.100 C 
ATOM     29  C   UNL     1      34.755 -17.714 -20.218  0.00  0.00    -0.100 C 
ATOM     30  C   UNL     1      35.681 -16.524 -22.643  0.00  0.00    -0.101 C 
ATOM     31  C   UNL     1      35.095 -16.224 -20.323  0.00  0.00    -0.101 C 
ATOM     32  C   UNL     1      35.214 -14.316 -21.793  0.00  0.00    -0.101 C 
ATOM     33  H   UNL     1      36.538 -18.386 -20.931  0.00  0.00    -0.079 HD
ATOM     34  H   UNL     1      33.900 -15.851 -21.928  0.00  0.00    -0.080 HD
ENDBRANCH  25  26
ENDBRANCH   4  25
TORSDOF 6
ENDMDL
MODEL 4
REMARK VINA RESULT:     -11.1      1.005      2.380
REMARK  Name = 11955716
REMARK  6 active torsions:
REMARK  status: ('A' for Active; 'I' for Inactive)
REMARK    1  A    between atoms: C_4  and  C_25
REMARK    2  A    between atoms: C_11  and  C_12
REMARK    3  A    between atoms: C_13  and  C_18
REMARK    4  A    between atoms: C_15  and  O_21
REMARK    5  A    between atoms: C_16  and  O_23
REMARK    6  A    between atoms: C_25  and  N_26
REMARK                            x       y       z     vdW  Elec       q    Type
REMARK                         _______ _______ _______ _____ _____    ______ ____
ROOT
ATOM      1  O   UNL     1      33.786 -12.062 -24.878  0.00  0.00    -0.269 OA
ATOM      2  N   UNL     1      34.297 -13.114 -22.868  0.00  0.00    -0.231 N 
ATOM      3  C   UNL     1      34.997 -15.258 -22.294  0.00  0.00    +0.016 C 
ATOM      4  C   UNL     1      35.637 -17.184 -21.041  0.00  0.00    -0.043 C 
ATOM      5  C   UNL     1      34.822 -14.541 -21.103  0.00  0.00    +0.016 C 
ATOM      6  C   UNL     1      34.687 -14.395 -23.470  0.00  0.00    +0.072 C 
ATOM      7  C   UNL     1      34.386 -13.144 -21.397  0.00  0.00    +0.072 C 
ATOM      8  C   UNL     1      35.405 -16.579 -22.279  0.00  0.00    -0.005 C 
ATOM      9  C   UNL     1      35.461 -16.466 -19.847  0.00  0.00    -0.006 C 
ATOM     10  C   UNL     1      35.050 -15.131 -19.873  0.00  0.00    +0.001 C 
ATOM     11  C   UNL     1      33.848 -12.060 -23.651  0.00  0.00    +0.259 C 
ENDROOT
BRANCH  11  12
ATOM     12  C   UNL     1      33.399 -10.847 -22.953  0.00  0.00    +0.088 C 
ATOM     13  C   UNL     1      33.620  -8.475 -22.572  0.00  0.00    +0.012 C 
ATOM     14  C   UNL     1      34.032  -9.637 -23.225  0.00  0.00    +0.006 C 
ATOM     15  C   UNL     1      32.356 -10.902 -22.032  0.00  0.00    +0.141 C 
ATOM     16  C   UNL     1      32.575  -8.527 -21.649  0.00  0.00    +0.133 C 
ATOM     17  C   UNL     1      31.943  -9.741 -21.378  0.00  0.00    +0.073 C 
BRANCH  13  18
ATOM     18  C   UNL     1      34.308  -7.184 -22.873  0.00  0.00    +0.025 C 
ATOM     19  C   UNL     1      33.531  -6.328 -23.890  0.00  0.00    +0.005 C 
ATOM     20  C   UNL     1      35.755  -7.389 -23.357  0.00  0.00    +0.005 C 
ENDBRANCH  13  18
BRANCH  15  21
ATOM     21  O   UNL     1      31.726 -12.079 -21.753  0.00  0.00    -0.505 OA
ATOM     22  H   UNL     1      31.397 -12.610 -22.451  0.00  0.00    +0.292 HD
ENDBRANCH  15  21
BRANCH  16  23
ATOM     23  O   UNL     1      32.161  -7.402 -21.001  0.00  0.00    -0.506 OA
ATOM     24  H   UNL     1      31.612  -6.784 -21.441  0.00  0.00    +0.292 HD
ENDBRANCH  16  23
ENDBRANCH  11  12
BRANCH   4  25
ATOM     25  C   UNL     1      36.077 -18.614 -20.985  0.00  0.00    -0.050 C 
BRANCH  25  26
ATOM     26  N   UNL     1      35.478 -19.324 -19.857  0.00  0.00    +0.387 N 
ATOM     27  N   UNL     1      34.322 -21.658 -18.603  0.00  0.00    +0.383 N 
ATOM     28  C   UNL     1      34.119 -19.771 -20.186  0.00  0.00    -0.100 C 
ATOM     29  C   UNL     1      36.310 -20.466 -19.458  0.00  0.00    -0.100 C 
ATOM     30  C   UNL     1      33.490 -20.518 -19.004  0.00  0.00    -0.101 C 
ATOM     31  C   UNL     1      35.682 -21.212 -18.276  0.00  0.00    -0.101 C 
ATOM     32  C   UNL     1      33.723 -22.367 -17.474  0.00  0.00    -0.101 C 
ATOM     33  H   UNL     1      35.423 -18.677 -19.071  0.00  0.00    -0.079 HD
ATOM     34  H   UNL     1      34.378 -22.308 -19.389  0.00  0.00    -0.080 HD
ENDBRANCH  25  26
ENDBRANCH   4  25
TORSDOF 6
ENDMDL
MODEL 5
REMARK VINA RESULT:     -11.1      3.561      6.861
REMARK  Name = 11955716
REMARK  6 active torsions:
REMARK  status: ('A' for Active; 'I' for Inactive)
REMARK    1  A    between atoms: C_4  and  C_25
REMARK    2  A    between atoms: C_11  and  C_12
REMARK    3  A    between atoms: C_13  and  C_18
REMARK    4  A    between atoms: C_15  and  O_21
REMARK    5  A    between atoms: C_16  and  O_23
REMARK    6  A    between atoms: C_25  and  N_26
REMARK                            x       y       z     vdW  Elec       q    Type
REMARK                         _______ _______ _______ _____ _____    ______ ____
ROOT
ATOM      1  O   UNL     1      37.641 -17.912 -21.698  0.00  0.00    -0.269 OA
ATOM      2  N   UNL     1      35.750 -18.802 -20.680  0.00  0.00    -0.231 N 
ATOM      3  C   UNL     1      35.398 -20.445 -19.069  0.00  0.00    +0.016 C 
ATOM      4  C   UNL     1      34.349 -21.984 -17.579  0.00  0.00    -0.043 C 
ATOM      5  C   UNL     1      34.140 -19.996 -19.493  0.00  0.00    +0.016 C 
ATOM      6  C   UNL     1      36.480 -19.709 -19.786  0.00  0.00    +0.072 C 
ATOM      7  C   UNL     1      34.289 -18.924 -20.520  0.00  0.00    +0.072 C 
ATOM      8  C   UNL     1      35.518 -21.437 -18.113  0.00  0.00    -0.005 C 
ATOM      9  C   UNL     1      33.087 -21.534 -18.003  0.00  0.00    -0.006 C 
ATOM     10  C   UNL     1      32.977 -20.531 -18.969  0.00  0.00    +0.001 C 
ATOM     11  C   UNL     1      36.421 -17.995 -21.588  0.00  0.00    +0.259 C 
ENDROOT
BRANCH  11  12
ATOM     12  C   UNL     1      35.602 -17.184 -22.500  0.00  0.00    +0.088 C 
ATOM     13  C   UNL     1      34.650 -15.044 -23.079  0.00  0.00    +0.012 C 
ATOM     14  C   UNL     1      35.424 -15.831 -22.225  0.00  0.00    +0.006 C 
ATOM     15  C   UNL     1      35.010 -17.756 -23.623  0.00  0.00    +0.141 C 
ATOM     16  C   UNL     1      34.056 -15.614 -24.205  0.00  0.00    +0.133 C 
ATOM     17  C   UNL     1      34.236 -16.970 -24.477  0.00  0.00    +0.073 C 
BRANCH  13  18
ATOM     18  C   UNL     1      34.467 -13.594 -22.772  0.00  0.00    +0.025 C 
ATOM     19  C   UNL     1      34.879 -13.242 -21.332  0.00  0.00    +0.005 C 
ATOM     20  C   UNL     1      33.029 -13.114 -23.039  0.00  0.00    +0.005 C 
ENDBRANCH  13  18
BRANCH  15  21
ATOM     21  O   UNL     1      35.174 -19.080 -23.906  0.00  0.00    -0.505 OA
ATOM     22  H   UNL     1      36.028 -19.417 -24.090  0.00  0.00    +0.292 HD
ENDBRANCH  15  21
BRANCH  16  23
ATOM     23  O   UNL     1      33.296 -14.861 -25.048  0.00  0.00    -0.506 OA
ATOM     24  H   UNL     1      32.564 -14.380 -24.717  0.00  0.00    +0.292 HD
ENDBRANCH  16  23
ENDBRANCH  11  12
BRANCH   4  25
ATOM     25  C   UNL     1      34.439 -23.062 -16.544  0.00  0.00    -0.050 C 
BRANCH  25  26
ATOM     26  N   UNL     1      35.093 -22.592 -15.324  0.00  0.00    +0.387 N 
ATOM     27  N   UNL     1      36.722 -22.969 -12.966  0.00  0.00    +0.383 N 
ATOM     28  C   UNL     1      34.579 -23.306 -14.149  0.00  0.00    -0.100 C 
ATOM     29  C   UNL     1      36.550 -22.748 -15.421  0.00  0.00    -0.100 C 
ATOM     30  C   UNL     1      35.266 -22.816 -12.870  0.00  0.00    -0.101 C 
ATOM     31  C   UNL     1      37.237 -22.256 -14.142  0.00  0.00    -0.101 C 
ATOM     32  C   UNL     1      37.376 -22.498 -11.747  0.00  0.00    -0.101 C 
ATOM     33  H   UNL     1      34.883 -21.600 -15.216  0.00  0.00    -0.079 HD
ATOM     34  H   UNL     1      36.935 -23.962 -13.074  0.00  0.00    -0.080 HD
ENDBRANCH  25  26
ENDBRANCH   4  25
TORSDOF 6
ENDMDL
MODEL 6
REMARK VINA RESULT:     -11.0      6.062     12.262
REMARK  Name = 11955716
REMARK  6 active torsions:
REMARK  status: ('A' for Active; 'I' for Inactive)
REMARK    1  A    between atoms: C_4  and  C_25
REMARK    2  A    between atoms: C_11  and  C_12
REMARK    3  A    between atoms: C_13  and  C_18
REMARK    4  A    between atoms: C_15  and  O_21
REMARK    5  A    between atoms: C_16  and  O_23
REMARK    6  A    between atoms: C_25  and  N_26
REMARK                            x       y       z     vdW  Elec       q    Type
REMARK                         _______ _______ _______ _____ _____    ______ ____
ROOT
ATOM      1  O   UNL     1      32.132 -23.124 -15.894  0.00  0.00    -0.269 OA
ATOM      2  N   UNL     1      34.013 -22.059 -16.751  0.00  0.00    -0.231 N 
ATOM      3  C   UNL     1      34.471 -20.923 -18.730  0.00  0.00    +0.016 C 
ATOM      4  C   UNL     1      35.601 -19.744 -20.468  0.00  0.00    -0.043 C 
ATOM      5  C   UNL     1      35.659 -20.969 -17.988  0.00  0.00    +0.016 C 
ATOM      6  C   UNL     1      33.368 -21.597 -17.986  0.00  0.00    +0.072 C 
ATOM      7  C   UNL     1      35.435 -21.673 -16.691  0.00  0.00    +0.072 C 
ATOM      8  C   UNL     1      34.427 -20.314 -19.970  0.00  0.00    -0.005 C 
ATOM      9  C   UNL     1      36.792 -19.790 -19.725  0.00  0.00    -0.006 C 
ATOM     10  C   UNL     1      36.827 -20.408 -18.472  0.00  0.00    +0.001 C 
ATOM     11  C   UNL     1      33.320 -22.818 -15.819  0.00  0.00    +0.259 C 
ENDROOT
BRANCH  11  12
ATOM     12  C   UNL     1      34.073 -23.308 -14.656  0.00  0.00    +0.088 C 
ATOM     13  C   UNL     1      35.993 -24.473 -13.774  0.00  0.00    +0.012 C 
ATOM     14  C   UNL     1      35.264 -23.999 -14.865  0.00  0.00    +0.006 C 
ATOM     15  C   UNL     1      33.607 -23.087 -13.362  0.00  0.00    +0.141 C 
ATOM     16  C   UNL     1      35.529 -24.253 -12.477  0.00  0.00    +0.133 C 
ATOM     17  C   UNL     1      34.336 -23.561 -12.271  0.00  0.00    +0.073 C 
BRANCH  13  18
ATOM     18  C   UNL     1      37.268 -25.212 -14.012  0.00  0.00    +0.025 C 
ATOM     19  C   UNL     1      38.422 -24.278 -14.417  0.00  0.00    +0.005 C 
ATOM     20  C   UNL     1      37.111 -26.334 -15.056  0.00  0.00    +0.005 C 
ENDBRANCH  13  18
BRANCH  15  21
ATOM     21  O   UNL     1      32.442 -22.414 -13.141  0.00  0.00    -0.505 OA
ATOM     22  H   UNL     1      32.390 -21.784 -12.449  0.00  0.00    +0.292 HD
ENDBRANCH  15  21
BRANCH  16  23
ATOM     23  O   UNL     1      36.228 -24.709 -11.400  0.00  0.00    -0.506 OA
ATOM     24  H   UNL     1      36.306 -25.630 -11.248  0.00  0.00    +0.292 HD
ENDBRANCH  16  23
ENDBRANCH  11  12
BRANCH   4  25
ATOM     25  C   UNL     1      35.592 -19.078 -21.809  0.00  0.00    -0.050 C 
BRANCH  25  26
ATOM     26  N   UNL     1      35.032 -17.730 -21.744  0.00  0.00    +0.387 N 
ATOM     27  N   UNL     1      35.245 -14.847 -21.785  0.00  0.00    +0.383 N 
ATOM     28  C   UNL     1      35.586 -16.991 -20.603  0.00  0.00    -0.100 C 
ATOM     29  C   UNL     1      35.278 -17.001 -22.994  0.00  0.00    -0.100 C 
ATOM     30  C   UNL     1      35.001 -15.576 -20.534  0.00  0.00    -0.101 C 
ATOM     31  C   UNL     1      34.692 -15.587 -22.926  0.00  0.00    -0.101 C 
ATOM     32  C   UNL     1      34.683 -13.500 -21.719  0.00  0.00    -0.101 C 
ATOM     33  H   UNL     1      34.024 -17.814 -21.614  0.00  0.00    -0.079 HD
ATOM     34  H   UNL     1      36.254 -14.762 -21.916  0.00  0.00    -0.080 HD
ENDBRANCH  25  26
ENDBRANCH   4  25
TORSDOF 6
ENDMDL
MODEL 7
REMARK VINA RESULT:     -10.9      3.617      6.824
REMARK  Name = 11955716
REMARK  6 active torsions:
REMARK  status: ('A' for Active; 'I' for Inactive)
REMARK    1  A    between atoms: C_4  and  C_25
REMARK    2  A    between atoms: C_11  and  C_12
REMARK    3  A    between atoms: C_13  and  C_18
REMARK    4  A    between atoms: C_15  and  O_21
REMARK    5  A    between atoms: C_16  and  O_23
REMARK    6  A    between atoms: C_25  and  N_26
REMARK                            x       y       z     vdW  Elec       q    Type
REMARK                         _______ _______ _______ _____ _____    ______ ____
ROOT
ATOM      1  O   UNL     1      37.627 -17.816 -21.779  0.00  0.00    -0.269 OA
ATOM      2  N   UNL     1      35.748 -18.735 -20.764  0.00  0.00    -0.231 N 
ATOM      3  C   UNL     1      35.420 -20.359 -19.129  0.00  0.00    +0.016 C 
ATOM      4  C   UNL     1      34.394 -21.898 -17.624  0.00  0.00    -0.043 C 
ATOM      5  C   UNL     1      34.156 -19.949 -19.573  0.00  0.00    +0.016 C 
ATOM      6  C   UNL     1      36.491 -19.609 -19.848  0.00  0.00    +0.072 C 
ATOM      7  C   UNL     1      34.289 -18.891 -20.617  0.00  0.00    +0.072 C 
ATOM      8  C   UNL     1      35.555 -21.331 -18.156  0.00  0.00    -0.005 C 
ATOM      9  C   UNL     1      33.126 -21.487 -18.068  0.00  0.00    -0.006 C 
ATOM     10  C   UNL     1      33.001 -20.504 -19.051  0.00  0.00    +0.001 C 
ATOM     11  C   UNL     1      36.408 -17.927 -21.679  0.00  0.00    +0.259 C 
ENDROOT
BRANCH  11  12
ATOM     12  C   UNL     1      35.579 -17.152 -22.613  0.00  0.00    +0.088 C 
ATOM     13  C   UNL     1      34.604 -15.040 -23.254  0.00  0.00    +0.012 C 
ATOM     14  C   UNL     1      35.389 -15.793 -22.379  0.00  0.00    +0.006 C 
ATOM     15  C   UNL     1      34.989 -17.764 -23.717  0.00  0.00    +0.141 C 
ATOM     16  C   UNL     1      34.013 -15.650 -24.360  0.00  0.00    +0.133 C 
ATOM     17  C   UNL     1      34.205 -17.012 -24.592  0.00  0.00    +0.073 C 
BRANCH  13  18
ATOM     18  C   UNL     1      34.409 -13.583 -22.991  0.00  0.00    +0.025 C 
ATOM     19  C   UNL     1      34.860 -13.175 -21.577  0.00  0.00    +0.005 C 
ATOM     20  C   UNL     1      32.956 -13.133 -23.229  0.00  0.00    +0.005 C 
ENDBRANCH  13  18
BRANCH  15  21
ATOM     21  O   UNL     1      35.164 -19.094 -23.959  0.00  0.00    -0.505 OA
ATOM     22  H   UNL     1      35.864 -19.381 -24.511  0.00  0.00    +0.292 HD
ENDBRANCH  15  21
BRANCH  16  23
ATOM     23  O   UNL     1      33.244 -14.930 -25.224  0.00  0.00    -0.506 OA
ATOM     24  H   UNL     1      32.362 -15.194 -25.398  0.00  0.00    +0.292 HD
ENDBRANCH  16  23
ENDBRANCH  11  12
BRANCH   4  25
ATOM     25  C   UNL     1      34.501 -22.956 -16.569  0.00  0.00    -0.050 C 
BRANCH  25  26
ATOM     26  N   UNL     1      33.561 -22.728 -15.473  0.00  0.00    +0.387 N 
ATOM     27  N   UNL     1      31.646 -23.613 -13.497  0.00  0.00    +0.383 N 
ATOM     28  C   UNL     1      32.205 -23.138 -15.857  0.00  0.00    -0.100 C 
ATOM     29  C   UNL     1      33.988 -23.442 -14.264  0.00  0.00    -0.100 C 
ATOM     30  C   UNL     1      31.219 -22.902 -14.708  0.00  0.00    -0.101 C 
ATOM     31  C   UNL     1      33.003 -23.204 -13.114  0.00  0.00    -0.101 C 
ATOM     32  C   UNL     1      30.707 -23.384 -12.401  0.00  0.00    -0.101 C 
ATOM     33  H   UNL     1      33.551 -21.729 -15.270  0.00  0.00    -0.079 HD
ATOM     34  H   UNL     1      31.656 -24.613 -13.699  0.00  0.00    -0.080 HD
ENDBRANCH  25  26
ENDBRANCH   4  25
TORSDOF 6
ENDMDL
MODEL 8
REMARK VINA RESULT:     -10.8      3.672      9.814
REMARK  Name = 11955716
REMARK  6 active torsions:
REMARK  status: ('A' for Active; 'I' for Inactive)
REMARK    1  A    between atoms: C_4  and  C_25
REMARK    2  A    between atoms: C_11  and  C_12
REMARK    3  A    between atoms: C_13  and  C_18
REMARK    4  A    between atoms: C_15  and  O_21
REMARK    5  A    between atoms: C_16  and  O_23
REMARK    6  A    between atoms: C_25  and  N_26
REMARK                            x       y       z     vdW  Elec       q    Type
REMARK                         _______ _______ _______ _____ _____    ______ ____
ROOT
ATOM      1  O   UNL     1      35.184 -18.610 -23.656  0.00  0.00    -0.269 OA
ATOM      2  N   UNL     1      34.961 -16.600 -22.508  0.00  0.00    -0.231 N 
ATOM      3  C   UNL     1      34.481 -14.413 -23.147  0.00  0.00    +0.016 C 
ATOM      4  C   UNL     1      34.115 -12.057 -23.102  0.00  0.00    -0.043 C 
ATOM      5  C   UNL     1      34.727 -14.403 -21.768  0.00  0.00    +0.016 C 
ATOM      6  C   UNL     1      34.605 -15.799 -23.686  0.00  0.00    +0.072 C 
ATOM      7  C   UNL     1      35.028 -15.782 -21.283  0.00  0.00    +0.072 C 
ATOM      8  C   UNL     1      34.174 -13.250 -23.827  0.00  0.00    -0.005 C 
ATOM      9  C   UNL     1      34.362 -12.046 -21.719  0.00  0.00    -0.006 C 
ATOM     10  C   UNL     1      34.671 -13.227 -21.041  0.00  0.00    +0.001 C 
ATOM     11  C   UNL     1      35.249 -17.952 -22.620  0.00  0.00    +0.259 C 
ENDROOT
BRANCH  11  12
ATOM     12  C   UNL     1      35.680 -18.651 -21.401  0.00  0.00    +0.088 C 
ATOM     13  C   UNL     1      35.137 -20.069 -19.526  0.00  0.00    +0.012 C 
ATOM     14  C   UNL     1      34.748 -19.400 -20.686  0.00  0.00    +0.006 C 
ATOM     15  C   UNL     1      36.998 -18.569 -20.962  0.00  0.00    +0.141 C 
ATOM     16  C   UNL     1      36.458 -19.989 -19.084  0.00  0.00    +0.133 C 
ATOM     17  C   UNL     1      37.388 -19.238 -19.802  0.00  0.00    +0.073 C 
BRANCH  13  18
ATOM     18  C   UNL     1      34.127 -20.869 -18.770  0.00  0.00    +0.025 C 
ATOM     19  C   UNL     1      34.247 -22.378 -19.045  0.00  0.00    +0.005 C 
ATOM     20  C   UNL     1      32.685 -20.399 -19.038  0.00  0.00    +0.005 C 
ENDBRANCH  13  18
BRANCH  15  21
ATOM     21  O   UNL     1      37.923 -17.839 -21.649  0.00  0.00    -0.505 OA
ATOM     22  H   UNL     1      38.749 -17.640 -21.255  0.00  0.00    +0.292 HD
ENDBRANCH  15  21
BRANCH  16  23
ATOM     23  O   UNL     1      36.854 -20.636 -17.953  0.00  0.00    -0.506 OA
ATOM     24  H   UNL     1      36.220 -21.058 -17.408  0.00  0.00    +0.292 HD
ENDBRANCH  16  23
ENDBRANCH  11  12
BRANCH   4  25
ATOM     25  C   UNL     1      33.788 -10.776 -23.805  0.00  0.00    -0.050 C 
BRANCH  25  26
ATOM     26  N   UNL     1      33.700  -9.652 -22.874  0.00  0.00    +0.387 N 
ATOM     27  N   UNL     1      32.799  -7.018 -22.095  0.00  0.00    +0.383 N 
ATOM     28  C   UNL     1      34.285  -8.442 -23.463  0.00  0.00    -0.100 C 
ATOM     29  C   UNL     1      32.307  -9.409 -22.482  0.00  0.00    -0.100 C 
ATOM     30  C   UNL     1      34.191  -7.262 -22.490  0.00  0.00    -0.101 C 
ATOM     31  C   UNL     1      32.213  -8.230 -21.507  0.00  0.00    -0.101 C 
ATOM     32  C   UNL     1      32.711  -5.896 -21.163  0.00  0.00    -0.101 C 
ATOM     33  H   UNL     1      34.232  -9.893 -22.038  0.00  0.00    -0.079 HD
ATOM     34  H   UNL     1      32.265  -6.777 -22.931  0.00  0.00    -0.080 HD
ENDBRANCH  25  26
ENDBRANCH   4  25
TORSDOF 6
ENDMDL
MODEL 9
REMARK VINA RESULT:     -10.7      5.738     11.435
REMARK  Name = 11955716
REMARK  6 active torsions:
REMARK  status: ('A' for Active; 'I' for Inactive)
REMARK    1  A    between atoms: C_4  and  C_25
REMARK    2  A    between atoms: C_11  and  C_12
REMARK    3  A    between atoms: C_13  and  C_18
REMARK    4  A    between atoms: C_15  and  O_21
REMARK    5  A    between atoms: C_16  and  O_23
REMARK    6  A    between atoms: C_25  and  N_26
REMARK                            x       y       z     vdW  Elec       q    Type
REMARK                         _______ _______ _______ _____ _____    ______ ____
ROOT
ATOM      1  O   UNL     1      38.147 -21.777 -15.606  0.00  0.00    -0.269 OA
ATOM      2  N   UNL     1      36.391 -21.338 -17.066  0.00  0.00    -0.231 N 
ATOM      3  C   UNL     1      36.205 -20.174 -19.073  0.00  0.00    +0.016 C 
ATOM      4  C   UNL     1      35.319 -19.144 -21.033  0.00  0.00    -0.043 C 
ATOM      5  C   UNL     1      34.923 -20.620 -18.726  0.00  0.00    +0.016 C 
ATOM      6  C   UNL     1      37.201 -20.611 -18.051  0.00  0.00    +0.072 C 
ATOM      7  C   UNL     1      34.969 -21.393 -17.450  0.00  0.00    +0.072 C 
ATOM      8  C   UNL     1      36.419 -19.436 -20.223  0.00  0.00    -0.005 C 
ATOM      9  C   UNL     1      34.033 -19.591 -20.686  0.00  0.00    -0.006 C 
ATOM     10  C   UNL     1      33.828 -20.336 -19.523  0.00  0.00    +0.001 C 
ATOM     11  C   UNL     1      36.955 -21.836 -15.900  0.00  0.00    +0.259 C 
ENDROOT
BRANCH  11  12
ATOM     12  C   UNL     1      36.050 -22.473 -14.934  0.00  0.00    +0.088 C 
ATOM     13  C   UNL     1      33.807 -23.089 -14.293  0.00  0.00    +0.012 C 
ATOM     14  C   UNL     1      34.683 -22.490 -15.199  0.00  0.00    +0.006 C 
ATOM     15  C   UNL     1      36.546 -23.052 -13.769  0.00  0.00    +0.141 C 
ATOM     16  C   UNL     1      34.301 -23.670 -13.125  0.00  0.00    +0.133 C 
ATOM     17  C   UNL     1      35.671 -23.652 -12.863  0.00  0.00    +0.073 C 
BRANCH  13  18
ATOM     18  C   UNL     1      32.343 -23.100 -14.590  0.00  0.00    +0.025 C 
ATOM     19  C   UNL     1      32.040 -22.773 -16.063  0.00  0.00    +0.005 C 
ATOM     20  C   UNL     1      31.550 -22.155 -13.669  0.00  0.00    +0.005 C 
ENDBRANCH  13  18
BRANCH  15  21
ATOM     21  O   UNL     1      37.881 -23.043 -13.494  0.00  0.00    -0.505 OA
ATOM     22  H   UNL     1      38.397 -22.289 -13.702  0.00  0.00    +0.292 HD
ENDBRANCH  15  21
BRANCH  16  23
ATOM     23  O   UNL     1      33.459 -24.259 -12.230  0.00  0.00    -0.506 OA
ATOM     24  H   UNL     1      33.624 -25.133 -11.937  0.00  0.00    +0.292 HD
ENDBRANCH  16  23
ENDBRANCH  11  12
BRANCH   4  25
ATOM     25  C   UNL     1      35.511 -18.346 -22.285  0.00  0.00    -0.050 C 
BRANCH  25  26
ATOM     26  N   UNL     1      35.606 -16.914 -22.008  0.00  0.00    +0.387 N 
ATOM     27  N   UNL     1      34.464 -14.303 -21.523  0.00  0.00    +0.383 N 
ATOM     28  C   UNL     1      35.003 -16.132 -23.095  0.00  0.00    -0.100 C 
ATOM     29  C   UNL     1      34.967 -16.587 -20.728  0.00  0.00    -0.100 C 
ATOM     30  C   UNL     1      35.100 -14.631 -22.805  0.00  0.00    -0.101 C 
ATOM     31  C   UNL     1      35.066 -15.086 -20.436  0.00  0.00    -0.101 C 
ATOM     32  C   UNL     1      34.561 -12.871 -21.246  0.00  0.00    -0.101 C 
ATOM     33  H   UNL     1      36.594 -16.670 -21.946  0.00  0.00    -0.079 HD
ATOM     34  H   UNL     1      33.475 -14.546 -21.584  0.00  0.00    -0.080 HD
ENDBRANCH  25  26
ENDBRANCH   4  25
TORSDOF 6
ENDMDL
