MODEL 1
REMARK VINA RESULT:     -12.2      0.000      0.000
REMARK  Name = 25151352
REMARK  5 active torsions:
REMARK  status: ('A' for Active; 'I' for Inactive)
REMARK    1  A    between atoms: N_1  and  C_21
REMARK    2  A    between atoms: C_3  and  C_9
REMARK    3  A    between atoms: C_9  and  C_13
REMARK    4  A    between atoms: C_21  and  C_23
REMARK    5  A    between atoms: C_27  and  C_31
REMARK                            x       y       z     vdW  Elec       q    Type
REMARK                         _______ _______ _______ _____ _____    ______ ____
ROOT
ATOM      1  N   UNL     1      33.607 -21.446 -18.239  0.00  0.00    -0.314 N 
ATOM      2  N   UNL     1      33.473 -19.888 -20.038  0.00  0.00    -0.230 NA
ATOM      3  C   UNL     1      35.496 -18.869 -20.880  0.00  0.00    +0.002 C 
ATOM      4  C   UNL     1      36.249 -19.579 -19.952  0.00  0.00    +0.000 C 
ATOM      5  C   UNL     1      34.124 -19.057 -20.883  0.00  0.00    +0.096 C 
ATOM      6  C   UNL     1      34.238 -20.560 -19.149  0.00  0.00    +0.129 C 
ATOM      7  C   UNL     1      35.616 -20.443 -19.066  0.00  0.00    +0.034 C 
ATOM      8  H   UNL     1      32.629 -21.545 -18.279  0.00  0.00    +0.149 HD
ENDROOT
BRANCH   3   9
ATOM      9  C   UNL     1      36.161 -17.917 -21.864  0.00  0.00    +0.056 C 
BRANCH   9  13
ATOM     10 CL   UNL     1      34.469 -12.294 -22.755  0.00  0.00    -0.081 Cl
ATOM     11  N   UNL     1      34.082 -17.652 -24.862  0.00  0.00    -0.297 N 
ATOM     12  N   UNL     1      33.452 -15.343 -25.133  0.00  0.00    -0.228 NA
ATOM     13  C   UNL     1      35.312 -17.534 -23.011  0.00  0.00    -0.000 C 
ATOM     14  C   UNL     1      34.848 -16.229 -23.321  0.00  0.00    +0.030 C 
ATOM     15  C   UNL     1      34.085 -16.336 -24.481  0.00  0.00    +0.132 C 
ATOM     16  C   UNL     1      34.824 -18.389 -23.976  0.00  0.00    +0.059 C 
ATOM     17  C   UNL     1      34.985 -14.951 -22.754  0.00  0.00    +0.015 C 
ATOM     18  C   UNL     1      34.349 -13.886 -23.389  0.00  0.00    +0.077 C 
ATOM     19  C   UNL     1      33.616 -14.137 -24.542  0.00  0.00    +0.112 C 
ATOM     20  H   UNL     1      33.619 -18.013 -25.651  0.00  0.00    +0.154 HD
ENDBRANCH   9  13
ENDBRANCH   3   9
BRANCH   1  21
ATOM     21  C   UNL     1      34.333 -22.197 -17.268  0.00  0.00    +0.117 C 
BRANCH  21  23
ATOM     22  N   UNL     1      33.161 -23.685 -13.992  0.00  0.00    -0.240 NA
ATOM     23  C   UNL     1      33.421 -22.645 -16.160  0.00  0.00    +0.017 C 
ATOM     24  C   UNL     1      32.045 -22.457 -16.243  0.00  0.00    +0.000 C 
ATOM     25  C   UNL     1      33.924 -23.258 -15.024  0.00  0.00    +0.096 C 
ATOM     26  C   UNL     1      31.227 -22.883 -15.202  0.00  0.00    +0.023 C 
ATOM     27  C   UNL     1      31.829 -23.485 -14.109  0.00  0.00    +0.153 C 
BRANCH  27  31
ATOM     28  F   UNL     1      30.757 -22.995 -12.027  0.00  0.00    -0.164 F 
ATOM     29  F   UNL     1      29.739 -24.374 -13.356  0.00  0.00    -0.164 F 
ATOM     30  F   UNL     1      31.535 -25.007 -12.305  0.00  0.00    -0.164 F 
ATOM     31  C   UNL     1      30.981 -23.953 -12.974  0.00  0.00    +0.435 C 
ENDBRANCH  27  31
ENDBRANCH  21  23
ENDBRANCH   1  21
TORSDOF 5
ENDMDL
MODEL 2
REMARK VINA RESULT:     -11.8      2.055      2.665
REMARK  Name = 25151352
REMARK  5 active torsions:
REMARK  status: ('A' for Active; 'I' for Inactive)
REMARK    1  A    between atoms: N_1  and  C_21
REMARK    2  A    between atoms: C_3  and  C_9
REMARK    3  A    between atoms: C_9  and  C_13
REMARK    4  A    between atoms: C_21  and  C_23
REMARK    5  A    between atoms: C_27  and  C_31
REMARK                            x       y       z     vdW  Elec       q    Type
REMARK                         _______ _______ _______ _____ _____    ______ ____
ROOT
ATOM      1  N   UNL     1      35.160 -21.316 -18.583  0.00  0.00    -0.314 N 
ATOM      2  N   UNL     1      36.529 -19.560 -19.431  0.00  0.00    -0.230 NA
ATOM      3  C   UNL     1      35.621 -18.030 -21.068  0.00  0.00    +0.002 C 
ATOM      4  C   UNL     1      34.406 -18.706 -21.036  0.00  0.00    +0.000 C 
ATOM      5  C   UNL     1      36.642 -18.493 -20.254  0.00  0.00    +0.096 C 
ATOM      6  C   UNL     1      35.334 -20.191 -19.428  0.00  0.00    +0.129 C 
ATOM      7  C   UNL     1      34.252 -19.808 -20.203  0.00  0.00    +0.034 C 
ATOM      8  H   UNL     1      35.915 -21.607 -18.023  0.00  0.00    +0.149 HD
ENDROOT
BRANCH   3   9
ATOM      9  C   UNL     1      35.821 -16.820 -21.968  0.00  0.00    +0.056 C 
BRANCH   9  13
ATOM     10 CL   UNL     1      33.625 -12.695 -25.633  0.00  0.00    -0.081 Cl
ATOM     11  N   UNL     1      34.471 -13.997 -20.076  0.00  0.00    -0.297 N 
ATOM     12  N   UNL     1      33.609 -12.387 -21.647  0.00  0.00    -0.228 NA
ATOM     13  C   UNL     1      35.213 -15.573 -21.459  0.00  0.00    -0.000 C 
ATOM     14  C   UNL     1      34.660 -14.523 -22.238  0.00  0.00    +0.030 C 
ATOM     15  C   UNL     1      34.205 -13.556 -21.346  0.00  0.00    +0.132 C 
ATOM     16  C   UNL     1      35.083 -15.222 -20.133  0.00  0.00    +0.059 C 
ATOM     17  C   UNL     1      34.486 -14.271 -23.608  0.00  0.00    +0.015 C 
ATOM     18  C   UNL     1      33.872 -13.074 -23.976  0.00  0.00    +0.077 C 
ATOM     19  C   UNL     1      33.468 -12.196 -22.980  0.00  0.00    +0.112 C 
ATOM     20  H   UNL     1      34.255 -13.509 -19.249  0.00  0.00    +0.154 HD
ENDBRANCH   9  13
ENDBRANCH   3   9
BRANCH   1  21
ATOM     21  C   UNL     1      33.935 -22.043 -18.513  0.00  0.00    +0.117 C 
BRANCH  21  23
ATOM     22  N   UNL     1      34.358 -22.980 -14.871  0.00  0.00    -0.240 NA
ATOM     23  C   UNL     1      33.599 -22.372 -17.085  0.00  0.00    +0.017 C 
ATOM     24  C   UNL     1      32.280 -22.381 -16.642  0.00  0.00    +0.000 C 
ATOM     25  C   UNL     1      34.592 -22.675 -16.167  0.00  0.00    +0.096 C 
ATOM     26  C   UNL     1      32.000 -22.689 -15.315  0.00  0.00    +0.023 C 
ATOM     27  C   UNL     1      33.065 -22.978 -14.478  0.00  0.00    +0.153 C 
BRANCH  27  31
ATOM     28  F   UNL     1      32.269 -24.558 -12.867  0.00  0.00    -0.164 F 
ATOM     29  F   UNL     1      33.918 -23.284 -12.264  0.00  0.00    -0.164 F 
ATOM     30  F   UNL     1      31.919 -22.450 -12.461  0.00  0.00    -0.164 F 
ATOM     31  C   UNL     1      32.800 -23.313 -13.048  0.00  0.00    +0.435 C 
ENDBRANCH  27  31
ENDBRANCH  21  23
ENDBRANCH   1  21
TORSDOF 5
ENDMDL
MODEL 3
REMARK VINA RESULT:     -11.7      3.773      6.074
REMARK  Name = 25151352
REMARK  5 active torsions:
REMARK  status: ('A' for Active; 'I' for Inactive)
REMARK    1  A    between atoms: N_1  and  C_21
REMARK    2  A    between atoms: C_3  and  C_9
REMARK    3  A    between atoms: C_9  and  C_13
REMARK    4  A    between atoms: C_21  and  C_23
REMARK    5  A    between atoms: C_27  and  C_31
REMARK                            x       y       z     vdW  Elec       q    Type
REMARK                         _______ _______ _______ _____ _____    ______ ____
ROOT
ATOM      1  N   UNL     1      35.872 -17.869 -22.330  0.00  0.00    -0.314 N 
ATOM      2  N   UNL     1      34.672 -16.452 -23.824  0.00  0.00    -0.230 NA
ATOM      3  C   UNL     1      34.272 -14.147 -23.214  0.00  0.00    +0.002 C 
ATOM      4  C   UNL     1      34.946 -14.341 -22.013  0.00  0.00    +0.000 C 
ATOM      5  C   UNL     1      34.164 -15.225 -24.078  0.00  0.00    +0.096 C 
ATOM      6  C   UNL     1      35.319 -16.602 -22.646  0.00  0.00    +0.129 C 
ATOM      7  C   UNL     1      35.482 -15.589 -21.716  0.00  0.00    +0.034 C 
ATOM      8  H   UNL     1      35.769 -18.603 -22.975  0.00  0.00    +0.149 HD
ENDROOT
BRANCH   3   9
ATOM      9  C   UNL     1      33.676 -12.793 -23.568  0.00  0.00    +0.056 C 
BRANCH   9  13
ATOM     10 CL   UNL     1      33.598  -6.874 -23.083  0.00  0.00    -0.081 Cl
ATOM     11  N   UNL     1      31.830 -11.765 -20.583  0.00  0.00    -0.297 N 
ATOM     12  N   UNL     1      31.856  -9.359 -20.479  0.00  0.00    -0.228 NA
ATOM     13  C   UNL     1      32.993 -12.114 -22.447  0.00  0.00    -0.000 C 
ATOM     14  C   UNL     1      32.911 -10.714 -22.230  0.00  0.00    +0.030 C 
ATOM     15  C   UNL     1      32.179 -10.530 -21.061  0.00  0.00    +0.132 C 
ATOM     16  C   UNL     1      32.319 -12.736 -21.418  0.00  0.00    +0.059 C 
ATOM     17  C   UNL     1      33.373  -9.565 -22.891  0.00  0.00    +0.015 C 
ATOM     18  C   UNL     1      33.067  -8.325 -22.332  0.00  0.00    +0.077 C 
ATOM     19  C   UNL     1      32.328  -8.287 -21.158  0.00  0.00    +0.112 C 
ATOM     20  H   UNL     1      31.307 -11.931 -19.766  0.00  0.00    +0.154 HD
ENDBRANCH   9  13
ENDBRANCH   3   9
BRANCH   1  21
ATOM     21  C   UNL     1      36.572 -18.119 -21.112  0.00  0.00    +0.117 C 
BRANCH  21  23
ATOM     22  N   UNL     1      35.922 -20.966 -18.705  0.00  0.00    -0.240 NA
ATOM     23  C   UNL     1      35.837 -19.135 -20.283  0.00  0.00    +0.017 C 
ATOM     24  C   UNL     1      34.448 -19.208 -20.303  0.00  0.00    +0.000 C 
ATOM     25  C   UNL     1      36.521 -20.029 -19.474  0.00  0.00    +0.096 C 
ATOM     26  C   UNL     1      33.796 -20.159 -19.525  0.00  0.00    +0.023 C 
ATOM     27  C   UNL     1      34.572 -21.006 -18.750  0.00  0.00    +0.153 C 
BRANCH  27  31
ATOM     28  F   UNL     1      34.549 -22.276 -16.723  0.00  0.00    -0.164 F 
ATOM     29  F   UNL     1      32.625 -21.714 -17.552  0.00  0.00    -0.164 F 
ATOM     30  F   UNL     1      33.819 -23.251 -18.524  0.00  0.00    -0.164 F 
ATOM     31  C   UNL     1      33.905 -22.038 -17.903  0.00  0.00    +0.435 C 
ENDBRANCH  27  31
ENDBRANCH  21  23
ENDBRANCH   1  21
TORSDOF 5
ENDMDL
MODEL 4
REMARK VINA RESULT:     -11.7      7.308     11.867
REMARK  Name = 25151352
REMARK  5 active torsions:
REMARK  status: ('A' for Active; 'I' for Inactive)
REMARK    1  A    between atoms: N_1  and  C_21
REMARK    2  A    between atoms: C_3  and  C_9
REMARK    3  A    between atoms: C_9  and  C_13
REMARK    4  A    between atoms: C_21  and  C_23
REMARK    5  A    between atoms: C_27  and  C_31
REMARK                            x       y       z     vdW  Elec       q    Type
REMARK                         _______ _______ _______ _____ _____    ______ ____
ROOT
ATOM      1  N   UNL     1      34.398 -13.284 -21.929  0.00  0.00    -0.314 N 
ATOM      2  N   UNL     1      34.936 -15.049 -20.420  0.00  0.00    -0.230 NA
ATOM      3  C   UNL     1      35.554 -17.215 -21.296  0.00  0.00    +0.002 C 
ATOM      4  C   UNL     1      35.397 -16.743 -22.594  0.00  0.00    +0.000 C 
ATOM      5  C   UNL     1      35.314 -16.336 -20.252  0.00  0.00    +0.096 C 
ATOM      6  C   UNL     1      34.792 -14.626 -21.696  0.00  0.00    +0.129 C 
ATOM      7  C   UNL     1      35.009 -15.425 -22.807  0.00  0.00    +0.034 C 
ATOM      8  H   UNL     1      34.238 -12.698 -21.155  0.00  0.00    +0.149 HD
ENDROOT
BRANCH   3   9
ATOM      9  C   UNL     1      35.979 -18.652 -21.031  0.00  0.00    +0.056 C 
BRANCH   9  13
ATOM     10 CL   UNL     1      37.399 -21.836 -16.223  0.00  0.00    -0.081 Cl
ATOM     11  N   UNL     1      33.050 -20.422 -19.742  0.00  0.00    -0.297 N 
ATOM     12  N   UNL     1      33.729 -21.678 -17.801  0.00  0.00    -0.228 NA
ATOM     13  C   UNL     1      34.975 -19.464 -20.312  0.00  0.00    -0.000 C 
ATOM     14  C   UNL     1      35.200 -20.261 -19.159  0.00  0.00    +0.030 C 
ATOM     15  C   UNL     1      33.980 -20.844 -18.828  0.00  0.00    +0.132 C 
ATOM     16  C   UNL     1      33.643 -19.583 -20.648  0.00  0.00    +0.059 C 
ATOM     17  C   UNL     1      36.303 -20.562 -18.344  0.00  0.00    +0.015 C 
ATOM     18  C   UNL     1      36.099 -21.421 -17.265  0.00  0.00    +0.077 C 
ATOM     19  C   UNL     1      34.827 -21.934 -17.051  0.00  0.00    +0.112 C 
ATOM     20  H   UNL     1      32.101 -20.682 -19.746  0.00  0.00    +0.154 HD
ENDBRANCH   9  13
ENDBRANCH   3   9
BRANCH   1  21
ATOM     21  C   UNL     1      34.223 -12.751 -23.240  0.00  0.00    +0.117 C 
BRANCH  21  23
ATOM     22  N   UNL     1      32.750  -9.450 -22.122  0.00  0.00    -0.240 NA
ATOM     23  C   UNL     1      33.932 -11.277 -23.174  0.00  0.00    +0.017 C 
ATOM     24  C   UNL     1      34.537 -10.387 -24.056  0.00  0.00    +0.000 C 
ATOM     25  C   UNL     1      33.055 -10.762 -22.234  0.00  0.00    +0.096 C 
ATOM     26  C   UNL     1      34.248  -9.030 -23.972  0.00  0.00    +0.023 C 
ATOM     27  C   UNL     1      33.357  -8.616 -22.996  0.00  0.00    +0.153 C 
BRANCH  27  31
ATOM     28  F   UNL     1      33.491  -6.590 -21.730  0.00  0.00    -0.164 F 
ATOM     29  F   UNL     1      33.531  -6.404 -23.890  0.00  0.00    -0.164 F 
ATOM     30  F   UNL     1      31.679  -6.934 -22.881  0.00  0.00    -0.164 F 
ATOM     31  C   UNL     1      33.024  -7.166 -22.876  0.00  0.00    +0.435 C 
ENDBRANCH  27  31
ENDBRANCH  21  23
ENDBRANCH   1  21
TORSDOF 5
ENDMDL
MODEL 5
REMARK VINA RESULT:     -11.5      6.427     11.035
REMARK  Name = 25151352
REMARK  5 active torsions:
REMARK  status: ('A' for Active; 'I' for Inactive)
REMARK    1  A    between atoms: N_1  and  C_21
REMARK    2  A    between atoms: C_3  and  C_9
REMARK    3  A    between atoms: C_9  and  C_13
REMARK    4  A    between atoms: C_21  and  C_23
REMARK    5  A    between atoms: C_27  and  C_31
REMARK                            x       y       z     vdW  Elec       q    Type
REMARK                         _______ _______ _______ _____ _____    ______ ____
ROOT
ATOM      1  N   UNL     1      35.986 -16.760 -22.694  0.00  0.00    -0.314 N 
ATOM      2  N   UNL     1      37.166 -17.978 -21.020  0.00  0.00    -0.230 NA
ATOM      3  C   UNL     1      36.067 -19.806 -19.883  0.00  0.00    +0.002 C 
ATOM      4  C   UNL     1      34.916 -19.590 -20.633  0.00  0.00    +0.000 C 
ATOM      5  C   UNL     1      37.156 -18.980 -20.112  0.00  0.00    +0.096 C 
ATOM      6  C   UNL     1      36.029 -17.797 -21.728  0.00  0.00    +0.129 C 
ATOM      7  C   UNL     1      34.889 -18.569 -21.575  0.00  0.00    +0.034 C 
ATOM      8  H   UNL     1      36.784 -16.200 -22.820  0.00  0.00    +0.149 HD
ENDROOT
BRANCH   3   9
ATOM      9  C   UNL     1      36.129 -20.917 -18.845  0.00  0.00    +0.056 C 
BRANCH   9  13
ATOM     10 CL   UNL     1      35.593 -23.480 -13.514  0.00  0.00    -0.081 Cl
ATOM     11  N   UNL     1      32.625 -21.674 -18.121  0.00  0.00    -0.297 N 
ATOM     12  N   UNL     1      32.517 -22.706 -15.947  0.00  0.00    -0.228 NA
ATOM     13  C   UNL     1      34.814 -21.325 -18.308  0.00  0.00    -0.000 C 
ATOM     14  C   UNL     1      34.568 -21.943 -17.054  0.00  0.00    +0.030 C 
ATOM     15  C   UNL     1      33.194 -22.147 -16.968  0.00  0.00    +0.132 C 
ATOM     16  C   UNL     1      33.600 -21.172 -18.943  0.00  0.00    +0.059 C 
ATOM     17  C   UNL     1      35.353 -22.360 -15.966  0.00  0.00    +0.015 C 
ATOM     18  C   UNL     1      34.702 -22.945 -14.881  0.00  0.00    +0.077 C 
ATOM     19  C   UNL     1      33.322 -23.089 -14.928  0.00  0.00    +0.112 C 
ATOM     20  H   UNL     1      31.663 -21.692 -18.328  0.00  0.00    +0.154 HD
ENDBRANCH   9  13
ENDBRANCH   3   9
BRANCH   1  21
ATOM     21  C   UNL     1      34.831 -16.497 -23.488  0.00  0.00    +0.117 C 
BRANCH  21  23
ATOM     22  N   UNL     1      34.661 -12.858 -22.465  0.00  0.00    -0.240 NA
ATOM     23  C   UNL     1      34.555 -15.020 -23.542  0.00  0.00    +0.017 C 
ATOM     24  C   UNL     1      33.961 -14.442 -24.660  0.00  0.00    +0.000 C 
ATOM     25  C   UNL     1      34.882 -14.192 -22.481  0.00  0.00    +0.096 C 
ATOM     26  C   UNL     1      33.718 -13.073 -24.680  0.00  0.00    +0.023 C 
ATOM     27  C   UNL     1      34.083 -12.332 -23.569  0.00  0.00    +0.153 C 
BRANCH  27  31
ATOM     28  F   UNL     1      33.397 -10.370 -24.754  0.00  0.00    -0.164 F 
ATOM     29  F   UNL     1      32.898 -10.470 -22.645  0.00  0.00    -0.164 F 
ATOM     30  F   UNL     1      34.959 -10.143 -23.258  0.00  0.00    -0.164 F 
ATOM     31  C   UNL     1      33.837 -10.860 -23.557  0.00  0.00    +0.435 C 
ENDBRANCH  27  31
ENDBRANCH  21  23
ENDBRANCH   1  21
TORSDOF 5
ENDMDL
MODEL 6
REMARK VINA RESULT:     -11.5      3.557      4.290
REMARK  Name = 25151352
REMARK  5 active torsions:
REMARK  status: ('A' for Active; 'I' for Inactive)
REMARK    1  A    between atoms: N_1  and  C_21
REMARK    2  A    between atoms: C_3  and  C_9
REMARK    3  A    between atoms: C_9  and  C_13
REMARK    4  A    between atoms: C_21  and  C_23
REMARK    5  A    between atoms: C_27  and  C_31
REMARK                            x       y       z     vdW  Elec       q    Type
REMARK                         _______ _______ _______ _____ _____    ______ ____
ROOT
ATOM      1  N   UNL     1      36.665 -21.289 -17.283  0.00  0.00    -0.314 N 
ATOM      2  N   UNL     1      37.320 -19.765 -18.994  0.00  0.00    -0.230 NA
ATOM      3  C   UNL     1      35.655 -18.901 -20.519  0.00  0.00    +0.002 C 
ATOM      4  C   UNL     1      34.669 -19.639 -19.871  0.00  0.00    +0.000 C 
ATOM      5  C   UNL     1      36.953 -18.998 -20.046  0.00  0.00    +0.096 C 
ATOM      6  C   UNL     1      36.335 -20.468 -18.391  0.00  0.00    +0.129 C 
ATOM      7  C   UNL     1      35.008 -20.440 -18.787  0.00  0.00    +0.034 C 
ATOM      8  H   UNL     1      37.601 -21.325 -16.984  0.00  0.00    +0.149 HD
ENDROOT
BRANCH   3   9
ATOM      9  C   UNL     1      35.315 -18.014 -21.707  0.00  0.00    +0.056 C 
BRANCH   9  13
ATOM     10 CL   UNL     1      33.928 -13.987 -25.847  0.00  0.00    -0.081 Cl
ATOM     11  N   UNL     1      35.011 -14.686 -20.222  0.00  0.00    -0.297 N 
ATOM     12  N   UNL     1      34.449 -13.133 -21.975  0.00  0.00    -0.228 NA
ATOM     13  C   UNL     1      35.132 -16.587 -21.372  0.00  0.00    -0.000 C 
ATOM     14  C   UNL     1      34.802 -15.542 -22.274  0.00  0.00    +0.030 C 
ATOM     15  C   UNL     1      34.733 -14.370 -21.526  0.00  0.00    +0.132 C 
ATOM     16  C   UNL     1      35.254 -16.031 -20.116  0.00  0.00    +0.059 C 
ATOM     17  C   UNL     1      34.550 -15.445 -23.652  0.00  0.00    +0.015 C 
ATOM     18  C   UNL     1      34.249 -14.186 -24.171  0.00  0.00    +0.077 C 
ATOM     19  C   UNL     1      34.215 -13.099 -23.308  0.00  0.00    +0.112 C 
ATOM     20  H   UNL     1      35.031 -14.046 -19.475  0.00  0.00    +0.154 HD
ENDBRANCH   9  13
ENDBRANCH   3   9
BRANCH   1  21
ATOM     21  C   UNL     1      35.692 -22.064 -16.585  0.00  0.00    +0.117 C 
BRANCH  21  23
ATOM     22  N   UNL     1      38.269 -23.159 -14.039  0.00  0.00    -0.240 NA
ATOM     23  C   UNL     1      36.328 -22.794 -15.434  0.00  0.00    +0.017 C 
ATOM     24  C   UNL     1      35.619 -23.747 -14.710  0.00  0.00    +0.000 C 
ATOM     25  C   UNL     1      37.638 -22.539 -15.062  0.00  0.00    +0.096 C 
ATOM     26  C   UNL     1      36.235 -24.406 -13.651  0.00  0.00    +0.023 C 
ATOM     27  C   UNL     1      37.548 -24.078 -13.358  0.00  0.00    +0.153 C 
BRANCH  27  31
ATOM     28  F   UNL     1      37.527 -25.806 -11.704  0.00  0.00    -0.164 F 
ATOM     29  F   UNL     1      39.449 -25.299 -12.570  0.00  0.00    -0.164 F 
ATOM     30  F   UNL     1      38.490 -23.929 -11.180  0.00  0.00    -0.164 F 
ATOM     31  C   UNL     1      38.239 -24.766 -12.228  0.00  0.00    +0.435 C 
ENDBRANCH  27  31
ENDBRANCH  21  23
ENDBRANCH   1  21
TORSDOF 5
ENDMDL
MODEL 7
REMARK VINA RESULT:     -11.4      6.202     11.225
REMARK  Name = 25151352
REMARK  5 active torsions:
REMARK  status: ('A' for Active; 'I' for Inactive)
REMARK    1  A    between atoms: N_1  and  C_21
REMARK    2  A    between atoms: C_3  and  C_9
REMARK    3  A    between atoms: C_9  and  C_13
REMARK    4  A    between atoms: C_21  and  C_23
REMARK    5  A    between atoms: C_27  and  C_31
REMARK                            x       y       z     vdW  Elec       q    Type
REMARK                         _______ _______ _______ _____ _____    ______ ____
ROOT
ATOM      1  N   UNL     1      34.541 -20.349 -19.602  0.00  0.00    -0.314 N 
ATOM      2  N   UNL     1      33.201 -21.648 -18.120  0.00  0.00    -0.230 NA
ATOM      3  C   UNL     1      34.211 -22.629 -16.155  0.00  0.00    +0.002 C 
ATOM      4  C   UNL     1      35.440 -22.079 -16.503  0.00  0.00    +0.000 C 
ATOM      5  C   UNL     1      33.132 -22.385 -16.989  0.00  0.00    +0.096 C 
ATOM      6  C   UNL     1      34.412 -21.131 -18.427  0.00  0.00    +0.129 C 
ATOM      7  C   UNL     1      35.551 -21.315 -17.659  0.00  0.00    +0.034 C 
ATOM      8  H   UNL     1      33.746 -20.204 -20.162  0.00  0.00    +0.149 HD
ENDROOT
BRANCH   3   9
ATOM      9  C   UNL     1      34.057 -23.468 -14.895  0.00  0.00    +0.056 C 
BRANCH   9  13
ATOM     10 CL   UNL     1      37.186 -22.086 -10.040  0.00  0.00    -0.081 Cl
ATOM     11  N   UNL     1      36.923 -25.709 -14.524  0.00  0.00    -0.297 N 
ATOM     12  N   UNL     1      38.121 -25.068 -12.535  0.00  0.00    -0.228 NA
ATOM     13  C   UNL     1      35.268 -24.222 -14.512  0.00  0.00    -0.000 C 
ATOM     14  C   UNL     1      36.091 -23.981 -13.380  0.00  0.00    +0.030 C 
ATOM     15  C   UNL     1      37.113 -24.926 -13.416  0.00  0.00    +0.132 C 
ATOM     16  C   UNL     1      35.805 -25.290 -15.197  0.00  0.00    +0.059 C 
ATOM     17  C   UNL     1      36.094 -23.066 -12.314  0.00  0.00    +0.015 C 
ATOM     18  C   UNL     1      37.116 -23.169 -11.372  0.00  0.00    +0.077 C 
ATOM     19  C   UNL     1      38.074 -24.161 -11.531  0.00  0.00    +0.112 C 
ATOM     20  H   UNL     1      37.500 -26.458 -14.794  0.00  0.00    +0.154 HD
ENDBRANCH   9  13
ENDBRANCH   3   9
BRANCH   1  21
ATOM     21  C   UNL     1      35.778 -19.764 -20.004  0.00  0.00    +0.117 C 
BRANCH  21  23
ATOM     22  N   UNL     1      35.573 -16.277 -21.460  0.00  0.00    -0.240 NA
ATOM     23  C   UNL     1      35.540 -18.647 -20.982  0.00  0.00    +0.017 C 
ATOM     24  C   UNL     1      35.083 -18.908 -22.270  0.00  0.00    +0.000 C 
ATOM     25  C   UNL     1      35.767 -17.327 -20.630  0.00  0.00    +0.096 C 
ATOM     26  C   UNL     1      34.870 -17.854 -23.152  0.00  0.00    +0.023 C 
ATOM     27  C   UNL     1      35.129 -16.569 -22.703  0.00  0.00    +0.153 C 
BRANCH  27  31
ATOM     28  F   UNL     1      35.391 -14.232 -23.140  0.00  0.00    -0.164 F 
ATOM     29  F   UNL     1      35.508 -15.569 -24.843  0.00  0.00    -0.164 F 
ATOM     30  F   UNL     1      33.591 -15.195 -23.888  0.00  0.00    -0.164 F 
ATOM     31  C   UNL     1      34.912 -15.415 -23.624  0.00  0.00    +0.435 C 
ENDBRANCH  27  31
ENDBRANCH  21  23
ENDBRANCH   1  21
TORSDOF 5
ENDMDL
MODEL 8
REMARK VINA RESULT:     -11.3      4.069      6.617
REMARK  Name = 25151352
REMARK  5 active torsions:
REMARK  status: ('A' for Active; 'I' for Inactive)
REMARK    1  A    between atoms: N_1  and  C_21
REMARK    2  A    between atoms: C_3  and  C_9
REMARK    3  A    between atoms: C_9  and  C_13
REMARK    4  A    between atoms: C_21  and  C_23
REMARK    5  A    between atoms: C_27  and  C_31
REMARK                            x       y       z     vdW  Elec       q    Type
REMARK                         _______ _______ _______ _____ _____    ______ ____
ROOT
ATOM      1  N   UNL     1      36.035 -17.130 -22.560  0.00  0.00    -0.314 N 
ATOM      2  N   UNL     1      34.553 -15.626 -23.667  0.00  0.00    -0.230 NA
ATOM      3  C   UNL     1      33.798 -13.639 -22.515  0.00  0.00    +0.002 C 
ATOM      4  C   UNL     1      34.544 -13.995 -21.397  0.00  0.00    +0.000 C 
ATOM      5  C   UNL     1      33.836 -14.480 -23.615  0.00  0.00    +0.096 C 
ATOM      6  C   UNL     1      35.264 -15.940 -22.561  0.00  0.00    +0.129 C 
ATOM      7  C   UNL     1      35.293 -15.166 -21.411  0.00  0.00    +0.034 C 
ATOM      8  H   UNL     1      36.029 -17.695 -23.365  0.00  0.00    +0.149 HD
ENDROOT
BRANCH   3   9
ATOM      9  C   UNL     1      32.969 -12.363 -22.530  0.00  0.00    +0.056 C 
BRANCH   9  13
ATOM     10 CL   UNL     1      32.033  -6.791 -20.699  0.00  0.00    -0.081 Cl
ATOM     11  N   UNL     1      34.902  -9.999 -24.543  0.00  0.00    -0.297 N 
ATOM     12  N   UNL     1      34.454  -7.779 -23.724  0.00  0.00    -0.228 NA
ATOM     13  C   UNL     1      33.632 -11.211 -23.176  0.00  0.00    -0.000 C 
ATOM     14  C   UNL     1      33.484  -9.844 -22.825  0.00  0.00    +0.030 C 
ATOM     15  C   UNL     1      34.289  -9.115 -23.695  0.00  0.00    +0.132 C 
ATOM     16  C   UNL     1      34.510 -11.277 -24.237  0.00  0.00    +0.059 C 
ATOM     17  C   UNL     1      32.756  -9.126 -21.862  0.00  0.00    +0.015 C 
ATOM     18  C   UNL     1      32.891  -7.739 -21.847  0.00  0.00    +0.077 C 
ATOM     19  C   UNL     1      33.730  -7.138 -22.776  0.00  0.00    +0.112 C 
ATOM     20  H   UNL     1      35.528  -9.755 -25.261  0.00  0.00    +0.154 HD
ENDBRANCH   9  13
ENDBRANCH   3   9
BRANCH   1  21
ATOM     21  C   UNL     1      36.816 -17.540 -21.440  0.00  0.00    +0.117 C 
BRANCH  21  23
ATOM     22  N   UNL     1      36.153 -20.334 -18.976  0.00  0.00    -0.240 NA
ATOM     23  C   UNL     1      36.084 -18.582 -20.641  0.00  0.00    +0.017 C 
ATOM     24  C   UNL     1      34.715 -18.775 -20.798  0.00  0.00    +0.000 C 
ATOM     25  C   UNL     1      36.750 -19.380 -19.725  0.00  0.00    +0.096 C 
ATOM     26  C   UNL     1      34.065 -19.748 -20.045  0.00  0.00    +0.023 C 
ATOM     27  C   UNL     1      34.822 -20.493 -19.156  0.00  0.00    +0.153 C 
BRANCH  27  31
ATOM     28  F   UNL     1      34.018 -22.739 -18.978  0.00  0.00    -0.164 F 
ATOM     29  F   UNL     1      34.825 -21.839 -17.178  0.00  0.00    -0.164 F 
ATOM     30  F   UNL     1      32.897 -21.189 -17.945  0.00  0.00    -0.164 F 
ATOM     31  C   UNL     1      34.157 -21.544 -18.332  0.00  0.00    +0.435 C 
ENDBRANCH  27  31
ENDBRANCH  21  23
ENDBRANCH   1  21
TORSDOF 5
ENDMDL
MODEL 9
REMARK VINA RESULT:     -11.2      5.732     10.195
REMARK  Name = 25151352
REMARK  5 active torsions:
REMARK  status: ('A' for Active; 'I' for Inactive)
REMARK    1  A    between atoms: N_1  and  C_21
REMARK    2  A    between atoms: C_3  and  C_9
REMARK    3  A    between atoms: C_9  and  C_13
REMARK    4  A    between atoms: C_21  and  C_23
REMARK    5  A    between atoms: C_27  and  C_31
REMARK                            x       y       z     vdW  Elec       q    Type
REMARK                         _______ _______ _______ _____ _____    ______ ____
ROOT
ATOM      1  N   UNL     1      34.899 -16.195 -22.969  0.00  0.00    -0.314 N 
ATOM      2  N   UNL     1      34.582 -18.465 -22.317  0.00  0.00    -0.230 NA
ATOM      3  C   UNL     1      35.789 -19.334 -20.411  0.00  0.00    +0.002 C 
ATOM      4  C   UNL     1      36.397 -18.097 -20.223  0.00  0.00    +0.000 C 
ATOM      5  C   UNL     1      34.897 -19.465 -21.463  0.00  0.00    +0.096 C 
ATOM      6  C   UNL     1      35.193 -17.279 -22.103  0.00  0.00    +0.129 C 
ATOM      7  C   UNL     1      36.099 -17.045 -21.081  0.00  0.00    +0.034 C 
ATOM      8  H   UNL     1      34.259 -16.338 -23.702  0.00  0.00    +0.149 HD
ENDROOT
BRANCH   3   9
ATOM      9  C   UNL     1      36.094 -20.505 -19.488  0.00  0.00    +0.056 C 
BRANCH   9  13
ATOM     10 CL   UNL     1      36.529 -22.981 -14.107  0.00  0.00    -0.081 Cl
ATOM     11  N   UNL     1      32.823 -21.656 -18.327  0.00  0.00    -0.297 N 
ATOM     12  N   UNL     1      33.107 -22.640 -16.146  0.00  0.00    -0.228 NA
ATOM     13  C   UNL     1      34.914 -21.053 -18.787  0.00  0.00    -0.000 C 
ATOM     14  C   UNL     1      34.899 -21.665 -17.507  0.00  0.00    +0.030 C 
ATOM     15  C   UNL     1      33.581 -22.029 -17.248  0.00  0.00    +0.132 C 
ATOM     16  C   UNL     1      33.622 -21.062 -19.268  0.00  0.00    +0.059 C 
ATOM     17  C   UNL     1      35.856 -21.958 -16.521  0.00  0.00    +0.015 C 
ATOM     18  C   UNL     1      35.418 -22.590 -15.358  0.00  0.00    +0.077 C 
ATOM     19  C   UNL     1      34.071 -22.899 -15.232  0.00  0.00    +0.112 C 
ATOM     20  H   UNL     1      31.852 -21.793 -18.412  0.00  0.00    +0.154 HD
ENDBRANCH   9  13
ENDBRANCH   3   9
BRANCH   1  21
ATOM     21  C   UNL     1      35.494 -14.908 -22.819  0.00  0.00    +0.117 C 
BRANCH  21  23
ATOM     22  N   UNL     1      33.062 -12.042 -22.385  0.00  0.00    -0.240 NA
ATOM     23  C   UNL     1      34.529 -13.953 -22.175  0.00  0.00    +0.017 C 
ATOM     24  C   UNL     1      34.201 -14.065 -20.827  0.00  0.00    +0.000 C 
ATOM     25  C   UNL     1      33.936 -12.934 -22.903  0.00  0.00    +0.096 C 
ATOM     26  C   UNL     1      33.305 -13.166 -20.258  0.00  0.00    +0.023 C 
ATOM     27  C   UNL     1      32.768 -12.182 -21.073  0.00  0.00    +0.153 C 
BRANCH  27  31
ATOM     28  F   UNL     1      30.859 -10.775 -21.385  0.00  0.00    -0.164 F 
ATOM     29  F   UNL     1      31.097 -11.690 -19.432  0.00  0.00    -0.164 F 
ATOM     30  F   UNL     1      32.415 -10.069 -20.040  0.00  0.00    -0.164 F 
ATOM     31  C   UNL     1      31.803 -11.202 -20.495  0.00  0.00    +0.435 C 
ENDBRANCH  27  31
ENDBRANCH  21  23
ENDBRANCH   1  21
TORSDOF 5
ENDMDL
