MODEL 1
REMARK VINA RESULT:     -11.3      0.000      0.000
REMARK  Name = 6918248
REMARK  5 active torsions:
REMARK  status: ('A' for Active; 'I' for Inactive)
REMARK    1  A    between atoms: N_1  and  C_18
REMARK    2  A    between atoms: N_2  and  C_8
REMARK    3  A    between atoms: C_11  and  C_17
REMARK    4  A    between atoms: C_18  and  C_19
REMARK    5  A    between atoms: C_19  and  N_21
REMARK                            x       y       z     vdW  Elec       q    Type
REMARK                         _______ _______ _______ _____ _____    ______ ____
ROOT
ATOM      1  N   UNL     1      34.592 -22.026 -17.842  0.00  0.00    +0.391 N 
ATOM      2  N   UNL     1      34.923 -19.828 -19.637  0.00  0.00    -0.312 N 
ATOM      3  C   UNL     1      33.458 -21.150 -18.160  0.00  0.00    -0.055 C 
ATOM      4  C   UNL     1      35.839 -21.250 -17.846  0.00  0.00    -0.055 C 
ATOM      5  C   UNL     1      33.627 -20.512 -19.541  0.00  0.00    +0.068 C 
ATOM      6  C   UNL     1      36.087 -20.614 -19.215  0.00  0.00    +0.068 C 
ATOM      7  H   UNL     1      34.657 -22.754 -18.554  0.00  0.00    -0.079 HD
ENDROOT
BRANCH   2   8
ATOM      8  C   UNL     1      35.072 -18.835 -20.611  0.00  0.00    +0.048 C 
ATOM      9  C   UNL     1      34.631 -19.044 -21.934  0.00  0.00    +0.018 C 
ATOM     10  C   UNL     1      35.665 -17.595 -20.300  0.00  0.00    +0.015 C 
ATOM     11  C   UNL     1      34.779 -18.053 -22.904  0.00  0.00    +0.073 C 
ATOM     12  C   UNL     1      35.811 -16.604 -21.270  0.00  0.00    +0.001 C 
ATOM     13  C   UNL     1      35.369 -16.833 -22.573  0.00  0.00    +0.004 C 
BRANCH  11  17
ATOM     14  F   UNL     1      32.950 -18.413 -24.403  0.00  0.00    -0.166 F 
ATOM     15  F   UNL     1      34.648 -17.306 -25.172  0.00  0.00    -0.166 F 
ATOM     16  F   UNL     1      34.814 -19.447 -24.830  0.00  0.00    -0.166 F 
ATOM     17  C   UNL     1      34.306 -18.297 -24.297  0.00  0.00    +0.419 C 
ENDBRANCH  11  17
ENDBRANCH   2   8
BRANCH   1  18
ATOM     18  C   UNL     1      34.394 -22.673 -16.545  0.00  0.00    -0.052 C 
BRANCH  18  19
ATOM     19  C   UNL     1      35.333 -22.077 -15.508  0.00  0.00    +0.088 C 
BRANCH  19  21
ATOM     20  O   UNL     1      33.273 -22.960 -13.487  0.00  0.00    -0.247 OA
ATOM     21  N   UNL     1      35.479 -22.950 -14.376  0.00  0.00    -0.282 N 
ATOM     22  N   UNL     1      35.047 -24.186 -12.518  0.00  0.00    -0.305 N 
ATOM     23  C   UNL     1      36.669 -23.586 -13.981  0.00  0.00    +0.079 A 
ATOM     24  C   UNL     1      34.443 -23.314 -13.468  0.00  0.00    +0.328 A 
ATOM     25  C   UNL     1      36.395 -24.341 -12.842  0.00  0.00    +0.076 A 
ATOM     26  C   UNL     1      37.932 -23.547 -14.535  0.00  0.00    +0.019 C 
ATOM     27  C   UNL     1      37.359 -25.090 -12.203  0.00  0.00    +0.019 C 
ATOM     28  C   UNL     1      38.927 -24.300 -13.903  0.00  0.00    +0.002 C 
ATOM     29  C   UNL     1      38.644 -25.063 -12.750  0.00  0.00    +0.002 C 
ATOM     30  H   UNL     1      34.588 -24.610 -11.758  0.00  0.00    +0.170 HD
ENDBRANCH  19  21
ENDBRANCH  18  19
ENDBRANCH   1  18
TORSDOF 5
ENDMDL
MODEL 2
REMARK VINA RESULT:     -11.3      2.097      3.269
REMARK  Name = 6918248
REMARK  5 active torsions:
REMARK  status: ('A' for Active; 'I' for Inactive)
REMARK    1  A    between atoms: N_1  and  C_18
REMARK    2  A    between atoms: N_2  and  C_8
REMARK    3  A    between atoms: C_11  and  C_17
REMARK    4  A    between atoms: C_18  and  C_19
REMARK    5  A    between atoms: C_19  and  N_21
REMARK                            x       y       z     vdW  Elec       q    Type
REMARK                         _______ _______ _______ _____ _____    ______ ____
ROOT
ATOM      1  N   UNL     1      34.786 -23.321 -15.368  0.00  0.00    +0.391 N 
ATOM      2  N   UNL     1      34.435 -21.488 -17.532  0.00  0.00    -0.312 N 
ATOM      3  C   UNL     1      33.441 -23.004 -15.861  0.00  0.00    -0.055 C 
ATOM      4  C   UNL     1      35.654 -22.143 -15.494  0.00  0.00    -0.055 C 
ATOM      5  C   UNL     1      33.479 -22.585 -17.332  0.00  0.00    +0.068 C 
ATOM      6  C   UNL     1      35.766 -21.695 -16.953  0.00  0.00    +0.068 C 
ATOM      7  H   UNL     1      35.175 -24.077 -15.933  0.00  0.00    -0.079 HD
ENDROOT
BRANCH   2   8
ATOM      8  C   UNL     1      34.288 -20.688 -18.670  0.00  0.00    +0.048 C 
ATOM      9  C   UNL     1      35.376 -19.958 -19.189  0.00  0.00    +0.018 C 
ATOM     10  C   UNL     1      33.048 -20.588 -19.332  0.00  0.00    +0.015 C 
ATOM     11  C   UNL     1      35.230 -19.161 -20.325  0.00  0.00    +0.073 C 
ATOM     12  C   UNL     1      32.902 -19.791 -20.467  0.00  0.00    +0.001 C 
ATOM     13  C   UNL     1      33.992 -19.077 -20.964  0.00  0.00    +0.004 C 
BRANCH  11  17
ATOM     14  F   UNL     1      37.601 -18.862 -20.414  0.00  0.00    -0.166 F 
ATOM     15  F   UNL     1      36.485 -18.413 -22.218  0.00  0.00    -0.166 F 
ATOM     16  F   UNL     1      36.362 -17.078 -20.506  0.00  0.00    -0.166 F 
ATOM     17  C   UNL     1      36.395 -18.398 -20.855  0.00  0.00    +0.419 C 
ENDBRANCH  11  17
ENDBRANCH   2   8
BRANCH   1  18
ATOM     18  C   UNL     1      34.731 -23.771 -13.978  0.00  0.00    -0.052 C 
BRANCH  18  19
ATOM     19  C   UNL     1      35.760 -23.028 -13.140  0.00  0.00    +0.088 C 
BRANCH  19  21
ATOM     20  O   UNL     1      36.056 -24.853 -10.754  0.00  0.00    -0.247 OA
ATOM     21  N   UNL     1      36.854 -23.886 -12.776  0.00  0.00    -0.282 N 
ATOM     22  N   UNL     1      38.169 -25.379 -11.676  0.00  0.00    -0.305 N 
ATOM     23  C   UNL     1      38.047 -24.042 -13.501  0.00  0.00    +0.079 A 
ATOM     24  C   UNL     1      36.907 -24.720 -11.621  0.00  0.00    +0.328 A 
ATOM     25  C   UNL     1      38.847 -24.957 -12.821  0.00  0.00    +0.076 A 
ATOM     26  C   UNL     1      38.464 -23.453 -14.677  0.00  0.00    +0.019 C 
ATOM     27  C   UNL     1      40.093 -25.331 -13.275  0.00  0.00    +0.019 C 
ATOM     28  C   UNL     1      39.726 -23.817 -15.158  0.00  0.00    +0.002 C 
ATOM     29  C   UNL     1      40.532 -24.745 -14.465  0.00  0.00    +0.002 C 
ATOM     30  H   UNL     1      38.506 -26.026 -11.016  0.00  0.00    +0.170 HD
ENDBRANCH  19  21
ENDBRANCH  18  19
ENDBRANCH   1  18
TORSDOF 5
ENDMDL
MODEL 3
REMARK VINA RESULT:     -11.2      6.154     11.053
REMARK  Name = 6918248
REMARK  5 active torsions:
REMARK  status: ('A' for Active; 'I' for Inactive)
REMARK    1  A    between atoms: N_1  and  C_18
REMARK    2  A    between atoms: N_2  and  C_8
REMARK    3  A    between atoms: C_11  and  C_17
REMARK    4  A    between atoms: C_18  and  C_19
REMARK    5  A    between atoms: C_19  and  N_21
REMARK                            x       y       z     vdW  Elec       q    Type
REMARK                         _______ _______ _______ _____ _____    ______ ____
ROOT
ATOM      1  N   UNL     1      35.126 -14.353 -22.454  0.00  0.00    +0.391 N 
ATOM      2  N   UNL     1      35.332 -16.912 -21.199  0.00  0.00    -0.312 N 
ATOM      3  C   UNL     1      34.583 -14.565 -21.107  0.00  0.00    -0.055 C 
ATOM      4  C   UNL     1      34.991 -15.583 -23.246  0.00  0.00    -0.055 C 
ATOM      5  C   UNL     1      35.329 -15.689 -20.385  0.00  0.00    +0.068 C 
ATOM      6  C   UNL     1      35.750 -16.741 -22.594  0.00  0.00    +0.068 C 
ATOM      7  H   UNL     1      36.116 -14.118 -22.378  0.00  0.00    -0.079 HD
ENDROOT
BRANCH   2   8
ATOM      8  C   UNL     1      35.552 -18.132 -20.552  0.00  0.00    +0.048 C 
ATOM      9  C   UNL     1      34.479 -18.984 -20.225  0.00  0.00    +0.018 C 
ATOM     10  C   UNL     1      36.855 -18.547 -20.209  0.00  0.00    +0.015 C 
ATOM     11  C   UNL     1      34.699 -20.201 -19.580  0.00  0.00    +0.073 C 
ATOM     12  C   UNL     1      37.075 -19.764 -19.565  0.00  0.00    +0.001 C 
ATOM     13  C   UNL     1      35.997 -20.592 -19.249  0.00  0.00    +0.004 C 
BRANCH  11  17
ATOM     14  F   UNL     1      33.846 -22.417 -19.291  0.00  0.00    -0.166 F 
ATOM     15  F   UNL     1      33.047 -20.878 -17.988  0.00  0.00    -0.166 F 
ATOM     16  F   UNL     1      32.490 -20.918 -20.089  0.00  0.00    -0.166 F 
ATOM     17  C   UNL     1      33.547 -21.086 -19.242  0.00  0.00    +0.419 C 
ENDBRANCH  11  17
ENDBRANCH   2   8
BRANCH   1  18
ATOM     18  C   UNL     1      34.442 -13.241 -23.114  0.00  0.00    -0.052 C 
BRANCH  18  19
ATOM     19  C   UNL     1      33.076 -13.013 -22.486  0.00  0.00    +0.088 C 
BRANCH  19  21
ATOM     20  O   UNL     1      33.710 -10.488 -24.014  0.00  0.00    -0.247 OA
ATOM     21  N   UNL     1      32.906 -11.640 -22.094  0.00  0.00    -0.282 N 
ATOM     22  N   UNL     1      32.899  -9.367 -22.097  0.00  0.00    -0.305 N 
ATOM     23  C   UNL     1      32.386 -11.198 -20.866  0.00  0.00    +0.079 A 
ATOM     24  C   UNL     1      33.236 -10.503 -22.888  0.00  0.00    +0.328 A 
ATOM     25  C   UNL     1      32.386  -9.805 -20.875  0.00  0.00    +0.076 A 
ATOM     26  C   UNL     1      31.930 -11.912 -19.777  0.00  0.00    +0.019 C 
ATOM     27  C   UNL     1      31.934  -9.059 -19.809  0.00  0.00    +0.019 C 
ATOM     28  C   UNL     1      31.466 -11.176 -18.682  0.00  0.00    +0.002 C 
ATOM     29  C   UNL     1      31.468  -9.766 -18.698  0.00  0.00    +0.002 C 
ATOM     30  H   UNL     1      33.010  -8.428 -22.368  0.00  0.00    +0.170 HD
ENDBRANCH  19  21
ENDBRANCH  18  19
ENDBRANCH   1  18
TORSDOF 5
ENDMDL
MODEL 4
REMARK VINA RESULT:     -11.1      4.734     10.122
REMARK  Name = 6918248
REMARK  5 active torsions:
REMARK  status: ('A' for Active; 'I' for Inactive)
REMARK    1  A    between atoms: N_1  and  C_18
REMARK    2  A    between atoms: N_2  and  C_8
REMARK    3  A    between atoms: C_11  and  C_17
REMARK    4  A    between atoms: C_18  and  C_19
REMARK    5  A    between atoms: C_19  and  N_21
REMARK                            x       y       z     vdW  Elec       q    Type
REMARK                         _______ _______ _______ _____ _____    ______ ____
ROOT
ATOM      1  N   UNL     1      35.198 -19.538 -20.990  0.00  0.00    +0.391 N 
ATOM      2  N   UNL     1      35.724 -20.644 -18.409  0.00  0.00    -0.312 N 
ATOM      3  C   UNL     1      36.427 -19.186 -20.268  0.00  0.00    -0.055 C 
ATOM      4  C   UNL     1      34.103 -19.753 -20.036  0.00  0.00    -0.055 C 
ATOM      5  C   UNL     1      36.837 -20.303 -19.305  0.00  0.00    +0.068 C 
ATOM      6  C   UNL     1      34.436 -20.888 -19.064  0.00  0.00    +0.068 C 
ATOM      7  H   UNL     1      35.356 -20.402 -21.509  0.00  0.00    -0.079 HD
ENDROOT
BRANCH   2   8
ATOM      8  C   UNL     1      36.025 -21.290 -17.205  0.00  0.00    +0.048 C 
ATOM      9  C   UNL     1      35.039 -22.009 -16.501  0.00  0.00    +0.018 C 
ATOM     10  C   UNL     1      37.324 -21.242 -16.660  0.00  0.00    +0.015 C 
ATOM     11  C   UNL     1      35.339 -22.653 -15.301  0.00  0.00    +0.073 C 
ATOM     12  C   UNL     1      37.625 -21.887 -15.461  0.00  0.00    +0.001 C 
ATOM     13  C   UNL     1      36.632 -22.592 -14.780  0.00  0.00    +0.004 C 
BRANCH  11  17
ATOM     14  F   UNL     1      33.095 -23.479 -15.250  0.00  0.00    -0.166 F 
ATOM     15  F   UNL     1      34.615 -24.703 -14.304  0.00  0.00    -0.166 F 
ATOM     16  F   UNL     1      33.974 -22.851 -13.364  0.00  0.00    -0.166 F 
ATOM     17  C   UNL     1      34.278 -23.407 -14.573  0.00  0.00    +0.419 C 
ENDBRANCH  11  17
ENDBRANCH   2   8
BRANCH   1  18
ATOM     18  C   UNL     1      34.847 -18.489 -21.946  0.00  0.00    -0.052 C 
BRANCH  18  19
ATOM     19  C   UNL     1      35.894 -17.386 -21.930  0.00  0.00    +0.088 C 
BRANCH  19  21
ATOM     20  O   UNL     1      35.416 -15.631 -19.522  0.00  0.00    -0.247 OA
ATOM     21  N   UNL     1      35.282 -16.087 -21.853  0.00  0.00    -0.282 N 
ATOM     22  N   UNL     1      34.455 -14.121 -21.067  0.00  0.00    -0.305 N 
ATOM     23  C   UNL     1      34.768 -15.360 -22.939  0.00  0.00    +0.079 A 
ATOM     24  C   UNL     1      35.097 -15.327 -20.662  0.00  0.00    +0.328 A 
ATOM     25  C   UNL     1      34.263 -14.156 -22.450  0.00  0.00    +0.076 A 
ATOM     26  C   UNL     1      34.715 -15.671 -24.282  0.00  0.00    +0.019 C 
ATOM     27  C   UNL     1      33.685 -13.210 -23.267  0.00  0.00    +0.019 C 
ATOM     28  C   UNL     1      34.132 -14.726 -25.132  0.00  0.00    +0.002 C 
ATOM     29  C   UNL     1      33.623 -13.509 -24.631  0.00  0.00    +0.002 C 
ATOM     30  H   UNL     1      34.192 -13.384 -20.471  0.00  0.00    +0.170 HD
ENDBRANCH  19  21
ENDBRANCH  18  19
ENDBRANCH   1  18
TORSDOF 5
ENDMDL
MODEL 5
REMARK VINA RESULT:     -11.0      8.764     12.267
REMARK  Name = 6918248
REMARK  5 active torsions:
REMARK  status: ('A' for Active; 'I' for Inactive)
REMARK    1  A    between atoms: N_1  and  C_18
REMARK    2  A    between atoms: N_2  and  C_8
REMARK    3  A    between atoms: C_11  and  C_17
REMARK    4  A    between atoms: C_18  and  C_19
REMARK    5  A    between atoms: C_19  and  N_21
REMARK                            x       y       z     vdW  Elec       q    Type
REMARK                         _______ _______ _______ _____ _____    ______ ____
ROOT
ATOM      1  N   UNL     1      33.527 -11.957 -22.144  0.00  0.00    +0.391 N 
ATOM      2  N   UNL     1      32.687  -9.243 -22.449  0.00  0.00    -0.312 N 
ATOM      3  C   UNL     1      33.805 -11.230 -23.388  0.00  0.00    -0.055 C 
ATOM      4  C   UNL     1      32.251 -11.505 -21.576  0.00  0.00    -0.055 C 
ATOM      5  C   UNL     1      33.894  -9.723 -23.136  0.00  0.00    +0.068 C 
ATOM      6  C   UNL     1      32.288 -10.008 -21.263  0.00  0.00    +0.068 C 
ATOM      7  H   UNL     1      34.272 -11.762 -21.474  0.00  0.00    -0.079 HD
ENDROOT
BRANCH   2   8
ATOM      8  C   UNL     1      32.381  -7.881 -22.534  0.00  0.00    +0.048 C 
ATOM      9  C   UNL     1      32.168  -7.111 -21.374  0.00  0.00    +0.018 C 
ATOM     10  C   UNL     1      32.276  -7.237 -23.784  0.00  0.00    +0.015 C 
ATOM     11  C   UNL     1      31.863  -5.753 -21.459  0.00  0.00    +0.073 C 
ATOM     12  C   UNL     1      31.972  -5.879 -23.869  0.00  0.00    +0.001 C 
ATOM     13  C   UNL     1      31.765  -5.136 -22.707  0.00  0.00    +0.004 C 
BRANCH  11  17
ATOM     14  F   UNL     1      30.469  -4.257 -20.218  0.00  0.00    -0.166 F 
ATOM     15  F   UNL     1      31.601  -5.717 -19.082  0.00  0.00    -0.166 F 
ATOM     16  F   UNL     1      32.621  -4.032 -20.003  0.00  0.00    -0.166 F 
ATOM     17  C   UNL     1      31.641  -4.958 -20.217  0.00  0.00    +0.419 C 
ENDBRANCH  11  17
ENDBRANCH   2   8
BRANCH   1  18
ATOM     18  C   UNL     1      33.499 -13.399 -22.388  0.00  0.00    -0.052 C 
BRANCH  18  19
ATOM     19  C   UNL     1      34.807 -13.855 -23.015  0.00  0.00    +0.088 C 
BRANCH  19  21
ATOM     20  O   UNL     1      34.141 -15.188 -25.640  0.00  0.00    -0.247 OA
ATOM     21  N   UNL     1      34.766 -15.254 -23.346  0.00  0.00    -0.282 N 
ATOM     22  N   UNL     1      34.526 -17.210 -24.478  0.00  0.00    -0.305 N 
ATOM     23  C   UNL     1      35.043 -16.311 -22.463  0.00  0.00    +0.079 A 
ATOM     24  C   UNL     1      34.438 -15.796 -24.622  0.00  0.00    +0.328 A 
ATOM     25  C   UNL     1      34.893 -17.506 -23.164  0.00  0.00    +0.076 A 
ATOM     26  C   UNL     1      35.404 -16.296 -21.132  0.00  0.00    +0.019 C 
ATOM     27  C   UNL     1      35.095 -18.737 -22.579  0.00  0.00    +0.019 C 
ATOM     28  C   UNL     1      35.615 -17.534 -20.515  0.00  0.00    +0.002 C 
ATOM     29  C   UNL     1      35.462 -18.740 -21.230  0.00  0.00    +0.002 C 
ATOM     30  H   UNL     1      34.356 -17.870 -25.188  0.00  0.00    +0.170 HD
ENDBRANCH  19  21
ENDBRANCH  18  19
ENDBRANCH   1  18
TORSDOF 5
ENDMDL
MODEL 6
REMARK VINA RESULT:     -10.9      8.223     12.336
REMARK  Name = 6918248
REMARK  5 active torsions:
REMARK  status: ('A' for Active; 'I' for Inactive)
REMARK    1  A    between atoms: N_1  and  C_18
REMARK    2  A    between atoms: N_2  and  C_8
REMARK    3  A    between atoms: C_11  and  C_17
REMARK    4  A    between atoms: C_18  and  C_19
REMARK    5  A    between atoms: C_19  and  N_21
REMARK                            x       y       z     vdW  Elec       q    Type
REMARK                         _______ _______ _______ _____ _____    ______ ____
ROOT
ATOM      1  N   UNL     1      33.624 -11.089 -23.612  0.00  0.00    +0.391 N 
ATOM      2  N   UNL     1      34.301 -13.865 -23.576  0.00  0.00    -0.312 N 
ATOM      3  C   UNL     1      33.946 -11.791 -24.860  0.00  0.00    -0.055 C 
ATOM      4  C   UNL     1      34.414 -11.648 -22.507  0.00  0.00    -0.055 C 
ATOM      5  C   UNL     1      33.632 -13.284 -24.748  0.00  0.00    +0.068 C 
ATOM      6  C   UNL     1      34.116 -13.137 -22.317  0.00  0.00    +0.068 C 
ATOM      7  H   UNL     1      32.633 -11.220 -23.406  0.00  0.00    -0.079 HD
ENDROOT
BRANCH   2   8
ATOM      8  C   UNL     1      34.508 -15.248 -23.556  0.00  0.00    +0.048 C 
ATOM      9  C   UNL     1      35.223 -15.860 -22.507  0.00  0.00    +0.018 C 
ATOM     10  C   UNL     1      34.005 -16.072 -24.583  0.00  0.00    +0.015 C 
ATOM     11  C   UNL     1      35.428 -17.240 -22.487  0.00  0.00    +0.073 C 
ATOM     12  C   UNL     1      34.210 -17.452 -24.562  0.00  0.00    +0.001 C 
ATOM     13  C   UNL     1      34.922 -18.036 -23.515  0.00  0.00    +0.004 C 
BRANCH  11  17
ATOM     14  F   UNL     1      37.537 -17.917 -21.585  0.00  0.00    -0.166 F 
ATOM     15  F   UNL     1      36.046 -17.211 -20.177  0.00  0.00    -0.166 F 
ATOM     16  F   UNL     1      35.807 -19.153 -21.127  0.00  0.00    -0.166 F 
ATOM     17  C   UNL     1      36.190 -17.864 -21.368  0.00  0.00    +0.419 C 
ENDBRANCH  11  17
ENDBRANCH   2   8
BRANCH   1  18
ATOM     18  C   UNL     1      33.876  -9.655 -23.749  0.00  0.00    -0.052 C 
BRANCH  18  19
ATOM     19  C   UNL     1      32.644  -8.861 -23.343  0.00  0.00    +0.088 C 
BRANCH  19  21
ATOM     20  O   UNL     1      34.044  -6.587 -21.936  0.00  0.00    -0.247 OA
ATOM     21  N   UNL     1      32.674  -8.532 -21.944  0.00  0.00    -0.282 N 
ATOM     22  N   UNL     1      33.115  -7.504 -19.965  0.00  0.00    -0.305 N 
ATOM     23  C   UNL     1      32.025  -9.244 -20.922  0.00  0.00    +0.079 A 
ATOM     24  C   UNL     1      33.368  -7.430 -21.365  0.00  0.00    +0.328 A 
ATOM     25  C   UNL     1      32.300  -8.609 -19.713  0.00  0.00    +0.076 A 
ATOM     26  C   UNL     1      31.236 -10.375 -20.979  0.00  0.00    +0.019 C 
ATOM     27  C   UNL     1      31.806  -9.063 -18.510  0.00  0.00    +0.019 C 
ATOM     28  C   UNL     1      30.723 -10.856 -19.770  0.00  0.00    +0.002 C 
ATOM     29  C   UNL     1      31.005 -10.208 -18.549  0.00  0.00    +0.002 C 
ATOM     30  H   UNL     1      33.458  -6.879 -19.287  0.00  0.00    +0.170 HD
ENDBRANCH  19  21
ENDBRANCH  18  19
ENDBRANCH   1  18
TORSDOF 5
ENDMDL
MODEL 7
REMARK VINA RESULT:     -10.8      4.691      9.946
REMARK  Name = 6918248
REMARK  5 active torsions:
REMARK  status: ('A' for Active; 'I' for Inactive)
REMARK    1  A    between atoms: N_1  and  C_18
REMARK    2  A    between atoms: N_2  and  C_8
REMARK    3  A    between atoms: C_11  and  C_17
REMARK    4  A    between atoms: C_18  and  C_19
REMARK    5  A    between atoms: C_19  and  N_21
REMARK                            x       y       z     vdW  Elec       q    Type
REMARK                         _______ _______ _______ _____ _____    ______ ____
ROOT
ATOM      1  N   UNL     1      34.752 -19.211 -20.625  0.00  0.00    +0.391 N 
ATOM      2  N   UNL     1      34.189 -20.999 -18.468  0.00  0.00    -0.312 N 
ATOM      3  C   UNL     1      33.412 -19.789 -20.470  0.00  0.00    -0.055 C 
ATOM      4  C   UNL     1      35.765 -20.173 -20.172  0.00  0.00    -0.055 C 
ATOM      5  C   UNL     1      33.129 -20.138 -19.007  0.00  0.00    +0.068 C 
ATOM      6  C   UNL     1      35.560 -20.534 -18.699  0.00  0.00    +0.068 C 
ATOM      7  H   UNL     1      34.817 -18.371 -20.050  0.00  0.00    -0.079 HD
ENDROOT
BRANCH   2   8
ATOM      8  C   UNL     1      33.898 -21.771 -17.339  0.00  0.00    +0.048 C 
ATOM      9  C   UNL     1      32.566 -22.017 -16.951  0.00  0.00    +0.018 C 
ATOM     10  C   UNL     1      34.929 -22.328 -16.555  0.00  0.00    +0.015 C 
ATOM     11  C   UNL     1      32.276 -22.787 -15.825  0.00  0.00    +0.073 C 
ATOM     12  C   UNL     1      34.639 -23.100 -15.430  0.00  0.00    +0.001 C 
ATOM     13  C   UNL     1      33.313 -23.329 -15.064  0.00  0.00    +0.004 C 
BRANCH  11  17
ATOM     14  F   UNL     1      30.603 -22.779 -14.115  0.00  0.00    -0.166 F 
ATOM     15  F   UNL     1      29.961 -22.268 -16.122  0.00  0.00    -0.166 F 
ATOM     16  F   UNL     1      30.473 -24.325 -15.639  0.00  0.00    -0.166 F 
ATOM     17  C   UNL     1      30.859 -23.032 -15.433  0.00  0.00    +0.419 C 
ENDBRANCH  11  17
ENDBRANCH   2   8
BRANCH   1  18
ATOM     18  C   UNL     1      34.990 -18.832 -22.017  0.00  0.00    -0.052 C 
BRANCH  18  19
ATOM     19  C   UNL     1      36.027 -17.722 -22.093  0.00  0.00    +0.088 C 
BRANCH  19  21
ATOM     20  O   UNL     1      35.592 -16.049 -19.619  0.00  0.00    -0.247 OA
ATOM     21  N   UNL     1      35.414 -16.428 -21.961  0.00  0.00    -0.282 N 
ATOM     22  N   UNL     1      34.600 -14.491 -21.095  0.00  0.00    -0.305 N 
ATOM     23  C   UNL     1      34.879 -15.666 -23.012  0.00  0.00    +0.079 A 
ATOM     24  C   UNL     1      35.251 -15.708 -20.742  0.00  0.00    +0.328 A 
ATOM     25  C   UNL     1      34.382 -14.480 -22.474  0.00  0.00    +0.076 A 
ATOM     26  C   UNL     1      34.800 -15.932 -24.364  0.00  0.00    +0.019 C 
ATOM     27  C   UNL     1      33.787 -13.509 -23.248  0.00  0.00    +0.019 C 
ATOM     28  C   UNL     1      34.200 -14.960 -25.171  0.00  0.00    +0.002 C 
ATOM     29  C   UNL     1      33.699 -13.762 -24.619  0.00  0.00    +0.002 C 
ATOM     30  H   UNL     1      34.347 -13.775 -20.469  0.00  0.00    +0.170 HD
ENDBRANCH  19  21
ENDBRANCH  18  19
ENDBRANCH   1  18
TORSDOF 5
ENDMDL
MODEL 8
REMARK VINA RESULT:     -10.7      4.699     10.136
REMARK  Name = 6918248
REMARK  5 active torsions:
REMARK  status: ('A' for Active; 'I' for Inactive)
REMARK    1  A    between atoms: N_1  and  C_18
REMARK    2  A    between atoms: N_2  and  C_8
REMARK    3  A    between atoms: C_11  and  C_17
REMARK    4  A    between atoms: C_18  and  C_19
REMARK    5  A    between atoms: C_19  and  N_21
REMARK                            x       y       z     vdW  Elec       q    Type
REMARK                         _______ _______ _______ _____ _____    ______ ____
ROOT
ATOM      1  N   UNL     1      34.736 -19.203 -20.568  0.00  0.00    +0.391 N 
ATOM      2  N   UNL     1      34.895 -21.014 -18.363  0.00  0.00    -0.312 N 
ATOM      3  C   UNL     1      33.606 -20.083 -20.247  0.00  0.00    -0.055 C 
ATOM      4  C   UNL     1      36.001 -19.879 -20.250  0.00  0.00    -0.055 C 
ATOM      5  C   UNL     1      33.599 -20.449 -18.761  0.00  0.00    +0.068 C 
ATOM      6  C   UNL     1      36.073 -20.238 -18.764  0.00  0.00    +0.068 C 
ATOM      7  H   UNL     1      34.666 -18.356 -20.003  0.00  0.00    -0.079 HD
ENDROOT
BRANCH   2   8
ATOM      8  C   UNL     1      34.942 -21.802 -17.209  0.00  0.00    +0.048 C 
ATOM      9  C   UNL     1      36.142 -21.967 -16.490  0.00  0.00    +0.018 C 
ATOM     10  C   UNL     1      33.788 -22.455 -16.729  0.00  0.00    +0.015 C 
ATOM     11  C   UNL     1      36.188 -22.752 -15.338  0.00  0.00    +0.073 C 
ATOM     12  C   UNL     1      33.834 -23.239 -15.577  0.00  0.00    +0.001 C 
ATOM     13  C   UNL     1      35.034 -23.389 -14.881  0.00  0.00    +0.004 C 
BRANCH  11  17
ATOM     14  F   UNL     1      37.519 -22.206 -13.427  0.00  0.00    -0.166 F 
ATOM     15  F   UNL     1      37.739 -24.204 -14.241  0.00  0.00    -0.166 F 
ATOM     16  F   UNL     1      38.552 -22.499 -15.318  0.00  0.00    -0.166 F 
ATOM     17  C   UNL     1      37.470 -22.913 -14.595  0.00  0.00    +0.419 C 
ENDBRANCH  11  17
ENDBRANCH   2   8
BRANCH   1  18
ATOM     18  C   UNL     1      34.702 -18.816 -21.978  0.00  0.00    -0.052 C 
BRANCH  18  19
ATOM     19  C   UNL     1      35.788 -17.793 -22.273  0.00  0.00    +0.088 C 
BRANCH  19  21
ATOM     20  O   UNL     1      35.617 -16.140 -19.752  0.00  0.00    -0.247 OA
ATOM     21  N   UNL     1      35.302 -16.452 -22.090  0.00  0.00    -0.282 N 
ATOM     22  N   UNL     1      34.707 -14.468 -21.155  0.00  0.00    -0.305 N 
ATOM     23  C   UNL     1      34.793 -15.622 -23.102  0.00  0.00    +0.079 A 
ATOM     24  C   UNL     1      35.259 -15.746 -20.853  0.00  0.00    +0.328 A 
ATOM     25  C   UNL     1      34.430 -14.408 -22.522  0.00  0.00    +0.076 A 
ATOM     26  C   UNL     1      34.630 -15.852 -24.453  0.00  0.00    +0.019 C 
ATOM     27  C   UNL     1      33.893 -13.370 -23.251  0.00  0.00    +0.019 C 
ATOM     28  C   UNL     1      34.086 -14.812 -25.215  0.00  0.00    +0.002 C 
ATOM     29  C   UNL     1      33.721 -13.586 -24.621  0.00  0.00    +0.002 C 
ATOM     30  H   UNL     1      34.548 -13.745 -20.506  0.00  0.00    +0.170 HD
ENDBRANCH  19  21
ENDBRANCH  18  19
ENDBRANCH   1  18
TORSDOF 5
ENDMDL
MODEL 9
REMARK VINA RESULT:     -10.7      9.360     13.070
REMARK  Name = 6918248
REMARK  5 active torsions:
REMARK  status: ('A' for Active; 'I' for Inactive)
REMARK    1  A    between atoms: N_1  and  C_18
REMARK    2  A    between atoms: N_2  and  C_8
REMARK    3  A    between atoms: C_11  and  C_17
REMARK    4  A    between atoms: C_18  and  C_19
REMARK    5  A    between atoms: C_19  and  N_21
REMARK                            x       y       z     vdW  Elec       q    Type
REMARK                         _______ _______ _______ _____ _____    ______ ____
ROOT
ATOM      1  N   UNL     1      33.673 -10.623 -23.478  0.00  0.00    +0.391 N 
ATOM      2  N   UNL     1      33.173  -8.333 -21.845  0.00  0.00    -0.312 N 
ATOM      3  C   UNL     1      33.109 -10.780 -22.132  0.00  0.00    -0.055 C 
ATOM      4  C   UNL     1      34.590  -9.476 -23.504  0.00  0.00    -0.055 C 
ATOM      5  C   UNL     1      32.332  -9.530 -21.713  0.00  0.00    +0.068 C 
ATOM      6  C   UNL     1      33.863  -8.183 -23.130  0.00  0.00    +0.068 C 
ATOM      7  H   UNL     1      32.913 -10.451 -24.137  0.00  0.00    -0.079 HD
ENDROOT
BRANCH   2   8
ATOM      8  C   UNL     1      32.819  -7.197 -21.110  0.00  0.00    +0.048 C 
ATOM      9  C   UNL     1      32.671  -5.943 -21.736  0.00  0.00    +0.018 C 
ATOM     10  C   UNL     1      32.598  -7.272 -19.719  0.00  0.00    +0.015 C 
ATOM     11  C   UNL     1      32.317  -4.811 -21.002  0.00  0.00    +0.073 C 
ATOM     12  C   UNL     1      32.243  -6.140 -18.986  0.00  0.00    +0.001 C 
ATOM     13  C   UNL     1      32.104  -4.909 -19.626  0.00  0.00    +0.004 C 
BRANCH  11  17
ATOM     14  F   UNL     1      33.072  -2.558 -21.273  0.00  0.00    -0.166 F 
ATOM     15  F   UNL     1      32.320  -3.563 -23.042  0.00  0.00    -0.166 F 
ATOM     16  F   UNL     1      30.941  -2.933 -21.483  0.00  0.00    -0.166 F 
ATOM     17  C   UNL     1      32.168  -3.495 -21.686  0.00  0.00    +0.419 C 
ENDBRANCH  11  17
ENDBRANCH   2   8
BRANCH   1  18
ATOM     18  C   UNL     1      34.366 -11.844 -23.890  0.00  0.00    -0.052 C 
BRANCH  18  19
ATOM     19  C   UNL     1      33.423 -13.035 -23.823  0.00  0.00    +0.088 C 
BRANCH  19  21
ATOM     20  O   UNL     1      34.461 -15.096 -25.769  0.00  0.00    -0.247 OA
ATOM     21  N   UNL     1      34.141 -14.254 -23.567  0.00  0.00    -0.282 N 
ATOM     22  N   UNL     1      35.247 -16.220 -23.843  0.00  0.00    -0.305 N 
ATOM     23  C   UNL     1      34.510 -14.734 -22.299  0.00  0.00    +0.079 A 
ATOM     24  C   UNL     1      34.595 -15.174 -24.556  0.00  0.00    +0.328 A 
ATOM     25  C   UNL     1      35.187 -15.939 -22.477  0.00  0.00    +0.076 A 
ATOM     26  C   UNL     1      34.298 -14.204 -21.043  0.00  0.00    +0.019 C 
ATOM     27  C   UNL     1      35.685 -16.670 -21.420  0.00  0.00    +0.019 C 
ATOM     28  C   UNL     1      34.795 -14.929 -19.954  0.00  0.00    +0.002 C 
ATOM     29  C   UNL     1      35.480 -16.148 -20.141  0.00  0.00    +0.002 C 
ATOM     30  H   UNL     1      35.671 -17.011 -24.247  0.00  0.00    +0.170 HD
ENDBRANCH  19  21
ENDBRANCH  18  19
ENDBRANCH   1  18
TORSDOF 5
ENDMDL
