MODEL 1
REMARK VINA RESULT:     -12.3      0.000      0.000
REMARK  Name = 445756
REMARK  6 active torsions:
REMARK  status: ('A' for Active; 'I' for Inactive)
REMARK    1  A    between atoms: C_3  and  C_11
REMARK    2  A    between atoms: C_6  and  C_22
REMARK    3  A    between atoms: C_11  and  N_12
REMARK    4  A    between atoms: C_22  and  N_23
REMARK    5  A    between atoms: N_23  and  C_25
REMARK    6  A    between atoms: C_30  and  C_33
REMARK                            x       y       z     vdW  Elec       q    Type
REMARK                         _______ _______ _______ _____ _____    ______ ____
ROOT
ATOM      1  N   UNL     1      34.750 -14.807 -21.992  0.00  0.00    -0.261 N 
ATOM      2  N   UNL     1      34.171 -14.904 -19.849  0.00  0.00    -0.392 NA
ATOM      3  C   UNL     1      32.015 -12.003 -20.801  0.00  0.00    -0.017 C 
ATOM      4  C   UNL     1      33.842 -13.796 -21.813  0.00  0.00    +0.079 C 
ATOM      5  C   UNL     1      33.495 -13.878 -20.467  0.00  0.00    +0.128 C 
ATOM      6  C   UNL     1      34.915 -15.439 -20.791  0.00  0.00    +0.183 C 
ATOM      7  C   UNL     1      32.563 -12.966 -19.943  0.00  0.00    +0.084 C 
ATOM      8  C   UNL     1      32.382 -11.947 -22.147  0.00  0.00    -0.005 C 
ATOM      9  C   UNL     1      33.308 -12.847 -22.686  0.00  0.00    +0.017 C 
ATOM     10  C   UNL     1      35.414 -15.141 -23.232  0.00  0.00    +0.120 C 
ENDROOT
BRANCH   3  11
ATOM     11  C   UNL     1      31.022 -11.025 -20.265  0.00  0.00    +0.120 C 
BRANCH  11  12
ATOM     12  N   UNL     1      31.669  -9.800 -19.785  0.00  0.00    -0.260 N 
ATOM     13  N   UNL     1      32.571  -8.357 -18.385  0.00  0.00    -0.394 NA
ATOM     14  C   UNL     1      32.029  -8.746 -20.565  0.00  0.00    +0.079 C 
ATOM     15  C   UNL     1      32.004  -9.537 -18.499  0.00  0.00    +0.164 C 
ATOM     16  C   UNL     1      32.595  -7.848 -19.663  0.00  0.00    +0.128 C 
ATOM     17  C   UNL     1      31.921  -8.492 -21.932  0.00  0.00    +0.017 C 
ATOM     18  C   UNL     1      31.748 -10.485 -17.395  0.00  0.00    +0.084 C 
ATOM     19  C   UNL     1      33.087  -6.620 -20.138  0.00  0.00    +0.086 C 
ATOM     20  C   UNL     1      32.414  -7.265 -22.386  0.00  0.00    -0.003 C 
ATOM     21  C   UNL     1      32.988  -6.344 -21.507  0.00  0.00    -0.019 C 
ENDBRANCH  11  12
ENDBRANCH   3  11
BRANCH   6  22
ATOM     22  C   UNL     1      35.832 -16.584 -20.625  0.00  0.00    +0.164 C 
BRANCH  22  23
ATOM     23  N   UNL     1      35.352 -17.848 -21.173  0.00  0.00    -0.326 N 
ATOM     24  H   UNL     1      35.230 -17.920 -22.147  0.00  0.00    +0.147 HD
BRANCH  23  25
ATOM     25  C   UNL     1      35.060 -18.947 -20.393  0.00  0.00    +0.045 C 
ATOM     26  C   UNL     1      33.728 -19.370 -20.199  0.00  0.00    +0.014 C 
ATOM     27  C   UNL     1      36.082 -19.684 -19.759  0.00  0.00    +0.014 C 
ATOM     28  C   UNL     1      33.432 -20.480 -19.409  0.00  0.00    +0.004 C 
ATOM     29  C   UNL     1      35.786 -20.794 -18.969  0.00  0.00    +0.004 C 
ATOM     30  C   UNL     1      34.461 -21.192 -18.793  0.00  0.00    +0.031 C 
BRANCH  30  33
ATOM     31  N   UNL     1      34.196 -22.279 -16.576  0.00  0.00    -0.343 N 
ATOM     32  N   UNL     1      33.827 -23.496 -18.537  0.00  0.00    -0.285 NA
ATOM     33  C   UNL     1      34.153 -22.349 -17.967  0.00  0.00    +0.117 C 
ATOM     34  H   UNL     1      33.983 -23.075 -16.036  0.00  0.00    +0.144 HD
ATOM     35  H   UNL     1      34.439 -21.434 -16.133  0.00  0.00    +0.144 HD
ATOM     36  H   UNL     1      33.618 -24.280 -17.979  0.00  0.00    +0.188 HD
ENDBRANCH  30  33
ENDBRANCH  23  25
ENDBRANCH  22  23
ENDBRANCH   6  22
TORSDOF 6
ENDMDL
MODEL 2
REMARK VINA RESULT:     -12.3      5.817     12.695
REMARK  Name = 445756
REMARK  6 active torsions:
REMARK  status: ('A' for Active; 'I' for Inactive)
REMARK    1  A    between atoms: C_3  and  C_11
REMARK    2  A    between atoms: C_6  and  C_22
REMARK    3  A    between atoms: C_11  and  N_12
REMARK    4  A    between atoms: C_22  and  N_23
REMARK    5  A    between atoms: N_23  and  C_25
REMARK    6  A    between atoms: C_30  and  C_33
REMARK                            x       y       z     vdW  Elec       q    Type
REMARK                         _______ _______ _______ _____ _____    ______ ____
ROOT
ATOM      1  N   UNL     1      34.731 -21.611 -17.930  0.00  0.00    -0.261 N 
ATOM      2  N   UNL     1      36.773 -21.303 -17.109  0.00  0.00    -0.392 NA
ATOM      3  C   UNL     1      35.325 -23.073 -14.152  0.00  0.00    -0.017 C 
ATOM      4  C   UNL     1      34.709 -22.168 -16.678  0.00  0.00    +0.079 C 
ATOM      5  C   UNL     1      35.995 -21.962 -16.186  0.00  0.00    +0.128 C 
ATOM      6  C   UNL     1      35.984 -21.108 -18.142  0.00  0.00    +0.183 C 
ATOM      7  C   UNL     1      36.317 -22.422 -14.898  0.00  0.00    +0.084 C 
ATOM      8  C   UNL     1      34.044 -23.265 -14.674  0.00  0.00    -0.005 C 
ATOM      9  C   UNL     1      33.706 -22.814 -15.954  0.00  0.00    +0.017 C 
ATOM     10  C   UNL     1      33.624 -21.567 -18.859  0.00  0.00    +0.120 C 
ENDROOT
BRANCH   3  11
ATOM     11  C   UNL     1      35.646 -23.571 -12.781  0.00  0.00    +0.120 C 
BRANCH  11  12
ATOM     12  N   UNL     1      37.092 -23.655 -12.558  0.00  0.00    -0.260 N 
ATOM     13  N   UNL     1      39.068 -23.256 -11.667  0.00  0.00    -0.394 NA
ATOM     14  C   UNL     1      37.950 -24.440 -13.262  0.00  0.00    +0.079 C 
ATOM     15  C   UNL     1      37.787 -22.965 -11.621  0.00  0.00    +0.164 C 
ATOM     16  C   UNL     1      39.189 -24.174 -12.685  0.00  0.00    +0.128 C 
ATOM     17  C   UNL     1      37.773 -25.335 -14.318  0.00  0.00    +0.017 C 
ATOM     18  C   UNL     1      37.147 -22.019 -10.685  0.00  0.00    +0.084 C 
ATOM     19  C   UNL     1      40.329 -24.831 -13.179  0.00  0.00    +0.086 C 
ATOM     20  C   UNL     1      38.919 -25.978 -14.797  0.00  0.00    -0.003 C 
ATOM     21  C   UNL     1      40.175 -25.732 -14.239  0.00  0.00    -0.019 C 
ENDBRANCH  11  12
ENDBRANCH   3  11
BRANCH   6  22
ATOM     22  C   UNL     1      36.357 -20.432 -19.401  0.00  0.00    +0.164 C 
BRANCH  22  23
ATOM     23  N   UNL     1      35.973 -19.028 -19.489  0.00  0.00    -0.326 N 
ATOM     24  H   UNL     1      35.960 -18.494 -18.662  0.00  0.00    +0.147 HD
BRANCH  23  25
ATOM     25  C   UNL     1      35.626 -18.412 -20.672  0.00  0.00    +0.045 C 
ATOM     26  C   UNL     1      35.008 -19.133 -21.717  0.00  0.00    +0.014 C 
ATOM     27  C   UNL     1      35.880 -17.040 -20.882  0.00  0.00    +0.014 C 
ATOM     28  C   UNL     1      34.660 -18.510 -22.915  0.00  0.00    +0.004 C 
ATOM     29  C   UNL     1      35.531 -16.417 -22.080  0.00  0.00    +0.004 C 
ATOM     30  C   UNL     1      34.922 -17.152 -23.096  0.00  0.00    +0.031 C 
BRANCH  30  33
ATOM     31  N   UNL     1      34.991 -15.212 -24.645  0.00  0.00    -0.343 N 
ATOM     32  N   UNL     1      33.802 -17.138 -25.223  0.00  0.00    -0.285 NA
ATOM     33  C   UNL     1      34.559 -16.503 -24.346  0.00  0.00    +0.117 C 
ATOM     34  H   UNL     1      34.734 -14.791 -25.497  0.00  0.00    +0.144 HD
ATOM     35  H   UNL     1      35.554 -14.720 -24.003  0.00  0.00    +0.144 HD
ATOM     36  H   UNL     1      33.556 -16.700 -26.070  0.00  0.00    +0.188 HD
ENDBRANCH  30  33
ENDBRANCH  23  25
ENDBRANCH  22  23
ENDBRANCH   6  22
TORSDOF 6
ENDMDL
MODEL 3
REMARK VINA RESULT:     -12.0      5.587     12.772
REMARK  Name = 445756
REMARK  6 active torsions:
REMARK  status: ('A' for Active; 'I' for Inactive)
REMARK    1  A    between atoms: C_3  and  C_11
REMARK    2  A    between atoms: C_6  and  C_22
REMARK    3  A    between atoms: C_11  and  N_12
REMARK    4  A    between atoms: C_22  and  N_23
REMARK    5  A    between atoms: N_23  and  C_25
REMARK    6  A    between atoms: C_30  and  C_33
REMARK                            x       y       z     vdW  Elec       q    Type
REMARK                         _______ _______ _______ _____ _____    ______ ____
ROOT
ATOM      1  N   UNL     1      35.034 -21.421 -18.306  0.00  0.00    -0.261 N 
ATOM      2  N   UNL     1      36.988 -20.482 -17.818  0.00  0.00    -0.392 NA
ATOM      3  C   UNL     1      36.361 -22.053 -14.485  0.00  0.00    -0.017 C 
ATOM      4  C   UNL     1      35.284 -21.754 -17.000  0.00  0.00    +0.079 C 
ATOM      5  C   UNL     1      36.509 -21.156 -16.719  0.00  0.00    +0.128 C 
ATOM      6  C   UNL     1      36.080 -20.661 -18.751  0.00  0.00    +0.183 C 
ATOM      7  C   UNL     1      37.066 -21.305 -15.438  0.00  0.00    +0.084 C 
ATOM      8  C   UNL     1      35.134 -22.641 -14.798  0.00  0.00    -0.005 C 
ATOM      9  C   UNL     1      34.565 -22.504 -16.068  0.00  0.00    +0.017 C 
ATOM     10  C   UNL     1      33.871 -21.807 -19.073  0.00  0.00    +0.120 C 
ENDROOT
BRANCH   3  11
ATOM     11  C   UNL     1      36.935 -22.225 -13.117  0.00  0.00    +0.120 C 
BRANCH  11  12
ATOM     12  N   UNL     1      37.456 -23.580 -12.912  0.00  0.00    -0.260 N 
ATOM     13  N   UNL     1      37.603 -25.637 -12.137  0.00  0.00    -0.394 NA
ATOM     14  C   UNL     1      38.572 -24.088 -13.499  0.00  0.00    +0.079 C 
ATOM     15  C   UNL     1      36.906 -24.523 -12.110  0.00  0.00    +0.164 C 
ATOM     16  C   UNL     1      38.646 -25.385 -12.997  0.00  0.00    +0.128 C 
ATOM     17  C   UNL     1      39.501 -23.560 -14.396  0.00  0.00    +0.017 C 
ATOM     18  C   UNL     1      35.677 -24.289 -11.325  0.00  0.00    +0.084 C 
ATOM     19  C   UNL     1      39.703 -26.217 -13.405  0.00  0.00    +0.086 C 
ATOM     20  C   UNL     1      40.546 -24.402 -14.789  0.00  0.00    -0.003 C 
ATOM     21  C   UNL     1      40.647 -25.707 -14.304  0.00  0.00    -0.019 C 
ENDBRANCH  11  12
ENDBRANCH   3  11
BRANCH   6  22
ATOM     22  C   UNL     1      36.134 -20.128 -20.127  0.00  0.00    +0.164 C 
BRANCH  22  23
ATOM     23  N   UNL     1      36.044 -18.676 -20.234  0.00  0.00    -0.326 N 
ATOM     24  H   UNL     1      36.334 -18.131 -19.466  0.00  0.00    +0.147 HD
BRANCH  23  25
ATOM     25  C   UNL     1      35.572 -18.029 -21.355  0.00  0.00    +0.045 C 
ATOM     26  C   UNL     1      35.654 -16.625 -21.477  0.00  0.00    +0.014 C 
ATOM     27  C   UNL     1      34.987 -18.747 -22.420  0.00  0.00    +0.014 C 
ATOM     28  C   UNL     1      35.174 -15.970 -22.611  0.00  0.00    +0.004 C 
ATOM     29  C   UNL     1      34.507 -18.092 -23.553  0.00  0.00    +0.004 C 
ATOM     30  C   UNL     1      34.600 -16.704 -23.649  0.00  0.00    +0.031 C 
BRANCH  30  33
ATOM     31  N   UNL     1      34.562 -14.757 -25.189  0.00  0.00    -0.343 N 
ATOM     32  N   UNL     1      33.181 -16.599 -25.585  0.00  0.00    -0.285 NA
ATOM     33  C   UNL     1      34.098 -16.021 -24.831  0.00  0.00    +0.117 C 
ATOM     34  H   UNL     1      34.209 -14.312 -25.994  0.00  0.00    +0.144 HD
ATOM     35  H   UNL     1      35.244 -14.308 -24.639  0.00  0.00    +0.144 HD
ATOM     36  H   UNL     1      32.839 -16.138 -26.386  0.00  0.00    +0.188 HD
ENDBRANCH  30  33
ENDBRANCH  23  25
ENDBRANCH  22  23
ENDBRANCH   6  22
TORSDOF 6
ENDMDL
MODEL 4
REMARK VINA RESULT:     -12.0      5.030     12.400
REMARK  Name = 445756
REMARK  6 active torsions:
REMARK  status: ('A' for Active; 'I' for Inactive)
REMARK    1  A    between atoms: C_3  and  C_11
REMARK    2  A    between atoms: C_6  and  C_22
REMARK    3  A    between atoms: C_11  and  N_12
REMARK    4  A    between atoms: C_22  and  N_23
REMARK    5  A    between atoms: N_23  and  C_25
REMARK    6  A    between atoms: C_30  and  C_33
REMARK                            x       y       z     vdW  Elec       q    Type
REMARK                         _______ _______ _______ _____ _____    ______ ____
ROOT
ATOM      1  N   UNL     1      34.459 -20.920 -18.727  0.00  0.00    -0.261 N 
ATOM      2  N   UNL     1      36.464 -21.174 -17.803  0.00  0.00    -0.392 NA
ATOM      3  C   UNL     1      34.531 -23.205 -15.331  0.00  0.00    -0.017 C 
ATOM      4  C   UNL     1      34.256 -21.705 -17.622  0.00  0.00    +0.079 C 
ATOM      5  C   UNL     1      35.522 -21.850 -17.062  0.00  0.00    +0.128 C 
ATOM      6  C   UNL     1      35.793 -20.628 -18.792  0.00  0.00    +0.183 C 
ATOM      7  C   UNL     1      35.671 -22.615 -15.893  0.00  0.00    +0.084 C 
ATOM      8  C   UNL     1      33.274 -23.042 -15.916  0.00  0.00    -0.005 C 
ATOM      9  C   UNL     1      33.107 -22.285 -17.081  0.00  0.00    +0.017 C 
ATOM     10  C   UNL     1      33.442 -20.480 -19.656  0.00  0.00    +0.120 C 
ENDROOT
BRANCH   3  11
ATOM     11  C   UNL     1      34.667 -24.023 -14.089  0.00  0.00    +0.120 C 
BRANCH  11  12
ATOM     12  N   UNL     1      36.067 -24.351 -13.803  0.00  0.00    -0.260 N 
ATOM     13  N   UNL     1      38.010 -25.382 -13.928  0.00  0.00    -0.394 NA
ATOM     14  C   UNL     1      36.854 -23.710 -12.898  0.00  0.00    +0.079 C 
ATOM     15  C   UNL     1      36.782 -25.337 -14.396  0.00  0.00    +0.164 C 
ATOM     16  C   UNL     1      38.073 -24.376 -12.993  0.00  0.00    +0.128 C 
ATOM     17  C   UNL     1      36.628 -22.643 -12.028  0.00  0.00    +0.017 C 
ATOM     18  C   UNL     1      36.217 -26.224 -15.433  0.00  0.00    +0.084 C 
ATOM     19  C   UNL     1      39.142 -23.964 -12.179  0.00  0.00    +0.086 C 
ATOM     20  C   UNL     1      37.703 -22.249 -11.224  0.00  0.00    -0.003 C 
ATOM     21  C   UNL     1      38.939 -22.896 -11.297  0.00  0.00    -0.019 C 
ENDBRANCH  11  12
ENDBRANCH   3  11
BRANCH   6  22
ATOM     22  C   UNL     1      36.364 -19.793 -19.868  0.00  0.00    +0.164 C 
BRANCH  22  23
ATOM     23  N   UNL     1      36.060 -18.369 -19.776  0.00  0.00    -0.326 N 
ATOM     24  H   UNL     1      36.136 -17.931 -18.897  0.00  0.00    +0.147 HD
BRANCH  23  25
ATOM     25  C   UNL     1      35.670 -17.608 -20.856  0.00  0.00    +0.045 C 
ATOM     26  C   UNL     1      35.538 -16.206 -20.753  0.00  0.00    +0.014 C 
ATOM     27  C   UNL     1      35.385 -18.204 -22.103  0.00  0.00    +0.014 C 
ATOM     28  C   UNL     1      35.142 -15.437 -21.846  0.00  0.00    +0.004 C 
ATOM     29  C   UNL     1      34.989 -17.434 -23.196  0.00  0.00    +0.004 C 
ATOM     30  C   UNL     1      34.866 -16.051 -23.068  0.00  0.00    +0.031 C 
BRANCH  30  33
ATOM     31  N   UNL     1      33.617 -14.143 -24.051  0.00  0.00    -0.343 N 
ATOM     32  N   UNL     1      34.863 -15.567 -25.422  0.00  0.00    -0.285 NA
ATOM     33  C   UNL     1      34.451 -15.248 -24.207  0.00  0.00    +0.117 C 
ATOM     34  H   UNL     1      33.348 -13.613 -24.836  0.00  0.00    +0.144 HD
ATOM     35  H   UNL     1      33.297 -13.891 -23.154  0.00  0.00    +0.144 HD
ATOM     36  H   UNL     1      34.583 -15.024 -26.195  0.00  0.00    +0.188 HD
ENDBRANCH  30  33
ENDBRANCH  23  25
ENDBRANCH  22  23
ENDBRANCH   6  22
TORSDOF 6
ENDMDL
MODEL 5
REMARK VINA RESULT:     -12.0      1.861      3.409
REMARK  Name = 445756
REMARK  6 active torsions:
REMARK  status: ('A' for Active; 'I' for Inactive)
REMARK    1  A    between atoms: C_3  and  C_11
REMARK    2  A    between atoms: C_6  and  C_22
REMARK    3  A    between atoms: C_11  and  N_12
REMARK    4  A    between atoms: C_22  and  N_23
REMARK    5  A    between atoms: N_23  and  C_25
REMARK    6  A    between atoms: C_30  and  C_33
REMARK                            x       y       z     vdW  Elec       q    Type
REMARK                         _______ _______ _______ _____ _____    ______ ____
ROOT
ATOM      1  N   UNL     1      34.221 -16.528 -24.027  0.00  0.00    -0.261 N 
ATOM      2  N   UNL     1      35.410 -15.819 -22.288  0.00  0.00    -0.392 NA
ATOM      3  C   UNL     1      34.342 -12.464 -23.543  0.00  0.00    -0.017 C 
ATOM      4  C   UNL     1      34.128 -15.160 -24.053  0.00  0.00    +0.079 C 
ATOM      5  C   UNL     1      34.879 -14.741 -22.958  0.00  0.00    +0.128 C 
ATOM      6  C   UNL     1      34.997 -16.873 -22.955  0.00  0.00    +0.183 C 
ATOM      7  C   UNL     1      34.992 -13.367 -22.691  0.00  0.00    +0.084 C 
ATOM      8  C   UNL     1      33.596 -12.915 -24.634  0.00  0.00    -0.005 C 
ATOM      9  C   UNL     1      33.472 -14.280 -24.915  0.00  0.00    +0.017 C 
ATOM     10  C   UNL     1      33.607 -17.439 -24.966  0.00  0.00    +0.120 C 
ENDROOT
BRANCH   3  11
ATOM     11  C   UNL     1      34.449 -10.998 -23.278  0.00  0.00    +0.120 C 
BRANCH  11  12
ATOM     12  N   UNL     1      33.287 -10.494 -22.539  0.00  0.00    -0.260 N 
ATOM     13  N   UNL     1      31.615  -9.173 -21.977  0.00  0.00    -0.394 NA
ATOM     14  C   UNL     1      32.719 -11.099 -21.462  0.00  0.00    +0.079 C 
ATOM     15  C   UNL     1      32.610  -9.354 -22.818  0.00  0.00    +0.164 C 
ATOM     16  C   UNL     1      31.668 -10.251 -21.124  0.00  0.00    +0.128 C 
ATOM     17  C   UNL     1      33.010 -12.274 -20.767  0.00  0.00    +0.017 C 
ATOM     18  C   UNL     1      32.973  -8.459 -23.935  0.00  0.00    +0.084 C 
ATOM     19  C   UNL     1      30.849 -10.579 -20.030  0.00  0.00    +0.086 C 
ATOM     20  C   UNL     1      32.185 -12.583 -19.681  0.00  0.00    -0.003 C 
ATOM     21  C   UNL     1      31.123 -11.752 -19.317  0.00  0.00    -0.019 C 
ENDBRANCH  11  12
ENDBRANCH   3  11
BRANCH   6  22
ATOM     22  C   UNL     1      35.304 -18.280 -22.629  0.00  0.00    +0.164 C 
BRANCH  22  23
ATOM     23  N   UNL     1      35.839 -18.504 -21.290  0.00  0.00    -0.326 N 
ATOM     24  H   UNL     1      36.650 -18.013 -21.023  0.00  0.00    +0.147 HD
BRANCH  23  25
ATOM     25  C   UNL     1      35.267 -19.370 -20.383  0.00  0.00    +0.045 C 
ATOM     26  C   UNL     1      36.063 -20.182 -19.548  0.00  0.00    +0.014 C 
ATOM     27  C   UNL     1      33.866 -19.476 -20.260  0.00  0.00    +0.014 C 
ATOM     28  C   UNL     1      35.484 -21.060 -18.632  0.00  0.00    +0.004 C 
ATOM     29  C   UNL     1      33.287 -20.353 -19.344  0.00  0.00    +0.004 C 
ATOM     30  C   UNL     1      34.096 -21.146 -18.530  0.00  0.00    +0.031 C 
BRANCH  30  33
ATOM     31  N   UNL     1      32.140 -21.979 -17.247  0.00  0.00    -0.343 N 
ATOM     32  N   UNL     1      34.231 -22.994 -17.000  0.00  0.00    -0.285 NA
ATOM     33  C   UNL     1      33.492 -22.062 -17.576  0.00  0.00    +0.117 C 
ATOM     34  H   UNL     1      31.752 -22.610 -16.598  0.00  0.00    +0.144 HD
ATOM     35  H   UNL     1      31.574 -21.290 -17.663  0.00  0.00    +0.144 HD
ATOM     36  H   UNL     1      33.824 -23.615 -16.353  0.00  0.00    +0.188 HD
ENDBRANCH  30  33
ENDBRANCH  23  25
ENDBRANCH  22  23
ENDBRANCH   6  22
TORSDOF 6
ENDMDL
MODEL 6
REMARK VINA RESULT:     -11.9      2.078      3.205
REMARK  Name = 445756
REMARK  6 active torsions:
REMARK  status: ('A' for Active; 'I' for Inactive)
REMARK    1  A    between atoms: C_3  and  C_11
REMARK    2  A    between atoms: C_6  and  C_22
REMARK    3  A    between atoms: C_11  and  N_12
REMARK    4  A    between atoms: C_22  and  N_23
REMARK    5  A    between atoms: N_23  and  C_25
REMARK    6  A    between atoms: C_30  and  C_33
REMARK                            x       y       z     vdW  Elec       q    Type
REMARK                         _______ _______ _______ _____ _____    ______ ____
ROOT
ATOM      1  N   UNL     1      35.073 -15.452 -21.409  0.00  0.00    -0.261 N 
ATOM      2  N   UNL     1      35.066 -15.707 -23.617  0.00  0.00    -0.392 NA
ATOM      3  C   UNL     1      34.037 -12.115 -23.543  0.00  0.00    -0.017 C 
ATOM      4  C   UNL     1      34.705 -14.233 -21.917  0.00  0.00    +0.079 C 
ATOM      5  C   UNL     1      34.708 -14.419 -23.297  0.00  0.00    +0.128 C 
ATOM      6  C   UNL     1      35.278 -16.299 -22.462  0.00  0.00    +0.183 C 
ATOM      7  C   UNL     1      34.368 -13.342 -24.134  0.00  0.00    +0.084 C 
ATOM      8  C   UNL     1      34.044 -11.960 -22.155  0.00  0.00    -0.005 C 
ATOM      9  C   UNL     1      34.379 -13.020 -21.307  0.00  0.00    +0.017 C 
ATOM     10  C   UNL     1      35.219 -15.779 -20.008  0.00  0.00    +0.120 C 
ENDROOT
BRANCH   3  11
ATOM     11  C   UNL     1      33.674 -10.957 -24.413  0.00  0.00    +0.120 C 
BRANCH  11  12
ATOM     12  N   UNL     1      34.089  -9.681 -23.822  0.00  0.00    -0.260 N 
ATOM     13  N   UNL     1      35.294  -7.873 -23.457  0.00  0.00    -0.394 NA
ATOM     14  C   UNL     1      33.424  -9.019 -22.839  0.00  0.00    +0.079 C 
ATOM     15  C   UNL     1      35.194  -8.976 -24.165  0.00  0.00    +0.164 C 
ATOM     16  C   UNL     1      34.199  -7.883 -22.624  0.00  0.00    +0.128 C 
ATOM     17  C   UNL     1      32.251  -9.290 -22.134  0.00  0.00    +0.017 C 
ATOM     18  C   UNL     1      36.138  -9.423 -25.209  0.00  0.00    +0.084 C 
ATOM     19  C   UNL     1      33.795  -6.952 -21.652  0.00  0.00    +0.086 C 
ATOM     20  C   UNL     1      31.865  -8.354 -21.169  0.00  0.00    -0.003 C 
ATOM     21  C   UNL     1      32.622  -7.204 -20.931  0.00  0.00    -0.019 C 
ENDBRANCH  11  12
ENDBRANCH   3  11
BRANCH   6  22
ATOM     22  C   UNL     1      35.687 -17.705 -22.271  0.00  0.00    +0.164 C 
BRANCH  22  23
ATOM     23  N   UNL     1      34.607 -18.626 -21.935  0.00  0.00    -0.326 N 
ATOM     24  H   UNL     1      33.834 -18.681 -22.543  0.00  0.00    +0.147 HD
BRANCH  23  25
ATOM     25  C   UNL     1      34.615 -19.421 -20.810  0.00  0.00    +0.045 C 
ATOM     26  C   UNL     1      33.411 -19.846 -20.208  0.00  0.00    +0.014 C 
ATOM     27  C   UNL     1      35.827 -19.836 -20.218  0.00  0.00    +0.014 C 
ATOM     28  C   UNL     1      33.420 -20.649 -19.068  0.00  0.00    +0.004 C 
ATOM     29  C   UNL     1      35.835 -20.638 -19.078  0.00  0.00    +0.004 C 
ATOM     30  C   UNL     1      34.632 -21.044 -18.502  0.00  0.00    +0.031 C 
BRANCH  30  33
ATOM     31  N   UNL     1      33.490 -22.537 -16.879  0.00  0.00    -0.343 N 
ATOM     32  N   UNL     1      35.755 -22.025 -16.618  0.00  0.00    -0.285 NA
ATOM     33  C   UNL     1      34.641 -21.881 -17.312  0.00  0.00    +0.117 C 
ATOM     34  H   UNL     1      33.519 -23.098 -16.070  0.00  0.00    +0.144 HD
ATOM     35  H   UNL     1      32.649 -22.440 -17.381  0.00  0.00    +0.144 HD
ATOM     36  H   UNL     1      35.763 -22.591 -15.811  0.00  0.00    +0.188 HD
ENDBRANCH  30  33
ENDBRANCH  23  25
ENDBRANCH  22  23
ENDBRANCH   6  22
TORSDOF 6
ENDMDL
MODEL 7
REMARK VINA RESULT:     -11.6      1.980      2.825
REMARK  Name = 445756
REMARK  6 active torsions:
REMARK  status: ('A' for Active; 'I' for Inactive)
REMARK    1  A    between atoms: C_3  and  C_11
REMARK    2  A    between atoms: C_6  and  C_22
REMARK    3  A    between atoms: C_11  and  N_12
REMARK    4  A    between atoms: C_22  and  N_23
REMARK    5  A    between atoms: N_23  and  C_25
REMARK    6  A    between atoms: C_30  and  C_33
REMARK                            x       y       z     vdW  Elec       q    Type
REMARK                         _______ _______ _______ _____ _____    ______ ____
ROOT
ATOM      1  N   UNL     1      34.932 -15.266 -20.779  0.00  0.00    -0.261 N 
ATOM      2  N   UNL     1      34.790 -14.931 -22.971  0.00  0.00    -0.392 NA
ATOM      3  C   UNL     1      32.857 -11.918 -21.896  0.00  0.00    -0.017 C 
ATOM      4  C   UNL     1      34.208 -14.111 -20.926  0.00  0.00    +0.079 C 
ATOM      5  C   UNL     1      34.134 -13.923 -22.304  0.00  0.00    +0.128 C 
ATOM      6  C   UNL     1      35.256 -15.719 -22.028  0.00  0.00    +0.183 C 
ATOM      7  C   UNL     1      33.446 -12.806 -22.807  0.00  0.00    +0.084 C 
ATOM      8  C   UNL     1      32.950 -12.133 -20.520  0.00  0.00    -0.005 C 
ATOM      9  C   UNL     1      33.631 -13.240 -20.001  0.00  0.00    +0.017 C 
ATOM     10  C   UNL     1      35.287 -15.892 -19.525  0.00  0.00    +0.120 C 
ENDROOT
BRANCH   3  11
ATOM     11  C   UNL     1      32.122 -10.723 -22.409  0.00  0.00    +0.120 C 
BRANCH  11  12
ATOM     12  N   UNL     1      32.981  -9.535 -22.455  0.00  0.00    -0.260 N 
ATOM     13  N   UNL     1      33.845  -7.592 -21.878  0.00  0.00    -0.394 NA
ATOM     14  C   UNL     1      33.931  -9.290 -23.395  0.00  0.00    +0.079 C 
ATOM     15  C   UNL     1      32.955  -8.509 -21.570  0.00  0.00    +0.164 C 
ATOM     16  C   UNL     1      34.463  -8.062 -23.014  0.00  0.00    +0.128 C 
ATOM     17  C   UNL     1      34.369 -10.001 -24.513  0.00  0.00    +0.017 C 
ATOM     18  C   UNL     1      32.029  -8.466 -20.420  0.00  0.00    +0.084 C 
ATOM     19  C   UNL     1      35.494  -7.495 -23.782  0.00  0.00    +0.086 C 
ATOM     20  C   UNL     1      35.395  -9.421 -25.266  0.00  0.00    -0.003 C 
ATOM     21  C   UNL     1      35.950  -8.190 -24.908  0.00  0.00    -0.019 C 
ENDBRANCH  11  12
ENDBRANCH   3  11
BRANCH   6  22
ATOM     22  C   UNL     1      36.039 -16.953 -22.238  0.00  0.00    +0.164 C 
BRANCH  22  23
ATOM     23  N   UNL     1      35.251 -18.175 -22.357  0.00  0.00    -0.326 N 
ATOM     24  H   UNL     1      34.912 -18.428 -23.247  0.00  0.00    +0.147 HD
BRANCH  23  25
ATOM     25  C   UNL     1      34.955 -18.991 -21.287  0.00  0.00    +0.045 C 
ATOM     26  C   UNL     1      35.978 -19.617 -20.542  0.00  0.00    +0.014 C 
ATOM     27  C   UNL     1      33.620 -19.232 -20.901  0.00  0.00    +0.014 C 
ATOM     28  C   UNL     1      35.678 -20.444 -19.460  0.00  0.00    +0.004 C 
ATOM     29  C   UNL     1      33.320 -20.060 -19.819  0.00  0.00    +0.004 C 
ATOM     30  C   UNL     1      34.349 -20.667 -19.099  0.00  0.00    +0.031 C 
BRANCH  30  33
ATOM     31  N   UNL     1      32.722 -21.873 -17.663  0.00  0.00    -0.343 N 
ATOM     32  N   UNL     1      35.012 -22.005 -17.216  0.00  0.00    -0.285 NA
ATOM     33  C   UNL     1      34.037 -21.531 -17.972  0.00  0.00    +0.117 C 
ATOM     34  H   UNL     1      32.533 -22.460 -16.895  0.00  0.00    +0.144 HD
ATOM     35  H   UNL     1      31.981 -21.528 -18.213  0.00  0.00    +0.144 HD
ATOM     36  H   UNL     1      34.802 -22.590 -16.452  0.00  0.00    +0.188 HD
ENDBRANCH  30  33
ENDBRANCH  23  25
ENDBRANCH  22  23
ENDBRANCH   6  22
TORSDOF 6
ENDMDL
MODEL 8
REMARK VINA RESULT:     -11.2      2.210      3.268
REMARK  Name = 445756
REMARK  6 active torsions:
REMARK  status: ('A' for Active; 'I' for Inactive)
REMARK    1  A    between atoms: C_3  and  C_11
REMARK    2  A    between atoms: C_6  and  C_22
REMARK    3  A    between atoms: C_11  and  N_12
REMARK    4  A    between atoms: C_22  and  N_23
REMARK    5  A    between atoms: N_23  and  C_25
REMARK    6  A    between atoms: C_30  and  C_33
REMARK                            x       y       z     vdW  Elec       q    Type
REMARK                         _______ _______ _______ _____ _____    ______ ____
ROOT
ATOM      1  N   UNL     1      34.753 -15.388 -22.987  0.00  0.00    -0.261 N 
ATOM      2  N   UNL     1      34.842 -13.705 -21.539  0.00  0.00    -0.392 NA
ATOM      3  C   UNL     1      33.853 -11.708 -24.540  0.00  0.00    -0.017 C 
ATOM      4  C   UNL     1      34.422 -14.269 -23.707  0.00  0.00    +0.079 C 
ATOM      5  C   UNL     1      34.484 -13.231 -22.780  0.00  0.00    +0.128 C 
ATOM      6  C   UNL     1      34.996 -15.000 -21.699  0.00  0.00    +0.183 C 
ATOM      7  C   UNL     1      34.195 -11.922 -23.198  0.00  0.00    +0.084 C 
ATOM      8  C   UNL     1      33.798 -12.770 -25.446  0.00  0.00    -0.005 C 
ATOM      9  C   UNL     1      34.083 -14.080 -25.047  0.00  0.00    +0.017 C 
ATOM     10  C   UNL     1      34.831 -16.737 -23.503  0.00  0.00    +0.120 C 
ENDROOT
BRANCH   3  11
ATOM     11  C   UNL     1      33.540 -10.324 -25.006  0.00  0.00    +0.120 C 
BRANCH  11  12
ATOM     12  N   UNL     1      34.095  -9.309 -24.106  0.00  0.00    -0.260 N 
ATOM     13  N   UNL     1      35.548  -7.902 -23.231  0.00  0.00    -0.394 NA
ATOM     14  C   UNL     1      33.432  -8.735 -23.068  0.00  0.00    +0.079 C 
ATOM     15  C   UNL     1      35.347  -8.794 -24.175  0.00  0.00    +0.164 C 
ATOM     16  C   UNL     1      34.365  -7.852 -22.530  0.00  0.00    +0.128 C 
ATOM     17  C   UNL     1      32.144  -8.893 -22.557  0.00  0.00    +0.017 C 
ATOM     18  C   UNL     1      36.328  -9.209 -25.199  0.00  0.00    +0.084 C 
ATOM     19  C   UNL     1      34.008  -7.073 -21.416  0.00  0.00    +0.086 C 
ATOM     20  C   UNL     1      31.806  -8.110 -21.448  0.00  0.00    -0.003 C 
ATOM     21  C   UNL     1      32.720  -7.215 -20.886  0.00  0.00    -0.019 C 
ENDBRANCH  11  12
ENDBRANCH   3  11
BRANCH   6  22
ATOM     22  C   UNL     1      35.382 -15.963 -20.648  0.00  0.00    +0.164 C 
BRANCH  22  23
ATOM     23  N   UNL     1      35.756 -17.289 -21.128  0.00  0.00    -0.326 N 
ATOM     24  H   UNL     1      36.283 -17.354 -21.958  0.00  0.00    +0.147 HD
BRANCH  23  25
ATOM     25  C   UNL     1      35.407 -18.453 -20.479  0.00  0.00    +0.045 C 
ATOM     26  C   UNL     1      36.382 -19.266 -19.863  0.00  0.00    +0.014 C 
ATOM     27  C   UNL     1      34.062 -18.875 -20.410  0.00  0.00    +0.014 C 
ATOM     28  C   UNL     1      36.029 -20.445 -19.208  0.00  0.00    +0.004 C 
ATOM     29  C   UNL     1      33.709 -20.054 -19.755  0.00  0.00    +0.004 C 
ATOM     30  C   UNL     1      34.692 -20.840 -19.155  0.00  0.00    +0.031 C 
BRANCH  30  33
ATOM     31  N   UNL     1      34.098 -22.098 -17.098  0.00  0.00    -0.343 N 
ATOM     32  N   UNL     1      34.201 -23.192 -19.161  0.00  0.00    -0.285 NA
ATOM     33  C   UNL     1      34.324 -22.070 -18.473  0.00  0.00    +0.117 C 
ATOM     34  H   UNL     1      33.849 -22.943 -16.657  0.00  0.00    +0.144 HD
ATOM     35  H   UNL     1      34.187 -21.273 -16.568  0.00  0.00    +0.144 HD
ATOM     36  H   UNL     1      33.951 -24.027 -18.701  0.00  0.00    +0.188 HD
ENDBRANCH  30  33
ENDBRANCH  23  25
ENDBRANCH  22  23
ENDBRANCH   6  22
TORSDOF 6
ENDMDL
MODEL 9
REMARK VINA RESULT:     -11.1      4.557      7.946
REMARK  Name = 445756
REMARK  6 active torsions:
REMARK  status: ('A' for Active; 'I' for Inactive)
REMARK    1  A    between atoms: C_3  and  C_11
REMARK    2  A    between atoms: C_6  and  C_22
REMARK    3  A    between atoms: C_11  and  N_12
REMARK    4  A    between atoms: C_22  and  N_23
REMARK    5  A    between atoms: N_23  and  C_25
REMARK    6  A    between atoms: C_30  and  C_33
REMARK                            x       y       z     vdW  Elec       q    Type
REMARK                         _______ _______ _______ _____ _____    ______ ____
ROOT
ATOM      1  N   UNL     1      34.026 -20.992 -18.468  0.00  0.00    -0.261 N 
ATOM      2  N   UNL     1      36.244 -20.852 -18.486  0.00  0.00    -0.392 NA
ATOM      3  C   UNL     1      35.591 -18.553 -21.360  0.00  0.00    -0.017 C 
ATOM      4  C   UNL     1      34.330 -20.139 -19.497  0.00  0.00    +0.079 C 
ATOM      5  C   UNL     1      35.721 -20.067 -19.487  0.00  0.00    +0.128 C 
ATOM      6  C   UNL     1      35.201 -21.392 -17.895  0.00  0.00    +0.183 C 
ATOM      7  C   UNL     1      36.371 -19.260 -20.435  0.00  0.00    +0.084 C 
ATOM      8  C   UNL     1      34.198 -18.645 -21.343  0.00  0.00    -0.005 C 
ATOM      9  C   UNL     1      33.533 -19.443 -20.407  0.00  0.00    +0.017 C 
ATOM     10  C   UNL     1      32.698 -21.395 -18.063  0.00  0.00    +0.120 C 
ENDROOT
BRANCH   3  11
ATOM     11  C   UNL     1      36.262 -17.688 -22.376  0.00  0.00    +0.120 C 
BRANCH  11  12
ATOM     12  N   UNL     1      35.298 -17.098 -23.310  0.00  0.00    -0.260 N 
ATOM     13  N   UNL     1      33.860 -16.957 -24.973  0.00  0.00    -0.394 NA
ATOM     14  C   UNL     1      34.899 -15.798 -23.308  0.00  0.00    +0.079 C 
ATOM     15  C   UNL     1      34.664 -17.757 -24.309  0.00  0.00    +0.164 C 
ATOM     16  C   UNL     1      33.993 -15.731 -24.364  0.00  0.00    +0.128 C 
ATOM     17  C   UNL     1      35.229 -14.702 -22.511  0.00  0.00    +0.017 C 
ATOM     18  C   UNL     1      34.876 -19.193 -24.582  0.00  0.00    +0.084 C 
ATOM     19  C   UNL     1      33.371 -14.505 -24.654  0.00  0.00    +0.086 C 
ATOM     20  C   UNL     1      34.601 -13.490 -22.815  0.00  0.00    -0.003 C 
ATOM     21  C   UNL     1      33.688 -13.391 -23.867  0.00  0.00    -0.019 C 
ENDBRANCH  11  12
ENDBRANCH   3  11
BRANCH   6  22
ATOM     22  C   UNL     1      35.240 -22.322 -16.749  0.00  0.00    +0.164 C 
BRANCH  22  23
ATOM     23  N   UNL     1      36.364 -22.137 -15.837  0.00  0.00    -0.326 N 
ATOM     24  H   UNL     1      37.191 -21.735 -16.190  0.00  0.00    +0.147 HD
BRANCH  23  25
ATOM     25  C   UNL     1      36.325 -22.497 -14.508  0.00  0.00    +0.045 C 
ATOM     26  C   UNL     1      35.117 -22.889 -13.892  0.00  0.00    +0.014 C 
ATOM     27  C   UNL     1      37.492 -22.484 -13.714  0.00  0.00    +0.014 C 
ATOM     28  C   UNL     1      35.078 -23.251 -12.546  0.00  0.00    +0.004 C 
ATOM     29  C   UNL     1      37.453 -22.846 -12.368  0.00  0.00    +0.004 C 
ATOM     30  C   UNL     1      36.246 -23.229 -11.784  0.00  0.00    +0.031 C 
BRANCH  30  33
ATOM     31  N   UNL     1      36.903 -22.883  -9.415  0.00  0.00    -0.343 N 
ATOM     32  N   UNL     1      35.497 -24.655 -10.000  0.00  0.00    -0.285 NA
ATOM     33  C   UNL     1      36.205 -23.606 -10.380  0.00  0.00    +0.117 C 
ATOM     34  H   UNL     1      36.861 -23.156  -8.469  0.00  0.00    +0.144 HD
ATOM     35  H   UNL     1      37.439 -22.100  -9.678  0.00  0.00    +0.144 HD
ATOM     36  H   UNL     1      35.468 -24.912  -9.050  0.00  0.00    +0.188 HD
ENDBRANCH  30  33
ENDBRANCH  23  25
ENDBRANCH  22  23
ENDBRANCH   6  22
TORSDOF 6
ENDMDL
