MODEL 1
REMARK VINA RESULT:     -12.6      0.000      0.000
REMARK  Name = 58212050
REMARK  2 active torsions:
REMARK  status: ('A' for Active; 'I' for Inactive)
REMARK    1  A    between atoms: C_2  and  C_13
REMARK    2  A    between atoms: C_10  and  C_26
REMARK                            x       y       z     vdW  Elec       q    Type
REMARK                         _______ _______ _______ _____ _____    ______ ____
ROOT
ATOM      1  N   UNL     1      37.120 -22.408 -16.099  0.00  0.00    +0.389 N 
ATOM      2  C   UNL     1      34.681 -22.647 -16.453  0.00  0.00    +0.023 C 
ATOM      3  C   UNL     1      35.828 -22.554 -15.418  0.00  0.00    -0.068 C 
ATOM      4  C   UNL     1      34.804 -21.613 -17.566  0.00  0.00    -0.026 C 
ATOM      5  C   UNL     1      36.009 -20.905 -17.738  0.00  0.00    -0.047 C 
ATOM      6  C   UNL     1      37.169 -21.110 -16.791  0.00  0.00    -0.050 C 
ATOM      7  C   UNL     1      33.761 -21.412 -18.486  0.00  0.00    -0.004 C 
ATOM      8  C   UNL     1      36.122 -19.964 -18.772  0.00  0.00    -0.005 C 
ATOM      9  C   UNL     1      38.223 -22.517 -15.145  0.00  0.00    -0.100 C 
ATOM     10  C   UNL     1      35.067 -19.755 -19.658  0.00  0.00    +0.019 C 
ATOM     11  C   UNL     1      33.890 -20.484 -19.519  0.00  0.00    +0.001 C 
ATOM     12  H   UNL     1      37.218 -23.157 -16.784  0.00  0.00    -0.079 HD
ENDROOT
BRANCH   2  13
ATOM     13  C   UNL     1      33.343 -22.625 -15.722  0.00  0.00    -0.020 C 
ATOM     14  C   UNL     1      32.158 -22.481 -16.443  0.00  0.00    -0.004 C 
ATOM     15  C   UNL     1      33.306 -22.749 -14.337  0.00  0.00    -0.004 C 
ATOM     16  C   UNL     1      30.918 -22.458 -15.786  0.00  0.00    -0.000 C 
ATOM     17  C   UNL     1      30.879 -22.583 -14.377  0.00  0.00    -0.000 C 
ATOM     18  C   UNL     1      32.082 -22.728 -13.667  0.00  0.00    -0.000 C 
ATOM     19  C   UNL     1      29.715 -22.313 -16.496  0.00  0.00    -0.000 C 
ATOM     20  C   UNL     1      29.639 -22.560 -13.719  0.00  0.00    -0.000 C 
ATOM     21  C   UNL     1      28.491 -22.292 -15.826  0.00  0.00    -0.000 C 
ATOM     22  C   UNL     1      28.453 -22.415 -14.440  0.00  0.00    -0.000 C 
ENDBRANCH   2  13
BRANCH  10  26
ATOM     23  N   UNL     1      35.669 -17.577 -20.356  0.00  0.00    -0.147 NA
ATOM     24  N   UNL     1      35.822 -16.609 -21.299  0.00  0.00    -0.133 NA
ATOM     25  N   UNL     1      35.659 -15.877 -23.562  0.00  0.00    -0.341 N 
ATOM     26  C   UNL     1      35.198 -18.787 -20.725  0.00  0.00    +0.103 C 
ATOM     27  C   UNL     1      34.860 -19.096 -22.028  0.00  0.00    +0.024 C 
ATOM     28  C   UNL     1      35.017 -18.111 -22.987  0.00  0.00    +0.037 C 
ATOM     29  C   UNL     1      35.500 -16.884 -22.581  0.00  0.00    +0.147 C 
ATOM     30  H   UNL     1      36.001 -14.990 -23.306  0.00  0.00    +0.144 HD
ATOM     31  H   UNL     1      35.427 -16.064 -24.500  0.00  0.00    +0.144 HD
ENDBRANCH  10  26
TORSDOF 2
ENDMDL
MODEL 2
REMARK VINA RESULT:     -11.8      2.258      5.728
REMARK  Name = 58212050
REMARK  2 active torsions:
REMARK  status: ('A' for Active; 'I' for Inactive)
REMARK    1  A    between atoms: C_2  and  C_13
REMARK    2  A    between atoms: C_10  and  C_26
REMARK                            x       y       z     vdW  Elec       q    Type
REMARK                         _______ _______ _______ _____ _____    ______ ____
ROOT
ATOM      1  N   UNL     1      32.474 -22.807 -15.440  0.00  0.00    +0.389 N 
ATOM      2  C   UNL     1      34.923 -22.861 -15.077  0.00  0.00    +0.023 C 
ATOM      3  C   UNL     1      33.595 -23.654 -15.017  0.00  0.00    -0.068 C 
ATOM      4  C   UNL     1      35.068 -22.048 -16.358  0.00  0.00    -0.026 C 
ATOM      5  C   UNL     1      33.952 -21.845 -17.192  0.00  0.00    -0.047 C 
ATOM      6  C   UNL     1      32.618 -22.475 -16.867  0.00  0.00    -0.050 C 
ATOM      7  C   UNL     1      36.282 -21.420 -16.683  0.00  0.00    -0.004 C 
ATOM      8  C   UNL     1      34.087 -21.084 -18.363  0.00  0.00    -0.005 C 
ATOM      9  C   UNL     1      31.197 -23.480 -15.201  0.00  0.00    -0.100 C 
ATOM     10  C   UNL     1      35.307 -20.493 -18.686  0.00  0.00    +0.019 C 
ATOM     11  C   UNL     1      36.402 -20.655 -17.843  0.00  0.00    +0.001 C 
ATOM     12  H   UNL     1      32.486 -21.946 -14.893  0.00  0.00    -0.079 HD
ENDROOT
BRANCH   2  13
ATOM     13  C   UNL     1      36.085 -23.807 -14.799  0.00  0.00    -0.020 C 
ATOM     14  C   UNL     1      37.371 -23.297 -14.622  0.00  0.00    -0.004 C 
ATOM     15  C   UNL     1      35.863 -25.178 -14.723  0.00  0.00    -0.004 C 
ATOM     16  C   UNL     1      38.453 -24.154 -14.366  0.00  0.00    -0.000 C 
ATOM     17  C   UNL     1      38.227 -25.549 -14.289  0.00  0.00    -0.000 C 
ATOM     18  C   UNL     1      36.926 -26.045 -14.470  0.00  0.00    -0.000 C 
ATOM     19  C   UNL     1      39.755 -23.658 -14.186  0.00  0.00    -0.000 C 
ATOM     20  C   UNL     1      39.310 -26.407 -14.034  0.00  0.00    -0.000 C 
ATOM     21  C   UNL     1      40.818 -24.525 -13.933  0.00  0.00    -0.000 C 
ATOM     22  C   UNL     1      40.596 -25.897 -13.857  0.00  0.00    -0.000 C 
ENDBRANCH   2  13
BRANCH  10  26
ATOM     23  N   UNL     1      34.330 -19.656 -20.671  0.00  0.00    -0.147 NA
ATOM     24  N   UNL     1      34.364 -18.936 -21.824  0.00  0.00    -0.133 NA
ATOM     25  N   UNL     1      35.536 -17.541 -23.362  0.00  0.00    -0.341 N 
ATOM     26  C   UNL     1      35.433 -19.705 -19.893  0.00  0.00    +0.103 C 
ATOM     27  C   UNL     1      36.608 -19.054 -20.214  0.00  0.00    +0.024 C 
ATOM     28  C   UNL     1      36.642 -18.322 -21.387  0.00  0.00    +0.037 C 
ATOM     29  C   UNL     1      35.500 -18.289 -22.162  0.00  0.00    +0.147 C 
ATOM     30  H   UNL     1      34.739 -17.496 -23.938  0.00  0.00    +0.144 HD
ATOM     31  H   UNL     1      36.358 -17.065 -23.621  0.00  0.00    +0.144 HD
ENDBRANCH  10  26
TORSDOF 2
ENDMDL
MODEL 3
REMARK VINA RESULT:     -11.7      6.713     12.710
REMARK  Name = 58212050
REMARK  2 active torsions:
REMARK  status: ('A' for Active; 'I' for Inactive)
REMARK    1  A    between atoms: C_2  and  C_13
REMARK    2  A    between atoms: C_10  and  C_26
REMARK                            x       y       z     vdW  Elec       q    Type
REMARK                         _______ _______ _______ _____ _____    ______ ____
ROOT
ATOM      1  N   UNL     1      31.290 -10.994 -19.710  0.00  0.00    +0.389 N 
ATOM      2  C   UNL     1      32.348 -10.544 -21.902  0.00  0.00    +0.023 C 
ATOM      3  C   UNL     1      31.887  -9.949 -20.549  0.00  0.00    -0.068 C 
ATOM      4  C   UNL     1      33.090 -11.865 -21.746  0.00  0.00    -0.026 C 
ATOM      5  C   UNL     1      33.047 -12.555 -20.519  0.00  0.00    -0.047 C 
ATOM      6  C   UNL     1      32.322 -11.972 -19.328  0.00  0.00    -0.050 C 
ATOM      7  C   UNL     1      33.752 -12.457 -22.835  0.00  0.00    -0.004 C 
ATOM      8  C   UNL     1      33.721 -13.778 -20.384  0.00  0.00    -0.005 C 
ATOM      9  C   UNL     1      30.676 -10.412 -18.516  0.00  0.00    -0.100 C 
ATOM     10  C   UNL     1      34.398 -14.337 -21.466  0.00  0.00    +0.019 C 
ATOM     11  C   UNL     1      34.408 -13.680 -22.693  0.00  0.00    +0.001 C 
ATOM     12  H   UNL     1      30.560 -11.468 -20.242  0.00  0.00    -0.079 HD
ENDROOT
BRANCH   2  13
ATOM     13  C   UNL     1      33.115  -9.482 -22.682  0.00  0.00    -0.020 C 
ATOM     14  C   UNL     1      33.976  -9.859 -23.712  0.00  0.00    -0.004 C 
ATOM     15  C   UNL     1      32.956  -8.136 -22.364  0.00  0.00    -0.004 C 
ATOM     16  C   UNL     1      34.690  -8.894 -24.439  0.00  0.00    -0.000 C 
ATOM     17  C   UNL     1      34.529  -7.525 -24.115  0.00  0.00    -0.000 C 
ATOM     18  C   UNL     1      33.658  -7.163 -23.076  0.00  0.00    -0.000 C 
ATOM     19  C   UNL     1      35.562  -9.256 -25.479  0.00  0.00    -0.000 C 
ATOM     20  C   UNL     1      35.245  -6.559 -24.842  0.00  0.00    -0.000 C 
ATOM     21  C   UNL     1      36.264  -8.283 -26.191  0.00  0.00    -0.000 C 
ATOM     22  C   UNL     1      36.106  -6.937 -25.873  0.00  0.00    -0.000 C 
ENDBRANCH   2  13
BRANCH  10  26
ATOM     23  N   UNL     1      35.231 -16.034 -20.046  0.00  0.00    -0.147 NA
ATOM     24  N   UNL     1      35.865 -17.216 -19.817  0.00  0.00    -0.133 NA
ATOM     25  N   UNL     1      36.991 -19.155 -20.630  0.00  0.00    -0.341 N 
ATOM     26  C   UNL     1      35.084 -15.602 -21.316  0.00  0.00    +0.103 C 
ATOM     27  C   UNL     1      35.550 -16.306 -22.408  0.00  0.00    +0.024 C 
ATOM     28  C   UNL     1      36.195 -17.508 -22.175  0.00  0.00    +0.037 C 
ATOM     29  C   UNL     1      36.331 -17.926 -20.867  0.00  0.00    +0.147 C 
ATOM     30  H   UNL     1      37.105 -19.482 -19.708  0.00  0.00    +0.144 HD
ATOM     31  H   UNL     1      37.336 -19.682 -21.386  0.00  0.00    +0.144 HD
ENDBRANCH  10  26
TORSDOF 2
ENDMDL
MODEL 4
REMARK VINA RESULT:     -11.4      7.324     11.998
REMARK  Name = 58212050
REMARK  2 active torsions:
REMARK  status: ('A' for Active; 'I' for Inactive)
REMARK    1  A    between atoms: C_2  and  C_13
REMARK    2  A    between atoms: C_10  and  C_26
REMARK                            x       y       z     vdW  Elec       q    Type
REMARK                         _______ _______ _______ _____ _____    ______ ____
ROOT
ATOM      1  N   UNL     1      33.761 -11.192 -25.414  0.00  0.00    +0.389 N 
ATOM      2  C   UNL     1      33.410 -12.516 -23.351  0.00  0.00    +0.023 C 
ATOM      3  C   UNL     1      34.207 -12.377 -24.671  0.00  0.00    -0.068 C 
ATOM      4  C   UNL     1      33.272 -11.196 -22.602  0.00  0.00    -0.026 C 
ATOM      5  C   UNL     1      33.583  -9.985 -23.248  0.00  0.00    -0.047 C 
ATOM      6  C   UNL     1      34.115  -9.976 -24.663  0.00  0.00    -0.050 C 
ATOM      7  C   UNL     1      32.754 -11.156 -21.296  0.00  0.00    -0.004 C 
ATOM      8  C   UNL     1      33.441  -8.771 -22.559  0.00  0.00    -0.005 C 
ATOM      9  C   UNL     1      34.364 -11.159 -26.746  0.00  0.00    -0.100 C 
ATOM     10  C   UNL     1      32.955  -8.751 -21.253  0.00  0.00    +0.019 C 
ATOM     11  C   UNL     1      32.604  -9.942 -20.625  0.00  0.00    +0.001 C 
ATOM     12  H   UNL     1      32.748 -11.234 -25.526  0.00  0.00    -0.079 HD
ENDROOT
BRANCH   2  13
ATOM     13  C   UNL     1      34.006 -13.648 -22.523  0.00  0.00    -0.020 C 
ATOM     14  C   UNL     1      34.441 -14.816 -23.149  0.00  0.00    -0.004 C 
ATOM     15  C   UNL     1      34.114 -13.516 -21.142  0.00  0.00    -0.004 C 
ATOM     16  C   UNL     1      34.991 -15.869 -22.400  0.00  0.00    -0.000 C 
ATOM     17  C   UNL     1      35.100 -15.735 -20.996  0.00  0.00    -0.000 C 
ATOM     18  C   UNL     1      34.658 -14.553 -20.382  0.00  0.00    -0.000 C 
ATOM     19  C   UNL     1      35.433 -17.052 -23.015  0.00  0.00    -0.000 C 
ATOM     20  C   UNL     1      35.650 -16.788 -20.247  0.00  0.00    -0.000 C 
ATOM     21  C   UNL     1      35.977 -18.088 -22.255  0.00  0.00    -0.000 C 
ATOM     22  C   UNL     1      36.085 -17.957 -20.874  0.00  0.00    -0.000 C 
ENDBRANCH   2  13
BRANCH  10  26
ATOM     23  N   UNL     1      33.075  -7.529 -19.232  0.00  0.00    -0.147 NA
ATOM     24  N   UNL     1      32.960  -6.389 -18.500  0.00  0.00    -0.133 NA
ATOM     25  N   UNL     1      32.460  -4.061 -18.356  0.00  0.00    -0.341 N 
ATOM     26  C   UNL     1      32.806  -7.493 -20.555  0.00  0.00    +0.103 C 
ATOM     27  C   UNL     1      32.416  -6.342 -21.210  0.00  0.00    +0.024 C 
ATOM     28  C   UNL     1      32.299  -5.182 -20.466  0.00  0.00    +0.037 C 
ATOM     29  C   UNL     1      32.580  -5.248 -19.116  0.00  0.00    +0.147 C 
ATOM     30  H   UNL     1      32.653  -4.074 -17.390  0.00  0.00    +0.144 HD
ATOM     31  H   UNL     1      32.182  -3.224 -18.792  0.00  0.00    +0.144 HD
ENDBRANCH  10  26
TORSDOF 2
ENDMDL
MODEL 5
REMARK VINA RESULT:     -11.3      7.308     13.081
REMARK  Name = 58212050
REMARK  2 active torsions:
REMARK  status: ('A' for Active; 'I' for Inactive)
REMARK    1  A    between atoms: C_2  and  C_13
REMARK    2  A    between atoms: C_10  and  C_26
REMARK                            x       y       z     vdW  Elec       q    Type
REMARK                         _______ _______ _______ _____ _____    ______ ____
ROOT
ATOM      1  N   UNL     1      31.266 -10.671 -19.826  0.00  0.00    +0.389 N 
ATOM      2  C   UNL     1      32.310 -10.269 -22.035  0.00  0.00    +0.023 C 
ATOM      3  C   UNL     1      31.867  -9.647 -20.688  0.00  0.00    -0.068 C 
ATOM      4  C   UNL     1      33.040 -11.595 -21.862  0.00  0.00    -0.026 C 
ATOM      5  C   UNL     1      33.000 -12.263 -20.624  0.00  0.00    -0.047 C 
ATOM      6  C   UNL     1      32.292 -11.652 -19.437  0.00  0.00    -0.050 C 
ATOM      7  C   UNL     1      33.687 -12.212 -22.946  0.00  0.00    -0.004 C 
ATOM      8  C   UNL     1      33.663 -13.491 -20.473  0.00  0.00    -0.005 C 
ATOM      9  C   UNL     1      30.669 -10.062 -18.638  0.00  0.00    -0.100 C 
ATOM     10  C   UNL     1      34.325 -14.075 -21.551  0.00  0.00    +0.019 C 
ATOM     11  C   UNL     1      34.331 -13.439 -22.789  0.00  0.00    +0.001 C 
ATOM     12  H   UNL     1      30.527 -11.146 -20.344  0.00  0.00    -0.079 HD
ENDROOT
BRANCH   2  13
ATOM     13  C   UNL     1      33.081  -9.228 -22.839  0.00  0.00    -0.020 C 
ATOM     14  C   UNL     1      32.464  -8.031 -23.202  0.00  0.00    -0.004 C 
ATOM     15  C   UNL     1      34.399  -9.474 -23.210  0.00  0.00    -0.004 C 
ATOM     16  C   UNL     1      33.160  -7.063 -23.943  0.00  0.00    -0.000 C 
ATOM     17  C   UNL     1      34.501  -7.312 -24.321  0.00  0.00    -0.000 C 
ATOM     18  C   UNL     1      35.106  -8.522 -23.947  0.00  0.00    -0.000 C 
ATOM     19  C   UNL     1      32.554  -5.852 -24.318  0.00  0.00    -0.000 C 
ATOM     20  C   UNL     1      35.197  -6.344 -25.063  0.00  0.00    -0.000 C 
ATOM     21  C   UNL     1      33.261  -4.901 -25.055  0.00  0.00    -0.000 C 
ATOM     22  C   UNL     1      34.579  -5.146 -25.427  0.00  0.00    -0.000 C 
ENDBRANCH   2  13
BRANCH  10  26
ATOM     23  N   UNL     1      35.139 -15.764 -20.110  0.00  0.00    -0.147 NA
ATOM     24  N   UNL     1      35.761 -16.949 -19.867  0.00  0.00    -0.133 NA
ATOM     25  N   UNL     1      36.872 -18.906 -20.654  0.00  0.00    -0.341 N 
ATOM     26  C   UNL     1      34.999 -15.344 -21.386  0.00  0.00    +0.103 C 
ATOM     27  C   UNL     1      35.462 -16.065 -22.468  0.00  0.00    +0.024 C 
ATOM     28  C   UNL     1      36.096 -17.270 -22.221  0.00  0.00    +0.037 C 
ATOM     29  C   UNL     1      36.224 -17.674 -20.907  0.00  0.00    +0.147 C 
ATOM     30  H   UNL     1      36.980 -19.224 -19.729  0.00  0.00    +0.144 HD
ATOM     31  H   UNL     1      37.215 -19.445 -21.404  0.00  0.00    +0.144 HD
ENDBRANCH  10  26
TORSDOF 2
ENDMDL
MODEL 6
REMARK VINA RESULT:     -11.2      1.377      2.015
REMARK  Name = 58212050
REMARK  2 active torsions:
REMARK  status: ('A' for Active; 'I' for Inactive)
REMARK    1  A    between atoms: C_2  and  C_13
REMARK    2  A    between atoms: C_10  and  C_26
REMARK                            x       y       z     vdW  Elec       q    Type
REMARK                         _______ _______ _______ _____ _____    ______ ____
ROOT
ATOM      1  N   UNL     1      35.329 -23.704 -14.757  0.00  0.00    +0.389 N 
ATOM      2  C   UNL     1      33.069 -23.258 -15.664  0.00  0.00    +0.023 C 
ATOM      3  C   UNL     1      33.929 -23.454 -14.393  0.00  0.00    -0.068 C 
ATOM      4  C   UNL     1      33.728 -22.343 -16.689  0.00  0.00    -0.026 C 
ATOM      5  C   UNL     1      35.090 -22.010 -16.561  0.00  0.00    -0.047 C 
ATOM      6  C   UNL     1      35.899 -22.498 -15.381  0.00  0.00    -0.050 C 
ATOM      7  C   UNL     1      33.022 -21.890 -17.816  0.00  0.00    -0.004 C 
ATOM      8  C   UNL     1      35.697 -21.178 -17.514  0.00  0.00    -0.005 C 
ATOM      9  C   UNL     1      36.110 -24.084 -13.581  0.00  0.00    -0.100 C 
ATOM     10  C   UNL     1      34.973 -20.713 -18.611  0.00  0.00    +0.019 C 
ATOM     11  C   UNL     1      33.638 -21.075 -18.765  0.00  0.00    +0.001 C 
ATOM     12  H   UNL     1      35.364 -24.475 -15.424  0.00  0.00    -0.079 HD
ENDROOT
BRANCH   2  13
ATOM     13  C   UNL     1      31.662 -22.833 -15.258  0.00  0.00    -0.020 C 
ATOM     14  C   UNL     1      30.643 -22.795 -16.209  0.00  0.00    -0.004 C 
ATOM     15  C   UNL     1      31.397 -22.483 -13.938  0.00  0.00    -0.004 C 
ATOM     16  C   UNL     1      29.343 -22.405 -15.851  0.00  0.00    -0.000 C 
ATOM     17  C   UNL     1      29.073 -22.049 -14.509  0.00  0.00    -0.000 C 
ATOM     18  C   UNL     1      30.110 -22.093 -13.564  0.00  0.00    -0.000 C 
ATOM     19  C   UNL     1      28.305 -22.361 -16.797  0.00  0.00    -0.000 C 
ATOM     20  C   UNL     1      27.772 -21.658 -14.150  0.00  0.00    -0.000 C 
ATOM     21  C   UNL     1      27.018 -21.971 -16.423  0.00  0.00    -0.000 C 
ATOM     22  C   UNL     1      26.752 -21.620 -15.103  0.00  0.00    -0.000 C 
ENDBRANCH   2  13
BRANCH  10  26
ATOM     23  N   UNL     1      36.917 -19.602 -19.370  0.00  0.00    -0.147 NA
ATOM     24  N   UNL     1      37.592 -18.809 -20.245  0.00  0.00    -0.133 NA
ATOM     25  N   UNL     1      37.640 -17.477 -22.223  0.00  0.00    -0.341 N 
ATOM     26  C   UNL     1      35.611 -19.862 -19.591  0.00  0.00    +0.103 C 
ATOM     27  C   UNL     1      34.917 -19.357 -20.672  0.00  0.00    +0.024 C 
ATOM     28  C   UNL     1      35.604 -18.550 -21.563  0.00  0.00    +0.037 C 
ATOM     29  C   UNL     1      36.938 -18.302 -21.312  0.00  0.00    +0.147 C 
ATOM     30  H   UNL     1      38.593 -17.280 -22.074  0.00  0.00    +0.144 HD
ATOM     31  H   UNL     1      37.175 -17.100 -23.004  0.00  0.00    +0.144 HD
ENDBRANCH  10  26
TORSDOF 2
ENDMDL
MODEL 7
REMARK VINA RESULT:     -10.3      5.908     12.129
REMARK  Name = 58212050
REMARK  2 active torsions:
REMARK  status: ('A' for Active; 'I' for Inactive)
REMARK    1  A    between atoms: C_2  and  C_13
REMARK    2  A    between atoms: C_10  and  C_26
REMARK                            x       y       z     vdW  Elec       q    Type
REMARK                         _______ _______ _______ _____ _____    ______ ____
ROOT
ATOM      1  N   UNL     1      31.847 -12.076 -20.313  0.00  0.00    +0.389 N 
ATOM      2  C   UNL     1      32.918 -12.058 -22.545  0.00  0.00    +0.023 C 
ATOM      3  C   UNL     1      32.456 -11.214 -21.333  0.00  0.00    -0.068 C 
ATOM      4  C   UNL     1      33.650 -13.330 -22.136  0.00  0.00    -0.026 C 
ATOM      5  C   UNL     1      33.596 -13.774 -20.801  0.00  0.00    -0.047 C 
ATOM      6  C   UNL     1      32.870 -12.970 -19.747  0.00  0.00    -0.050 C 
ATOM      7  C   UNL     1      34.312 -14.123 -23.089  0.00  0.00    -0.004 C 
ATOM      8  C   UNL     1      34.260 -14.953 -20.431  0.00  0.00    -0.005 C 
ATOM      9  C   UNL     1      31.233 -11.273 -19.256  0.00  0.00    -0.100 C 
ATOM     10  C   UNL     1      34.938 -15.712 -21.383  0.00  0.00    +0.019 C 
ATOM     11  C   UNL     1      34.957 -15.301 -22.712  0.00  0.00    +0.001 C 
ATOM     12  H   UNL     1      31.116 -12.638 -20.749  0.00  0.00    -0.079 HD
ENDROOT
BRANCH   2  13
ATOM     13  C   UNL     1      33.696 -11.169 -23.508  0.00  0.00    -0.020 C 
ATOM     14  C   UNL     1      33.994  -9.853 -23.155  0.00  0.00    -0.004 C 
ATOM     15  C   UNL     1      34.108 -11.671 -24.738  0.00  0.00    -0.004 C 
ATOM     16  C   UNL     1      34.709  -9.020 -24.031  0.00  0.00    -0.000 C 
ATOM     17  C   UNL     1      35.128  -9.530 -25.282  0.00  0.00    -0.000 C 
ATOM     18  C   UNL     1      34.820 -10.857 -25.621  0.00  0.00    -0.000 C 
ATOM     19  C   UNL     1      35.017  -7.692 -23.691  0.00  0.00    -0.000 C 
ATOM     20  C   UNL     1      35.843  -8.697 -26.159  0.00  0.00    -0.000 C 
ATOM     21  C   UNL     1      35.728  -6.879 -24.574  0.00  0.00    -0.000 C 
ATOM     22  C   UNL     1      36.140  -7.380 -25.806  0.00  0.00    -0.000 C 
ENDBRANCH   2  13
BRANCH  10  26
ATOM     23  N   UNL     1      34.933 -17.719 -20.133  0.00  0.00    -0.147 NA
ATOM     24  N   UNL     1      35.498 -18.884 -19.714  0.00  0.00    -0.133 NA
ATOM     25  N   UNL     1      37.311 -20.433 -19.734  0.00  0.00    -0.341 N 
ATOM     26  C   UNL     1      35.613 -16.930 -20.992  0.00  0.00    +0.103 C 
ATOM     27  C   UNL     1      36.867 -17.249 -21.473  0.00  0.00    +0.024 C 
ATOM     28  C   UNL     1      37.441 -18.434 -21.047  0.00  0.00    +0.037 C 
ATOM     29  C   UNL     1      36.723 -19.221 -20.169  0.00  0.00    +0.147 C 
ATOM     30  H   UNL     1      36.826 -21.017 -19.108  0.00  0.00    +0.144 HD
ATOM     31  H   UNL     1      38.204 -20.690 -20.057  0.00  0.00    +0.144 HD
ENDBRANCH  10  26
TORSDOF 2
ENDMDL
MODEL 8
REMARK VINA RESULT:     -10.3      8.029     12.979
REMARK  Name = 58212050
REMARK  2 active torsions:
REMARK  status: ('A' for Active; 'I' for Inactive)
REMARK    1  A    between atoms: C_2  and  C_13
REMARK    2  A    between atoms: C_10  and  C_26
REMARK                            x       y       z     vdW  Elec       q    Type
REMARK                         _______ _______ _______ _____ _____    ______ ____
ROOT
ATOM      1  N   UNL     1      35.106  -9.455 -25.812  0.00  0.00    +0.389 N 
ATOM      2  C   UNL     1      34.033 -11.118 -24.326  0.00  0.00    +0.023 C 
ATOM      3  C   UNL     1      35.200 -10.827 -25.300  0.00  0.00    -0.068 C 
ATOM      4  C   UNL     1      33.794  -9.987 -23.334  0.00  0.00    -0.026 C 
ATOM      5  C   UNL     1      34.393  -8.729 -23.544  0.00  0.00    -0.047 C 
ATOM      6  C   UNL     1      35.325  -8.501 -24.712  0.00  0.00    -0.050 C 
ATOM      7  C   UNL     1      32.913 -10.146 -22.251  0.00  0.00    -0.004 C 
ATOM      8  C   UNL     1      34.159  -7.686 -22.636  0.00  0.00    -0.005 C 
ATOM      9  C   UNL     1      36.083  -9.232 -26.878  0.00  0.00    -0.100 C 
ATOM     10  C   UNL     1      33.305  -7.870 -21.550  0.00  0.00    +0.019 C 
ATOM     11  C   UNL     1      32.677  -9.098 -21.362  0.00  0.00    +0.001 C 
ATOM     12  H   UNL     1      34.174  -9.310 -26.201  0.00  0.00    -0.079 HD
ENDROOT
BRANCH   2  13
ATOM     13  C   UNL     1      34.248 -12.483 -23.680  0.00  0.00    -0.020 C 
ATOM     14  C   UNL     1      34.458 -12.577 -22.305  0.00  0.00    -0.004 C 
ATOM     15  C   UNL     1      34.234 -13.632 -24.464  0.00  0.00    -0.004 C 
ATOM     16  C   UNL     1      34.658 -13.826 -21.695  0.00  0.00    -0.000 C 
ATOM     17  C   UNL     1      34.645 -14.995 -22.492  0.00  0.00    -0.000 C 
ATOM     18  C   UNL     1      34.432 -14.881 -23.875  0.00  0.00    -0.000 C 
ATOM     19  C   UNL     1      34.872 -13.940 -20.311  0.00  0.00    -0.000 C 
ATOM     20  C   UNL     1      34.846 -16.245 -21.882  0.00  0.00    -0.000 C 
ATOM     21  C   UNL     1      35.070 -15.189 -19.722  0.00  0.00    -0.000 C 
ATOM     22  C   UNL     1      35.057 -16.339 -20.506  0.00  0.00    -0.000 C 
ENDBRANCH   2  13
BRANCH  10  26
ATOM     23  N   UNL     1      33.380  -7.043 -19.336  0.00  0.00    -0.147 NA
ATOM     24  N   UNL     1      33.186  -6.075 -18.400  0.00  0.00    -0.133 NA
ATOM     25  N   UNL     1      32.483  -3.874 -17.810  0.00  0.00    -0.341 N 
ATOM     26  C   UNL     1      33.067  -6.785 -20.624  0.00  0.00    +0.103 C 
ATOM     27  C   UNL     1      32.554  -5.574 -21.043  0.00  0.00    +0.024 C 
ATOM     28  C   UNL     1      32.356  -4.590 -20.091  0.00  0.00    +0.037 C 
ATOM     29  C   UNL     1      32.685  -4.881 -18.783  0.00  0.00    +0.147 C 
ATOM     30  H   UNL     1      32.707  -4.049 -16.867  0.00  0.00    +0.144 HD
ATOM     31  H   UNL     1      32.117  -3.000 -18.075  0.00  0.00    +0.144 HD
ENDBRANCH  10  26
TORSDOF 2
ENDMDL
MODEL 9
REMARK VINA RESULT:     -10.0      7.096     11.291
REMARK  Name = 58212050
REMARK  2 active torsions:
REMARK  status: ('A' for Active; 'I' for Inactive)
REMARK    1  A    between atoms: C_2  and  C_13
REMARK    2  A    between atoms: C_10  and  C_26
REMARK                            x       y       z     vdW  Elec       q    Type
REMARK                         _______ _______ _______ _____ _____    ______ ____
ROOT
ATOM      1  N   UNL     1      34.114 -11.984 -26.271  0.00  0.00    +0.389 N 
ATOM      2  C   UNL     1      33.511 -13.742 -24.635  0.00  0.00    +0.023 C 
ATOM      3  C   UNL     1      34.457 -13.327 -25.788  0.00  0.00    -0.068 C 
ATOM      4  C   UNL     1      33.302 -12.632 -23.612  0.00  0.00    -0.026 C 
ATOM      5  C   UNL     1      33.700 -11.315 -23.913  0.00  0.00    -0.047 C 
ATOM      6  C   UNL     1      34.393 -10.994 -25.217  0.00  0.00    -0.050 C 
ATOM      7  C   UNL     1      32.637 -12.880 -22.400  0.00  0.00    -0.004 C 
ATOM      8  C   UNL     1      33.494 -10.294 -22.974  0.00  0.00    -0.005 C 
ATOM      9  C   UNL     1      34.868 -11.662 -27.482  0.00  0.00    -0.100 C 
ATOM     10  C   UNL     1      32.859 -10.563 -21.763  0.00  0.00    +0.019 C 
ATOM     11  C   UNL     1      32.425 -11.854 -21.479  0.00  0.00    +0.001 C 
ATOM     12  H   UNL     1      33.121 -11.960 -26.500  0.00  0.00    -0.079 HD
ENDROOT
BRANCH   2  13
ATOM     13  C   UNL     1      33.994 -15.060 -24.040  0.00  0.00    -0.020 C 
ATOM     14  C   UNL     1      34.560 -15.083 -22.766  0.00  0.00    -0.004 C 
ATOM     15  C   UNL     1      33.870 -16.238 -24.770  0.00  0.00    -0.004 C 
ATOM     16  C   UNL     1      35.011 -16.289 -22.204  0.00  0.00    -0.000 C 
ATOM     17  C   UNL     1      34.885 -17.487 -22.946  0.00  0.00    -0.000 C 
ATOM     18  C   UNL     1      34.312 -17.445 -24.227  0.00  0.00    -0.000 C 
ATOM     19  C   UNL     1      35.584 -16.330 -20.922  0.00  0.00    -0.000 C 
ATOM     20  C   UNL     1      35.336 -18.693 -22.384  0.00  0.00    -0.000 C 
ATOM     21  C   UNL     1      36.027 -17.537 -20.380  0.00  0.00    -0.000 C 
ATOM     22  C   UNL     1      35.903 -18.716 -21.109  0.00  0.00    -0.000 C 
ENDBRANCH   2  13
BRANCH  10  26
ATOM     23  N   UNL     1      32.960  -8.260 -21.236  0.00  0.00    -0.147 NA
ATOM     24  N   UNL     1      32.789  -7.203 -20.396  0.00  0.00    -0.133 NA
ATOM     25  N   UNL     1      32.129  -6.323 -18.281  0.00  0.00    -0.341 N 
ATOM     26  C   UNL     1      32.645  -9.500 -20.805  0.00  0.00    +0.103 C 
ATOM     27  C   UNL     1      32.152  -9.753 -19.540  0.00  0.00    +0.024 C 
ATOM     28  C   UNL     1      31.978  -8.678 -18.687  0.00  0.00    +0.037 C 
ATOM     29  C   UNL     1      32.308  -7.422 -19.154  0.00  0.00    +0.147 C 
ATOM     30  H   UNL     1      32.355  -5.414 -18.582  0.00  0.00    +0.144 HD
ATOM     31  H   UNL     1      31.780  -6.469 -17.372  0.00  0.00    +0.144 HD
ENDBRANCH  10  26
TORSDOF 2
ENDMDL
