MODEL 1
REMARK VINA RESULT:     -11.8      0.000      0.000
REMARK  Name = 447649
REMARK  5 active torsions:
REMARK  status: ('A' for Active; 'I' for Inactive)
REMARK    1  A    between atoms: N_5  and  C_14
REMARK    2  A    between atoms: C_6  and  O_22
REMARK    3  A    between atoms: C_19  and  O_20
REMARK    4  A    between atoms: O_22  and  C_23
REMARK    5  A    between atoms: C_23  and  C_24
REMARK                            x       y       z     vdW  Elec       q    Type
REMARK                         _______ _______ _______ _____ _____    ______ ____
ROOT
ATOM      1  N   UNL     1      34.880 -23.595 -14.682  0.00  0.00    -0.293 NA
ATOM      2  N   UNL     1      31.477 -22.364 -15.336  0.00  0.00    -0.266 NA
ATOM      3  N   UNL     1      33.435 -23.565 -12.717  0.00  0.00    -0.316 NA
ATOM      4  N   UNL     1      31.189 -22.750 -13.160  0.00  0.00    -0.296 N 
ATOM      5  N   UNL     1      35.652 -24.301 -12.586  0.00  0.00    -0.238 N 
ATOM      6  C   UNL     1      33.894 -23.107 -15.467  0.00  0.00    +0.288 C 
ATOM      7  C   UNL     1      32.672 -22.845 -14.884  0.00  0.00    +0.215 C 
ATOM      8  C   UNL     1      32.467 -23.077 -13.530  0.00  0.00    +0.196 C 
ATOM      9  C   UNL     1      34.594 -23.790 -13.373  0.00  0.00    +0.207 C 
ATOM     10  C   UNL     1      30.619 -22.325 -14.269  0.00  0.00    +0.164 C 
ATOM     11  H   UNL     1      31.269 -22.095 -16.261  0.00  0.00    +0.126 HD
ATOM     12  H   UNL     1      30.784 -22.818 -12.265  0.00  0.00    +0.150 HD
ATOM     13  H   UNL     1      35.414 -24.434 -11.640  0.00  0.00    +0.166 HD
ENDROOT
BRANCH   5  14
ATOM     14  C   UNL     1      36.977 -24.655 -12.893  0.00  0.00    +0.059 C 
ATOM     15  C   UNL     1      37.238 -25.774 -13.689  0.00  0.00    +0.018 C 
ATOM     16  C   UNL     1      38.040 -23.892 -12.404  0.00  0.00    +0.018 C 
ATOM     17  C   UNL     1      38.553 -26.126 -13.993  0.00  0.00    +0.038 C 
ATOM     18  C   UNL     1      39.355 -24.244 -12.707  0.00  0.00    +0.038 C 
ATOM     19  C   UNL     1      39.612 -25.361 -13.502  0.00  0.00    +0.134 C 
BRANCH  19  20
ATOM     20  O   UNL     1      40.894 -25.704 -13.800  0.00  0.00    -0.506 OA
ATOM     21  H   UNL     1      41.158 -25.804 -14.693  0.00  0.00    +0.292 HD
ENDBRANCH  19  20
ENDBRANCH   5  14
BRANCH   6  22
ATOM     22  O   UNL     1      34.152 -22.896 -16.800  0.00  0.00    -0.453 OA
BRANCH  22  23
ATOM     23  C   UNL     1      35.174 -21.970 -17.118  0.00  0.00    +0.208 C 
BRANCH  23  24
ATOM     24  C   UNL     1      34.906 -21.416 -18.516  0.00  0.00    +0.044 C 
ATOM     25  C   UNL     1      33.515 -20.772 -18.586  0.00  0.00    +0.004 C 
ATOM     26  C   UNL     1      35.994 -20.411 -18.918  0.00  0.00    +0.004 C 
ATOM     27  C   UNL     1      33.245 -20.163 -19.961  0.00  0.00    +0.000 C 
ATOM     28  C   UNL     1      35.720 -19.802 -20.291  0.00  0.00    +0.000 C 
ATOM     29  C   UNL     1      34.333 -19.171 -20.360  0.00  0.00    +0.000 C 
ENDBRANCH  23  24
ENDBRANCH  22  23
ENDBRANCH   6  22
TORSDOF 5
ENDMDL
MODEL 2
REMARK VINA RESULT:     -11.4      1.520      2.364
REMARK  Name = 447649
REMARK  5 active torsions:
REMARK  status: ('A' for Active; 'I' for Inactive)
REMARK    1  A    between atoms: N_5  and  C_14
REMARK    2  A    between atoms: C_6  and  O_22
REMARK    3  A    between atoms: C_19  and  O_20
REMARK    4  A    between atoms: O_22  and  C_23
REMARK    5  A    between atoms: C_23  and  C_24
REMARK                            x       y       z     vdW  Elec       q    Type
REMARK                         _______ _______ _______ _____ _____    ______ ____
ROOT
ATOM      1  N   UNL     1      33.211 -22.815 -15.638  0.00  0.00    -0.293 NA
ATOM      2  N   UNL     1      29.706 -22.120 -16.512  0.00  0.00    -0.266 NA
ATOM      3  N   UNL     1      31.600 -23.523 -13.947  0.00  0.00    -0.316 NA
ATOM      4  N   UNL     1      29.288 -23.059 -14.535  0.00  0.00    -0.296 N 
ATOM      5  N   UNL     1      33.899 -23.844 -13.649  0.00  0.00    -0.238 N 
ATOM      6  C   UNL     1      32.228 -22.347 -16.438  0.00  0.00    +0.288 C 
ATOM      7  C   UNL     1      30.925 -22.463 -16.000  0.00  0.00    +0.215 C 
ATOM      8  C   UNL     1      30.638 -23.045 -14.772  0.00  0.00    +0.196 C 
ATOM      9  C   UNL     1      32.841 -23.366 -14.457  0.00  0.00    +0.207 C 
ATOM     10  C   UNL     1      28.757 -22.496 -15.600  0.00  0.00    +0.164 C 
ATOM     11  H   UNL     1      29.541 -21.682 -17.379  0.00  0.00    +0.126 HD
ATOM     12  H   UNL     1      28.819 -23.412 -13.745  0.00  0.00    +0.150 HD
ATOM     13  H   UNL     1      33.601 -24.239 -12.799  0.00  0.00    +0.166 HD
ENDROOT
BRANCH   5  14
ATOM     14  C   UNL     1      35.293 -23.862 -13.825  0.00  0.00    +0.059 C 
ATOM     15  C   UNL     1      36.063 -22.761 -13.440  0.00  0.00    +0.018 C 
ATOM     16  C   UNL     1      35.917 -24.979 -14.384  0.00  0.00    +0.018 C 
ATOM     17  C   UNL     1      37.447 -22.778 -13.615  0.00  0.00    +0.038 C 
ATOM     18  C   UNL     1      37.301 -24.996 -14.559  0.00  0.00    +0.038 C 
ATOM     19  C   UNL     1      38.066 -23.896 -14.174  0.00  0.00    +0.134 C 
BRANCH  19  20
ATOM     20  O   UNL     1      39.416 -23.913 -14.342  0.00  0.00    -0.506 OA
ATOM     21  H   UNL     1      39.830 -23.266 -14.879  0.00  0.00    +0.292 HD
ENDBRANCH  19  20
ENDBRANCH   5  14
BRANCH   6  22
ATOM     22  O   UNL     1      32.568 -21.781 -17.643  0.00  0.00    -0.453 OA
BRANCH  22  23
ATOM     23  C   UNL     1      33.848 -22.091 -18.160  0.00  0.00    +0.208 C 
BRANCH  23  24
ATOM     24  C   UNL     1      34.493 -20.800 -18.661  0.00  0.00    +0.044 C 
ATOM     25  C   UNL     1      35.922 -21.063 -19.154  0.00  0.00    +0.004 C 
ATOM     26  C   UNL     1      33.642 -20.163 -19.768  0.00  0.00    +0.004 C 
ATOM     27  C   UNL     1      36.569 -19.796 -19.709  0.00  0.00    +0.000 C 
ATOM     28  C   UNL     1      34.292 -18.898 -20.322  0.00  0.00    +0.000 C 
ATOM     29  C   UNL     1      35.716 -19.162 -20.803  0.00  0.00    +0.000 C 
ENDBRANCH  23  24
ENDBRANCH  22  23
ENDBRANCH   6  22
TORSDOF 5
ENDMDL
MODEL 3
REMARK VINA RESULT:     -11.3      2.013      6.111
REMARK  Name = 447649
REMARK  5 active torsions:
REMARK  status: ('A' for Active; 'I' for Inactive)
REMARK    1  A    between atoms: N_5  and  C_14
REMARK    2  A    between atoms: C_6  and  O_22
REMARK    3  A    between atoms: C_19  and  O_20
REMARK    4  A    between atoms: O_22  and  C_23
REMARK    5  A    between atoms: C_23  and  C_24
REMARK                            x       y       z     vdW  Elec       q    Type
REMARK                         _______ _______ _______ _____ _____    ______ ____
ROOT
ATOM      1  N   UNL     1      33.363 -23.034 -15.328  0.00  0.00    -0.293 NA
ATOM      2  N   UNL     1      36.994 -23.352 -14.835  0.00  0.00    -0.266 NA
ATOM      3  N   UNL     1      34.001 -23.916 -13.145  0.00  0.00    -0.316 NA
ATOM      4  N   UNL     1      36.402 -24.123 -12.830  0.00  0.00    -0.296 N 
ATOM      5  N   UNL     1      31.755 -23.611 -13.725  0.00  0.00    -0.238 N 
ATOM      6  C   UNL     1      34.656 -22.928 -15.709  0.00  0.00    +0.288 C 
ATOM      7  C   UNL     1      35.629 -23.315 -14.812  0.00  0.00    +0.215 C 
ATOM      8  C   UNL     1      35.286 -23.798 -13.557  0.00  0.00    +0.196 C 
ATOM      9  C   UNL     1      33.120 -23.516 -14.086  0.00  0.00    +0.207 C 
ATOM     10  C   UNL     1      37.412 -23.843 -13.627  0.00  0.00    +0.164 C 
ATOM     11  H   UNL     1      37.573 -23.077 -15.584  0.00  0.00    +0.126 HD
ATOM     12  H   UNL     1      36.441 -24.484 -11.915  0.00  0.00    +0.150 HD
ATOM     13  H   UNL     1      31.609 -23.963 -12.818  0.00  0.00    +0.166 HD
ENDROOT
BRANCH   5  14
ATOM     14  C   UNL     1      30.568 -23.301 -14.412  0.00  0.00    +0.059 C 
ATOM     15  C   UNL     1      30.003 -22.029 -14.297  0.00  0.00    +0.018 C 
ATOM     16  C   UNL     1      29.948 -24.263 -15.212  0.00  0.00    +0.018 C 
ATOM     17  C   UNL     1      28.825 -21.721 -14.977  0.00  0.00    +0.038 C 
ATOM     18  C   UNL     1      28.770 -23.956 -15.893  0.00  0.00    +0.038 C 
ATOM     19  C   UNL     1      28.208 -22.685 -15.776  0.00  0.00    +0.134 C 
BRANCH  19  20
ATOM     20  O   UNL     1      27.060 -22.384 -16.440  0.00  0.00    -0.506 OA
ATOM     21  H   UNL     1      26.229 -22.544 -16.038  0.00  0.00    +0.292 HD
ENDBRANCH  19  20
ENDBRANCH   5  14
BRANCH   6  22
ATOM     22  O   UNL     1      34.938 -22.444 -16.964  0.00  0.00    -0.453 OA
BRANCH  22  23
ATOM     23  C   UNL     1      33.837 -22.096 -17.782  0.00  0.00    +0.208 C 
BRANCH  23  24
ATOM     24  C   UNL     1      34.360 -21.331 -18.996  0.00  0.00    +0.044 C 
ATOM     25  C   UNL     1      33.386 -20.214 -19.394  0.00  0.00    +0.004 C 
ATOM     26  C   UNL     1      35.759 -20.764 -18.718  0.00  0.00    +0.004 C 
ATOM     27  C   UNL     1      33.913 -19.401 -20.575  0.00  0.00    +0.000 C 
ATOM     28  C   UNL     1      36.282 -19.949 -19.899  0.00  0.00    +0.000 C 
ATOM     29  C   UNL     1      35.306 -18.846 -20.297  0.00  0.00    +0.000 C 
ENDBRANCH  23  24
ENDBRANCH  22  23
ENDBRANCH   6  22
TORSDOF 5
ENDMDL
MODEL 4
REMARK VINA RESULT:     -11.3      1.914      6.650
REMARK  Name = 447649
REMARK  5 active torsions:
REMARK  status: ('A' for Active; 'I' for Inactive)
REMARK    1  A    between atoms: N_5  and  C_14
REMARK    2  A    between atoms: C_6  and  O_22
REMARK    3  A    between atoms: C_19  and  O_20
REMARK    4  A    between atoms: O_22  and  C_23
REMARK    5  A    between atoms: C_23  and  C_24
REMARK                            x       y       z     vdW  Elec       q    Type
REMARK                         _______ _______ _______ _____ _____    ______ ____
ROOT
ATOM      1  N   UNL     1      34.000 -22.373 -15.799  0.00  0.00    -0.293 NA
ATOM      2  N   UNL     1      32.776 -24.229 -12.869  0.00  0.00    -0.266 NA
ATOM      3  N   UNL     1      31.653 -23.022 -15.937  0.00  0.00    -0.316 NA
ATOM      4  N   UNL     1      30.854 -24.248 -13.997  0.00  0.00    -0.296 N 
ATOM      5  N   UNL     1      32.691 -21.832 -17.664  0.00  0.00    -0.238 N 
ATOM      6  C   UNL     1      34.131 -22.948 -14.583  0.00  0.00    +0.288 C 
ATOM      7  C   UNL     1      33.025 -23.564 -14.035  0.00  0.00    +0.215 C 
ATOM      8  C   UNL     1      31.816 -23.589 -14.718  0.00  0.00    +0.196 C 
ATOM      9  C   UNL     1      32.786 -22.446 -16.393  0.00  0.00    +0.207 C 
ATOM     10  C   UNL     1      31.464 -24.620 -12.891  0.00  0.00    +0.164 C 
ATOM     11  H   UNL     1      33.423 -24.397 -12.144  0.00  0.00    +0.126 HD
ATOM     12  H   UNL     1      29.916 -24.408 -14.249  0.00  0.00    +0.150 HD
ATOM     13  H   UNL     1      31.797 -21.900 -18.071  0.00  0.00    +0.166 HD
ENDROOT
BRANCH   5  14
ATOM     14  C   UNL     1      33.625 -21.145 -18.458  0.00  0.00    +0.059 C 
ATOM     15  C   UNL     1      34.990 -21.415 -18.327  0.00  0.00    +0.018 C 
ATOM     16  C   UNL     1      33.195 -20.190 -19.383  0.00  0.00    +0.018 C 
ATOM     17  C   UNL     1      35.917 -20.734 -19.115  0.00  0.00    +0.038 C 
ATOM     18  C   UNL     1      34.123 -19.509 -20.170  0.00  0.00    +0.038 C 
ATOM     19  C   UNL     1      35.484 -19.781 -20.037  0.00  0.00    +0.134 C 
BRANCH  19  20
ATOM     20  O   UNL     1      36.389 -19.117 -20.807  0.00  0.00    -0.506 OA
ATOM     21  H   UNL     1      36.779 -19.542 -21.545  0.00  0.00    +0.292 HD
ENDBRANCH  19  20
ENDBRANCH   5  14
BRANCH   6  22
ATOM     22  O   UNL     1      35.350 -22.894 -13.953  0.00  0.00    -0.453 OA
BRANCH  22  23
ATOM     23  C   UNL     1      36.487 -22.685 -14.769  0.00  0.00    +0.208 C 
BRANCH  23  24
ATOM     24  C   UNL     1      37.491 -23.804 -14.496  0.00  0.00    +0.044 C 
ATOM     25  C   UNL     1      38.905 -23.379 -14.914  0.00  0.00    +0.004 C 
ATOM     26  C   UNL     1      37.458 -24.212 -13.016  0.00  0.00    +0.004 C 
ATOM     27  C   UNL     1      39.935 -24.462 -14.602  0.00  0.00    +0.000 C 
ATOM     28  C   UNL     1      38.491 -25.293 -12.707  0.00  0.00    +0.000 C 
ATOM     29  C   UNL     1      39.893 -24.870 -13.133  0.00  0.00    +0.000 C 
ENDBRANCH  23  24
ENDBRANCH  22  23
ENDBRANCH   6  22
TORSDOF 5
ENDMDL
MODEL 5
REMARK VINA RESULT:     -10.6      2.523      6.643
REMARK  Name = 447649
REMARK  5 active torsions:
REMARK  status: ('A' for Active; 'I' for Inactive)
REMARK    1  A    between atoms: N_5  and  C_14
REMARK    2  A    between atoms: C_6  and  O_22
REMARK    3  A    between atoms: C_19  and  O_20
REMARK    4  A    between atoms: O_22  and  C_23
REMARK    5  A    between atoms: C_23  and  C_24
REMARK                            x       y       z     vdW  Elec       q    Type
REMARK                         _______ _______ _______ _____ _____    ______ ____
ROOT
ATOM      1  N   UNL     1      35.320 -22.926 -14.603  0.00  0.00    -0.293 NA
ATOM      2  N   UNL     1      36.638 -24.318 -11.464  0.00  0.00    -0.266 NA
ATOM      3  N   UNL     1      37.741 -22.737 -14.366  0.00  0.00    -0.316 NA
ATOM      4  N   UNL     1      38.601 -23.660 -12.289  0.00  0.00    -0.296 N 
ATOM      5  N   UNL     1      36.637 -21.933 -16.266  0.00  0.00    -0.238 N 
ATOM      6  C   UNL     1      35.208 -23.536 -13.402  0.00  0.00    +0.288 C 
ATOM      7  C   UNL     1      36.360 -23.751 -12.675  0.00  0.00    +0.215 C 
ATOM      8  C   UNL     1      37.595 -23.351 -13.167  0.00  0.00    +0.196 C 
ATOM      9  C   UNL     1      36.563 -22.568 -15.005  0.00  0.00    +0.207 C 
ATOM     10  C   UNL     1      37.992 -24.240 -11.276  0.00  0.00    +0.164 C 
ATOM     11  H   UNL     1      35.985 -24.710 -10.840  0.00  0.00    +0.126 HD
ATOM     12  H   UNL     1      39.565 -23.488 -12.392  0.00  0.00    +0.150 HD
ATOM     13  H   UNL     1      37.552 -21.686 -16.532  0.00  0.00    +0.166 HD
ENDROOT
BRANCH   5  14
ATOM     14  C   UNL     1      35.658 -21.585 -17.212  0.00  0.00    +0.059 C 
ATOM     15  C   UNL     1      34.337 -22.009 -17.044  0.00  0.00    +0.018 C 
ATOM     16  C   UNL     1      35.999 -20.814 -18.326  0.00  0.00    +0.018 C 
ATOM     17  C   UNL     1      33.365 -21.665 -17.983  0.00  0.00    +0.038 C 
ATOM     18  C   UNL     1      35.027 -20.470 -19.266  0.00  0.00    +0.038 C 
ATOM     19  C   UNL     1      33.710 -20.895 -19.094  0.00  0.00    +0.134 C 
BRANCH  19  20
ATOM     20  O   UNL     1      32.761 -20.558 -20.009  0.00  0.00    -0.506 OA
ATOM     21  H   UNL     1      32.810 -19.735 -20.455  0.00  0.00    +0.292 HD
ENDBRANCH  19  20
ENDBRANCH   5  14
BRANCH   6  22
ATOM     22  O   UNL     1      33.961 -23.910 -12.964  0.00  0.00    -0.453 OA
BRANCH  22  23
ATOM     23  C   UNL     1      32.927 -22.949 -13.067  0.00  0.00    +0.208 C 
BRANCH  23  24
ATOM     24  C   UNL     1      31.895 -23.456 -14.073  0.00  0.00    +0.044 C 
ATOM     25  C   UNL     1      30.867 -24.363 -13.385  0.00  0.00    +0.004 C 
ATOM     26  C   UNL     1      31.202 -22.281 -14.777  0.00  0.00    +0.004 C 
ATOM     27  C   UNL     1      29.793 -24.840 -14.361  0.00  0.00    +0.000 C 
ATOM     28  C   UNL     1      30.128 -22.760 -15.749  0.00  0.00    +0.000 C 
ATOM     29  C   UNL     1      29.113 -23.670 -15.063  0.00  0.00    +0.000 C 
ENDBRANCH  23  24
ENDBRANCH  22  23
ENDBRANCH   6  22
TORSDOF 5
ENDMDL
MODEL 6
REMARK VINA RESULT:     -10.5      2.607      7.032
REMARK  Name = 447649
REMARK  5 active torsions:
REMARK  status: ('A' for Active; 'I' for Inactive)
REMARK    1  A    between atoms: N_5  and  C_14
REMARK    2  A    between atoms: C_6  and  O_22
REMARK    3  A    between atoms: C_19  and  O_20
REMARK    4  A    between atoms: O_22  and  C_23
REMARK    5  A    between atoms: C_23  and  C_24
REMARK                            x       y       z     vdW  Elec       q    Type
REMARK                         _______ _______ _______ _____ _____    ______ ____
ROOT
ATOM      1  N   UNL     1      34.259 -22.112 -16.437  0.00  0.00    -0.293 NA
ATOM      2  N   UNL     1      36.554 -20.796 -18.991  0.00  0.00    -0.266 NA
ATOM      3  N   UNL     1      33.144 -21.196 -18.404  0.00  0.00    -0.316 NA
ATOM      4  N   UNL     1      34.670 -20.329 -20.085  0.00  0.00    -0.296 N 
ATOM      5  N   UNL     1      31.924 -22.100 -16.624  0.00  0.00    -0.238 N 
ATOM      6  C   UNL     1      35.478 -21.825 -16.943  0.00  0.00    +0.288 C 
ATOM      7  C   UNL     1      35.541 -21.222 -18.182  0.00  0.00    +0.215 C 
ATOM      8  C   UNL     1      34.381 -20.921 -18.883  0.00  0.00    +0.196 C 
ATOM      9  C   UNL     1      33.181 -21.783 -17.188  0.00  0.00    +0.207 C 
ATOM     10  C   UNL     1      35.984 -20.268 -20.119  0.00  0.00    +0.164 C 
ATOM     11  H   UNL     1      37.519 -20.856 -18.799  0.00  0.00    +0.126 HD
ATOM     12  H   UNL     1      34.036 -20.018 -20.771  0.00  0.00    +0.150 HD
ATOM     13  H   UNL     1      31.160 -21.851 -17.192  0.00  0.00    +0.166 HD
ENDROOT
BRANCH   5  14
ATOM     14  C   UNL     1      31.554 -22.701 -15.408  0.00  0.00    +0.059 C 
ATOM     15  C   UNL     1      30.580 -23.703 -15.388  0.00  0.00    +0.018 C 
ATOM     16  C   UNL     1      32.156 -22.298 -14.213  0.00  0.00    +0.018 C 
ATOM     17  C   UNL     1      30.212 -24.298 -14.181  0.00  0.00    +0.038 C 
ATOM     18  C   UNL     1      31.788 -22.894 -13.007  0.00  0.00    +0.038 C 
ATOM     19  C   UNL     1      30.816 -23.894 -12.991  0.00  0.00    +0.134 C 
BRANCH  19  20
ATOM     20  O   UNL     1      30.457 -24.476 -11.814  0.00  0.00    -0.506 OA
ATOM     21  H   UNL     1      29.586 -24.798 -11.696  0.00  0.00    +0.292 HD
ENDBRANCH  19  20
ENDBRANCH   5  14
BRANCH   6  22
ATOM     22  O   UNL     1      36.593 -22.144 -16.205  0.00  0.00    -0.453 OA
BRANCH  22  23
ATOM     23  C   UNL     1      36.415 -22.312 -14.811  0.00  0.00    +0.208 C 
BRANCH  23  24
ATOM     24  C   UNL     1      37.285 -23.480 -14.350  0.00  0.00    +0.044 C 
ATOM     25  C   UNL     1      37.800 -23.243 -12.924  0.00  0.00    +0.004 C 
ATOM     26  C   UNL     1      36.508 -24.801 -14.438  0.00  0.00    +0.004 C 
ATOM     27  C   UNL     1      38.629 -24.423 -12.421  0.00  0.00    +0.000 C 
ATOM     28  C   UNL     1      37.338 -25.978 -13.932  0.00  0.00    +0.000 C 
ATOM     29  C   UNL     1      37.856 -25.735 -12.518  0.00  0.00    +0.000 C 
ENDBRANCH  23  24
ENDBRANCH  22  23
ENDBRANCH   6  22
TORSDOF 5
ENDMDL
MODEL 7
REMARK VINA RESULT:     -10.5      7.729     11.265
REMARK  Name = 447649
REMARK  5 active torsions:
REMARK  status: ('A' for Active; 'I' for Inactive)
REMARK    1  A    between atoms: N_5  and  C_14
REMARK    2  A    between atoms: C_6  and  O_22
REMARK    3  A    between atoms: C_19  and  O_20
REMARK    4  A    between atoms: O_22  and  C_23
REMARK    5  A    between atoms: C_23  and  C_24
REMARK                            x       y       z     vdW  Elec       q    Type
REMARK                         _______ _______ _______ _____ _____    ______ ____
ROOT
ATOM      1  N   UNL     1      34.887 -15.463 -22.084  0.00  0.00    -0.293 NA
ATOM      2  N   UNL     1      33.866 -12.577 -24.123  0.00  0.00    -0.266 NA
ATOM      3  N   UNL     1      34.591 -15.968 -24.452  0.00  0.00    -0.316 NA
ATOM      4  N   UNL     1      33.917 -14.055 -25.790  0.00  0.00    -0.296 N 
ATOM      5  N   UNL     1      35.238 -17.620 -22.926  0.00  0.00    -0.238 N 
ATOM      6  C   UNL     1      34.554 -14.167 -22.276  0.00  0.00    +0.288 C 
ATOM      7  C   UNL     1      34.238 -13.762 -23.556  0.00  0.00    +0.215 C 
ATOM      8  C   UNL     1      34.262 -14.664 -24.611  0.00  0.00    +0.196 C 
ATOM      9  C   UNL     1      34.884 -16.273 -23.169  0.00  0.00    +0.207 C 
ATOM     10  C   UNL     1      33.685 -12.801 -25.462  0.00  0.00    +0.164 C 
ATOM     11  H   UNL     1      33.749 -11.718 -23.655  0.00  0.00    +0.126 HD
ATOM     12  H   UNL     1      33.856 -14.464 -26.684  0.00  0.00    +0.150 HD
ATOM     13  H   UNL     1      35.228 -18.184 -23.732  0.00  0.00    +0.166 HD
ENDROOT
BRANCH   5  14
ATOM     14  C   UNL     1      35.599 -18.310 -21.755  0.00  0.00    +0.059 C 
ATOM     15  C   UNL     1      34.662 -19.108 -21.094  0.00  0.00    +0.018 C 
ATOM     16  C   UNL     1      36.896 -18.202 -21.248  0.00  0.00    +0.018 C 
ATOM     17  C   UNL     1      35.020 -19.792 -19.932  0.00  0.00    +0.038 C 
ATOM     18  C   UNL     1      37.253 -18.886 -20.086  0.00  0.00    +0.038 C 
ATOM     19  C   UNL     1      36.316 -19.681 -19.428  0.00  0.00    +0.134 C 
BRANCH  19  20
ATOM     20  O   UNL     1      36.665 -20.350 -18.296  0.00  0.00    -0.506 OA
ATOM     21  H   UNL     1      36.883 -19.875 -17.518  0.00  0.00    +0.292 HD
ENDBRANCH  19  20
ENDBRANCH   5  14
BRANCH   6  22
ATOM     22  O   UNL     1      34.546 -13.319 -21.195  0.00  0.00    -0.453 OA
BRANCH  22  23
ATOM     23  C   UNL     1      33.492 -13.474 -20.264  0.00  0.00    +0.208 C 
BRANCH  23  24
ATOM     24  C   UNL     1      32.820 -12.117 -20.064  0.00  0.00    +0.044 C 
ATOM     25  C   UNL     1      31.924 -11.773 -21.262  0.00  0.00    +0.004 C 
ATOM     26  C   UNL     1      32.015 -12.098 -18.757  0.00  0.00    +0.004 C 
ATOM     27  C   UNL     1      31.200 -10.444 -21.061  0.00  0.00    +0.000 C 
ATOM     28  C   UNL     1      31.290 -10.769 -18.560  0.00  0.00    +0.000 C 
ATOM     29  C   UNL     1      30.408 -10.427 -19.757  0.00  0.00    +0.000 C 
ENDBRANCH  23  24
ENDBRANCH  22  23
ENDBRANCH   6  22
TORSDOF 5
ENDMDL
MODEL 8
REMARK VINA RESULT:     -10.3      8.029     11.627
REMARK  Name = 447649
REMARK  5 active torsions:
REMARK  status: ('A' for Active; 'I' for Inactive)
REMARK    1  A    between atoms: N_5  and  C_14
REMARK    2  A    between atoms: C_6  and  O_22
REMARK    3  A    between atoms: C_19  and  O_20
REMARK    4  A    between atoms: O_22  and  C_23
REMARK    5  A    between atoms: C_23  and  C_24
REMARK                            x       y       z     vdW  Elec       q    Type
REMARK                         _______ _______ _______ _____ _____    ______ ____
ROOT
ATOM      1  N   UNL     1      34.645 -15.159 -22.256  0.00  0.00    -0.293 NA
ATOM      2  N   UNL     1      33.631 -12.202 -24.195  0.00  0.00    -0.266 NA
ATOM      3  N   UNL     1      34.685 -15.488 -24.672  0.00  0.00    -0.316 NA
ATOM      4  N   UNL     1      34.014 -13.529 -25.944  0.00  0.00    -0.296 N 
ATOM      5  N   UNL     1      35.284 -17.204 -23.200  0.00  0.00    -0.238 N 
ATOM      6  C   UNL     1      34.225 -13.881 -22.395  0.00  0.00    +0.288 C 
ATOM      7  C   UNL     1      34.033 -13.398 -23.672  0.00  0.00    +0.215 C 
ATOM      8  C   UNL     1      34.265 -14.205 -24.778  0.00  0.00    +0.196 C 
ATOM      9  C   UNL     1      34.845 -15.873 -23.388  0.00  0.00    +0.207 C 
ATOM     10  C   UNL     1      33.635 -12.328 -25.558  0.00  0.00    +0.164 C 
ATOM     11  H   UNL     1      33.383 -11.397 -23.685  0.00  0.00    +0.126 HD
ATOM     12  H   UNL     1      34.099 -13.865 -26.866  0.00  0.00    +0.150 HD
ATOM     13  H   UNL     1      35.422 -17.699 -24.039  0.00  0.00    +0.166 HD
ENDROOT
BRANCH   5  14
ATOM     14  C   UNL     1      35.559 -17.959 -22.046  0.00  0.00    +0.059 C 
ATOM     15  C   UNL     1      34.580 -18.795 -21.505  0.00  0.00    +0.018 C 
ATOM     16  C   UNL     1      36.812 -17.876 -21.434  0.00  0.00    +0.018 C 
ATOM     17  C   UNL     1      34.852 -19.543 -20.359  0.00  0.00    +0.038 C 
ATOM     18  C   UNL     1      37.084 -18.623 -20.288  0.00  0.00    +0.038 C 
ATOM     19  C   UNL     1      36.105 -19.458 -19.751  0.00  0.00    +0.134 C 
BRANCH  19  20
ATOM     20  O   UNL     1      36.370 -20.189 -18.634  0.00  0.00    -0.506 OA
ATOM     21  H   UNL     1      35.677 -20.416 -18.047  0.00  0.00    +0.292 HD
ENDBRANCH  19  20
ENDBRANCH   5  14
BRANCH   6  22
ATOM     22  O   UNL     1      34.011 -13.129 -21.266  0.00  0.00    -0.453 OA
BRANCH  22  23
ATOM     23  C   UNL     1      32.893 -13.470 -20.468  0.00  0.00    +0.208 C 
BRANCH  23  24
ATOM     24  C   UNL     1      32.017 -12.229 -20.306  0.00  0.00    +0.044 C 
ATOM     25  C   UNL     1      31.985 -11.774 -18.841  0.00  0.00    +0.004 C 
ATOM     26  C   UNL     1      32.508 -11.097 -21.219  0.00  0.00    +0.004 C 
ATOM     27  C   UNL     1      31.158 -10.503 -18.663  0.00  0.00    +0.000 C 
ATOM     28  C   UNL     1      31.681  -9.826 -21.037  0.00  0.00    +0.000 C 
ATOM     29  C   UNL     1      31.644  -9.383 -19.577  0.00  0.00    +0.000 C 
ENDBRANCH  23  24
ENDBRANCH  22  23
ENDBRANCH   6  22
TORSDOF 5
ENDMDL
MODEL 9
REMARK VINA RESULT:      -9.0      2.736      7.339
REMARK  Name = 447649
REMARK  5 active torsions:
REMARK  status: ('A' for Active; 'I' for Inactive)
REMARK    1  A    between atoms: N_5  and  C_14
REMARK    2  A    between atoms: C_6  and  O_22
REMARK    3  A    between atoms: C_19  and  O_20
REMARK    4  A    between atoms: O_22  and  C_23
REMARK    5  A    between atoms: C_23  and  C_24
REMARK                            x       y       z     vdW  Elec       q    Type
REMARK                         _______ _______ _______ _____ _____    ______ ____
ROOT
ATOM      1  N   UNL     1      34.293 -22.809 -14.561  0.00  0.00    -0.293 NA
ATOM      2  N   UNL     1      37.748 -21.629 -15.003  0.00  0.00    -0.266 NA
ATOM      3  N   UNL     1      34.791 -22.000 -16.807  0.00  0.00    -0.316 NA
ATOM      4  N   UNL     1      37.077 -21.223 -17.089  0.00  0.00    -0.296 N 
ATOM      5  N   UNL     1      32.669 -22.809 -16.248  0.00  0.00    -0.238 N 
ATOM      6  C   UNL     1      35.551 -22.549 -14.142  0.00  0.00    +0.288 C 
ATOM      7  C   UNL     1      36.439 -22.013 -15.052  0.00  0.00    +0.215 C 
ATOM      8  C   UNL     1      36.045 -21.751 -16.358  0.00  0.00    +0.196 C 
ATOM      9  C   UNL     1      33.995 -22.522 -15.850  0.00  0.00    +0.207 C 
ATOM     10  C   UNL     1      38.086 -21.164 -16.246  0.00  0.00    +0.164 C 
ATOM     11  H   UNL     1      38.342 -21.679 -14.218  0.00  0.00    +0.126 HD
ATOM     12  H   UNL     1      37.067 -20.950 -18.035  0.00  0.00    +0.150 HD
ATOM     13  H   UNL     1      32.481 -22.591 -17.189  0.00  0.00    +0.166 HD
ENDROOT
BRANCH   5  14
ATOM     14  C   UNL     1      31.566 -23.344 -15.559  0.00  0.00    +0.059 C 
ATOM     15  C   UNL     1      31.765 -24.181 -14.458  0.00  0.00    +0.018 C 
ATOM     16  C   UNL     1      30.266 -23.043 -15.973  0.00  0.00    +0.018 C 
ATOM     17  C   UNL     1      30.671 -24.712 -13.775  0.00  0.00    +0.038 C 
ATOM     18  C   UNL     1      29.172 -23.575 -15.290  0.00  0.00    +0.038 C 
ATOM     19  C   UNL     1      29.374 -24.409 -14.191  0.00  0.00    +0.134 C 
BRANCH  19  20
ATOM     20  O   UNL     1      28.307 -24.927 -13.524  0.00  0.00    -0.506 OA
ATOM     21  H   UNL     1      27.521 -25.138 -13.987  0.00  0.00    +0.292 HD
ENDBRANCH  19  20
ENDBRANCH   5  14
BRANCH   6  22
ATOM     22  O   UNL     1      35.887 -22.827 -12.839  0.00  0.00    -0.453 OA
BRANCH  22  23
ATOM     23  C   UNL     1      35.751 -24.170 -12.413  0.00  0.00    +0.208 C 
BRANCH  23  24
ATOM     24  C   UNL     1      37.090 -24.878 -12.615  0.00  0.00    +0.044 C 
ATOM     25  C   UNL     1      37.134 -25.575 -13.981  0.00  0.00    +0.004 C 
ATOM     26  C   UNL     1      38.254 -23.889 -12.467  0.00  0.00    +0.004 C 
ATOM     27  C   UNL     1      38.484 -26.247 -14.228  0.00  0.00    +0.000 C 
ATOM     28  C   UNL     1      39.601 -24.563 -12.717  0.00  0.00    +0.000 C 
ATOM     29  C   UNL     1      39.638 -25.262 -14.072  0.00  0.00    +0.000 C 
ENDBRANCH  23  24
ENDBRANCH  22  23
ENDBRANCH   6  22
TORSDOF 5
ENDMDL
