MODEL 1
REMARK VINA RESULT:     -11.6      0.000      0.000
REMARK  Name = 100472
REMARK  3 active torsions:
REMARK  status: ('A' for Active; 'I' for Inactive)
REMARK    1  A    between atoms: C_1  and  C_13
REMARK    2  A    between atoms: C_2  and  C_7
REMARK    3  A    between atoms: C_13  and  C_16
REMARK                            x       y       z     vdW  Elec       q    Type
REMARK                         _______ _______ _______ _____ _____    ______ ____
ROOT
ATOM      1  C   UNL     1      34.200 -21.932 -17.363  0.00  0.00    -0.013 C 
ATOM      2  C   UNL     1      34.935 -20.191 -19.416  0.00  0.00    -0.000 C 
ATOM      3  C   UNL     1      33.224 -21.385 -18.197  0.00  0.00    -0.004 C 
ATOM      4  C   UNL     1      35.543 -21.608 -17.556  0.00  0.00    -0.004 C 
ATOM      5  C   UNL     1      33.592 -20.514 -19.223  0.00  0.00    -0.000 C 
ATOM      6  C   UNL     1      35.911 -20.738 -18.582  0.00  0.00    -0.000 C 
ENDROOT
BRANCH   2   7
ATOM      7  C   UNL     1      35.316 -19.287 -20.480  0.00  0.00    -0.000 C 
ATOM      8  C   UNL     1      36.528 -18.600 -20.411  0.00  0.00    -0.000 C 
ATOM      9  C   UNL     1      34.471 -19.103 -21.574  0.00  0.00    -0.000 C 
ATOM     10  C   UNL     1      36.895 -17.730 -21.437  0.00  0.00    +0.000 C 
ATOM     11  C   UNL     1      34.838 -18.233 -22.601  0.00  0.00    +0.000 C 
ATOM     12  C   UNL     1      36.051 -17.547 -22.531  0.00  0.00    +0.000 C 
ENDBRANCH   2   7
BRANCH   1  13
ATOM     13  C   UNL     1      33.807 -22.863 -16.266  0.00  0.00    +0.112 C 
BRANCH  13  16
ATOM     14  O   UNL     1      34.966 -21.953 -14.359  0.00  0.00    -0.274 OA
ATOM     15  N   UNL     1      35.441 -24.145 -15.052  0.00  0.00    -0.269 N 
ATOM     16  C   UNL     1      34.800 -22.910 -15.108  0.00  0.00    +0.232 C 
ATOM     17  H   UNL     1      35.183 -24.801 -15.739  0.00  0.00    +0.156 HD
ATOM     18  N   UNL     1      36.914 -25.812 -14.249  0.00  0.00    -0.229 NA
ATOM     19  C   UNL     1      36.421 -24.567 -14.122  0.00  0.00    +0.134 C 
ATOM     20  C   UNL     1      36.791 -23.660 -13.152  0.00  0.00    +0.034 C 
ATOM     21  C   UNL     1      37.753 -24.065 -12.234  0.00  0.00    +0.004 C 
ATOM     22  C   UNL     1      38.295 -25.343 -12.321  0.00  0.00    +0.021 C 
ATOM     23  C   UNL     1      37.845 -26.171 -13.337  0.00  0.00    +0.100 C 
ENDBRANCH  13  16
ENDBRANCH   1  13
TORSDOF 3
ENDMDL
MODEL 2
REMARK VINA RESULT:     -11.5      1.319      1.668
REMARK  Name = 100472
REMARK  3 active torsions:
REMARK  status: ('A' for Active; 'I' for Inactive)
REMARK    1  A    between atoms: C_1  and  C_13
REMARK    2  A    between atoms: C_2  and  C_7
REMARK    3  A    between atoms: C_13  and  C_16
REMARK                            x       y       z     vdW  Elec       q    Type
REMARK                         _______ _______ _______ _____ _____    ______ ____
ROOT
ATOM      1  C   UNL     1      34.378 -22.160 -16.902  0.00  0.00    -0.013 C 
ATOM      2  C   UNL     1      35.114 -20.461 -18.989  0.00  0.00    -0.000 C 
ATOM      3  C   UNL     1      33.420 -21.727 -17.819  0.00  0.00    -0.004 C 
ATOM      4  C   UNL     1      35.703 -21.744 -17.028  0.00  0.00    -0.004 C 
ATOM      5  C   UNL     1      33.788 -20.878 -18.863  0.00  0.00    -0.000 C 
ATOM      6  C   UNL     1      36.071 -20.895 -18.072  0.00  0.00    -0.000 C 
ENDROOT
BRANCH   2   7
ATOM      7  C   UNL     1      35.495 -19.580 -20.072  0.00  0.00    -0.000 C 
ATOM      8  C   UNL     1      36.774 -19.025 -20.101  0.00  0.00    -0.000 C 
ATOM      9  C   UNL     1      34.584 -19.286 -21.085  0.00  0.00    -0.000 C 
ATOM     10  C   UNL     1      37.142 -18.175 -21.145  0.00  0.00    +0.000 C 
ATOM     11  C   UNL     1      34.951 -18.437 -22.129  0.00  0.00    +0.000 C 
ATOM     12  C   UNL     1      36.231 -17.882 -22.158  0.00  0.00    +0.000 C 
ENDBRANCH   2   7
BRANCH   1  13
ATOM     13  C   UNL     1      33.985 -23.068 -15.786  0.00  0.00    +0.112 C 
BRANCH  13  16
ATOM     14  O   UNL     1      35.655 -24.760 -15.388  0.00  0.00    -0.274 OA
ATOM     15  N   UNL     1      35.569 -22.879 -13.986  0.00  0.00    -0.269 N 
ATOM     16  C   UNL     1      35.167 -23.688 -15.045  0.00  0.00    +0.232 C 
ATOM     17  H   UNL     1      35.059 -22.047 -13.855  0.00  0.00    +0.156 HD
ATOM     18  N   UNL     1      36.846 -22.196 -12.115  0.00  0.00    -0.229 NA
ATOM     19  C   UNL     1      36.625 -23.114 -13.073  0.00  0.00    +0.134 C 
ATOM     20  C   UNL     1      37.350 -24.274 -13.244  0.00  0.00    +0.034 C 
ATOM     21  C   UNL     1      38.390 -24.513 -12.354  0.00  0.00    +0.004 C 
ATOM     22  C   UNL     1      38.660 -23.595 -11.345  0.00  0.00    +0.021 C 
ATOM     23  C   UNL     1      37.866 -22.462 -11.270  0.00  0.00    +0.100 C 
ENDBRANCH  13  16
ENDBRANCH   1  13
TORSDOF 3
ENDMDL
MODEL 3
REMARK VINA RESULT:     -11.1      3.180      4.066
REMARK  Name = 100472
REMARK  3 active torsions:
REMARK  status: ('A' for Active; 'I' for Inactive)
REMARK    1  A    between atoms: C_1  and  C_13
REMARK    2  A    between atoms: C_2  and  C_7
REMARK    3  A    between atoms: C_13  and  C_16
REMARK                            x       y       z     vdW  Elec       q    Type
REMARK                         _______ _______ _______ _____ _____    ______ ____
ROOT
ATOM      1  C   UNL     1      34.884 -20.966 -18.738  0.00  0.00    -0.013 C 
ATOM      2  C   UNL     1      34.959 -19.022 -20.737  0.00  0.00    -0.000 C 
ATOM      3  C   UNL     1      36.106 -20.427 -19.142  0.00  0.00    -0.004 C 
ATOM      4  C   UNL     1      33.700 -20.532 -19.334  0.00  0.00    -0.004 C 
ATOM      5  C   UNL     1      36.143 -19.455 -20.141  0.00  0.00    -0.000 C 
ATOM      6  C   UNL     1      33.737 -19.560 -20.333  0.00  0.00    -0.000 C 
ENDROOT
BRANCH   2   7
ATOM      7  C   UNL     1      34.997 -18.014 -21.775  0.00  0.00    -0.000 C 
ATOM      8  C   UNL     1      34.556 -18.320 -23.062  0.00  0.00    -0.000 C 
ATOM      9  C   UNL     1      35.475 -16.736 -21.487  0.00  0.00    -0.000 C 
ATOM     10  C   UNL     1      34.593 -17.348 -24.061  0.00  0.00    +0.000 C 
ATOM     11  C   UNL     1      35.512 -15.763 -22.486  0.00  0.00    +0.000 C 
ATOM     12  C   UNL     1      35.070 -16.070 -23.774  0.00  0.00    +0.000 C 
ENDBRANCH   2   7
BRANCH   1  13
ATOM     13  C   UNL     1      34.844 -22.005 -17.669  0.00  0.00    +0.112 C 
BRANCH  13  16
ATOM     14  O   UNL     1      32.442 -21.819 -17.616  0.00  0.00    -0.274 OA
ATOM     15  N   UNL     1      33.550 -22.888 -15.843  0.00  0.00    -0.269 N 
ATOM     16  C   UNL     1      33.461 -22.214 -17.059  0.00  0.00    +0.232 C 
ATOM     17  H   UNL     1      34.456 -23.131 -15.546  0.00  0.00    +0.156 HD
ATOM     18  N   UNL     1      32.798 -23.913 -13.849  0.00  0.00    -0.229 NA
ATOM     19  C   UNL     1      32.489 -23.264 -14.985  0.00  0.00    +0.134 C 
ATOM     20  C   UNL     1      31.213 -22.932 -15.390  0.00  0.00    +0.034 C 
ATOM     21  C   UNL     1      30.164 -23.297 -14.554  0.00  0.00    +0.004 C 
ATOM     22  C   UNL     1      30.429 -23.971 -13.367  0.00  0.00    +0.021 C 
ATOM     23  C   UNL     1      31.751 -24.253 -13.064  0.00  0.00    +0.100 C 
ENDBRANCH  13  16
ENDBRANCH   1  13
TORSDOF 3
ENDMDL
MODEL 4
REMARK VINA RESULT:     -11.1      4.772      9.842
REMARK  Name = 100472
REMARK  3 active torsions:
REMARK  status: ('A' for Active; 'I' for Inactive)
REMARK    1  A    between atoms: C_1  and  C_13
REMARK    2  A    between atoms: C_2  and  C_7
REMARK    3  A    between atoms: C_13  and  C_16
REMARK                            x       y       z     vdW  Elec       q    Type
REMARK                         _______ _______ _______ _____ _____    ______ ____
ROOT
ATOM      1  C   UNL     1      35.310 -19.224 -20.912  0.00  0.00    -0.013 C 
ATOM      2  C   UNL     1      34.667 -20.780 -18.686  0.00  0.00    -0.000 C 
ATOM      3  C   UNL     1      33.973 -19.449 -20.580  0.00  0.00    -0.004 C 
ATOM      4  C   UNL     1      36.324 -19.777 -20.131  0.00  0.00    -0.004 C 
ATOM      5  C   UNL     1      33.652 -20.227 -19.468  0.00  0.00    -0.000 C 
ATOM      6  C   UNL     1      36.003 -20.555 -19.018  0.00  0.00    -0.000 C 
ENDROOT
BRANCH   2   7
ATOM      7  C   UNL     1      34.333 -21.587 -17.533  0.00  0.00    -0.000 C 
ATOM      8  C   UNL     1      35.321 -21.922 -16.607  0.00  0.00    -0.000 C 
ATOM      9  C   UNL     1      33.024 -22.029 -17.347  0.00  0.00    -0.000 C 
ATOM     10  C   UNL     1      35.000 -22.699 -15.494  0.00  0.00    +0.000 C 
ATOM     11  C   UNL     1      32.702 -22.807 -16.234  0.00  0.00    +0.000 C 
ATOM     12  C   UNL     1      33.691 -23.141 -15.308  0.00  0.00    +0.000 C 
ENDBRANCH   2   7
BRANCH   1  13
ATOM     13  C   UNL     1      35.653 -18.393 -22.102  0.00  0.00    +0.112 C 
BRANCH  13  16
ATOM     14  O   UNL     1      35.712 -16.337 -20.844  0.00  0.00    -0.274 OA
ATOM     15  N   UNL     1      34.880 -16.317 -23.040  0.00  0.00    -0.269 N 
ATOM     16  C   UNL     1      35.427 -16.897 -21.898  0.00  0.00    +0.232 C 
ATOM     17  H   UNL     1      34.715 -16.922 -23.799  0.00  0.00    +0.156 HD
ATOM     18  N   UNL     1      34.013 -14.608 -24.426  0.00  0.00    -0.229 NA
ATOM     19  C   UNL     1      34.533 -14.959 -23.236  0.00  0.00    +0.134 C 
ATOM     20  C   UNL     1      34.760 -14.100 -22.183  0.00  0.00    +0.034 C 
ATOM     21  C   UNL     1      34.423 -12.764 -22.366  0.00  0.00    +0.004 C 
ATOM     22  C   UNL     1      33.883 -12.348 -23.578  0.00  0.00    +0.021 C 
ATOM     23  C   UNL     1      33.700 -13.301 -24.567  0.00  0.00    +0.100 C 
ENDBRANCH  13  16
ENDBRANCH   1  13
TORSDOF 3
ENDMDL
MODEL 5
REMARK VINA RESULT:     -11.1      5.602      8.337
REMARK  Name = 100472
REMARK  3 active torsions:
REMARK  status: ('A' for Active; 'I' for Inactive)
REMARK    1  A    between atoms: C_1  and  C_13
REMARK    2  A    between atoms: C_2  and  C_7
REMARK    3  A    between atoms: C_13  and  C_16
REMARK                            x       y       z     vdW  Elec       q    Type
REMARK                         _______ _______ _______ _____ _____    ______ ____
ROOT
ATOM      1  C   UNL     1      35.036 -15.364 -22.231  0.00  0.00    -0.013 C 
ATOM      2  C   UNL     1      33.500 -13.278 -21.195  0.00  0.00    -0.000 C 
ATOM      3  C   UNL     1      34.990 -15.149 -20.853  0.00  0.00    -0.004 C 
ATOM      4  C   UNL     1      34.314 -14.536 -23.091  0.00  0.00    -0.004 C 
ATOM      5  C   UNL     1      34.222 -14.106 -20.336  0.00  0.00    -0.000 C 
ATOM      6  C   UNL     1      33.546 -13.494 -22.573  0.00  0.00    -0.000 C 
ENDROOT
BRANCH   2   7
ATOM      7  C   UNL     1      32.703 -12.196 -20.659  0.00  0.00    -0.000 C 
ATOM      8  C   UNL     1      32.248 -12.251 -19.342  0.00  0.00    -0.000 C 
ATOM      9  C   UNL     1      32.390 -11.098 -21.460  0.00  0.00    -0.000 C 
ATOM     10  C   UNL     1      31.481 -11.207 -18.824  0.00  0.00    +0.000 C 
ATOM     11  C   UNL     1      31.623 -10.053 -20.943  0.00  0.00    +0.000 C 
ATOM     12  C   UNL     1      31.169 -10.109 -19.625  0.00  0.00    +0.000 C 
ENDBRANCH   2   7
BRANCH   1  13
ATOM     13  C   UNL     1      35.857 -16.480 -22.784  0.00  0.00    +0.112 C 
BRANCH  13  16
ATOM     14  O   UNL     1      37.348 -17.797 -21.424  0.00  0.00    -0.274 OA
ATOM     15  N   UNL     1      35.038 -18.205 -21.322  0.00  0.00    -0.269 N 
ATOM     16  C   UNL     1      36.193 -17.566 -21.766  0.00  0.00    +0.232 C 
ATOM     17  H   UNL     1      34.189 -17.887 -21.707  0.00  0.00    +0.156 HD
ATOM     18  N   UNL     1      33.718 -19.735 -20.092  0.00  0.00    -0.229 NA
ATOM     19  C   UNL     1      34.942 -19.259 -20.382  0.00  0.00    +0.134 C 
ATOM     20  C   UNL     1      36.122 -19.712 -19.832  0.00  0.00    +0.034 C 
ATOM     21  C   UNL     1      36.038 -20.746 -18.907  0.00  0.00    +0.004 C 
ATOM     22  C   UNL     1      34.796 -21.274 -18.572  0.00  0.00    +0.021 C 
ATOM     23  C   UNL     1      33.677 -20.738 -19.188  0.00  0.00    +0.100 C 
ENDBRANCH  13  16
ENDBRANCH   1  13
TORSDOF 3
ENDMDL
MODEL 6
REMARK VINA RESULT:     -11.0      1.693      2.082
REMARK  Name = 100472
REMARK  3 active torsions:
REMARK  status: ('A' for Active; 'I' for Inactive)
REMARK    1  A    between atoms: C_1  and  C_13
REMARK    2  A    between atoms: C_2  and  C_7
REMARK    3  A    between atoms: C_13  and  C_16
REMARK                            x       y       z     vdW  Elec       q    Type
REMARK                         _______ _______ _______ _____ _____    ______ ____
ROOT
ATOM      1  C   UNL     1      34.370 -21.388 -18.197  0.00  0.00    -0.013 C 
ATOM      2  C   UNL     1      34.736 -19.468 -20.189  0.00  0.00    -0.000 C 
ATOM      3  C   UNL     1      35.658 -21.053 -18.615  0.00  0.00    -0.004 C 
ATOM      4  C   UNL     1      33.265 -20.763 -18.775  0.00  0.00    -0.004 C 
ATOM      5  C   UNL     1      35.841 -20.093 -19.611  0.00  0.00    -0.000 C 
ATOM      6  C   UNL     1      33.447 -19.803 -19.770  0.00  0.00    -0.000 C 
ENDROOT
BRANCH   2   7
ATOM      7  C   UNL     1      34.925 -18.473 -21.222  0.00  0.00    -0.000 C 
ATOM      8  C   UNL     1      35.455 -17.225 -20.899  0.00  0.00    -0.000 C 
ATOM      9  C   UNL     1      34.575 -18.763 -22.540  0.00  0.00    -0.000 C 
ATOM     10  C   UNL     1      35.638 -16.265 -21.895  0.00  0.00    +0.000 C 
ATOM     11  C   UNL     1      34.758 -17.804 -23.537  0.00  0.00    +0.000 C 
ATOM     12  C   UNL     1      35.290 -16.556 -23.214  0.00  0.00    +0.000 C 
ENDBRANCH   2   7
BRANCH   1  13
ATOM     13  C   UNL     1      34.175 -22.414 -17.132  0.00  0.00    +0.112 C 
BRANCH  13  16
ATOM     14  O   UNL     1      36.388 -21.991 -16.274  0.00  0.00    -0.274 OA
ATOM     15  N   UNL     1      34.752 -22.883 -14.844  0.00  0.00    -0.269 N 
ATOM     16  C   UNL     1      35.251 -22.396 -16.050  0.00  0.00    +0.232 C 
ATOM     17  H   UNL     1      33.809 -23.166 -14.846  0.00  0.00    +0.156 HD
ATOM     18  N   UNL     1      34.767 -23.517 -12.566  0.00  0.00    -0.229 NA
ATOM     19  C   UNL     1      35.443 -23.020 -13.616  0.00  0.00    +0.134 C 
ATOM     20  C   UNL     1      36.764 -22.625 -13.598  0.00  0.00    +0.034 C 
ATOM     21  C   UNL     1      37.450 -22.754 -12.396  0.00  0.00    +0.004 C 
ATOM     22  C   UNL     1      36.797 -23.263 -11.279  0.00  0.00    +0.021 C 
ATOM     23  C   UNL     1      35.467 -23.626 -11.415  0.00  0.00    +0.100 C 
ENDBRANCH  13  16
ENDBRANCH   1  13
TORSDOF 3
ENDMDL
MODEL 7
REMARK VINA RESULT:     -10.9      3.484      4.600
REMARK  Name = 100472
REMARK  3 active torsions:
REMARK  status: ('A' for Active; 'I' for Inactive)
REMARK    1  A    between atoms: C_1  and  C_13
REMARK    2  A    between atoms: C_2  and  C_7
REMARK    3  A    between atoms: C_13  and  C_16
REMARK                            x       y       z     vdW  Elec       q    Type
REMARK                         _______ _______ _______ _____ _____    ______ ____
ROOT
ATOM      1  C   UNL     1      34.508 -21.442 -18.959  0.00  0.00    -0.013 C 
ATOM      2  C   UNL     1      34.864 -19.040 -20.334  0.00  0.00    -0.000 C 
ATOM      3  C   UNL     1      33.402 -20.754 -19.460  0.00  0.00    -0.004 C 
ATOM      4  C   UNL     1      35.792 -20.928 -19.145  0.00  0.00    -0.004 C 
ATOM      5  C   UNL     1      33.580 -19.554 -20.148  0.00  0.00    -0.000 C 
ATOM      6  C   UNL     1      35.969 -19.728 -19.833  0.00  0.00    -0.000 C 
ENDROOT
BRANCH   2   7
ATOM      7  C   UNL     1      35.049 -17.795 -21.047  0.00  0.00    -0.000 C 
ATOM      8  C   UNL     1      35.131 -16.594 -20.343  0.00  0.00    -0.000 C 
ATOM      9  C   UNL     1      35.144 -17.796 -22.438  0.00  0.00    -0.000 C 
ATOM     10  C   UNL     1      35.310 -15.393 -21.029  0.00  0.00    +0.000 C 
ATOM     11  C   UNL     1      35.323 -16.595 -23.126  0.00  0.00    +0.000 C 
ATOM     12  C   UNL     1      35.406 -15.394 -22.420  0.00  0.00    +0.000 C 
ENDBRANCH   2   7
BRANCH   1  13
ATOM     13  C   UNL     1      34.318 -22.726 -18.224  0.00  0.00    +0.112 C 
BRANCH  13  16
ATOM     14  O   UNL     1      34.142 -22.583 -15.824  0.00  0.00    -0.274 OA
ATOM     15  N   UNL     1      32.194 -22.446 -17.128  0.00  0.00    -0.269 N 
ATOM     16  C   UNL     1      33.562 -22.579 -16.906  0.00  0.00    +0.232 C 
ATOM     17  H   UNL     1      31.902 -22.465 -18.069  0.00  0.00    +0.156 HD
ATOM     18  N   UNL     1      29.906 -22.177 -16.595  0.00  0.00    -0.229 NA
ATOM     19  C   UNL     1      31.174 -22.288 -16.161  0.00  0.00    +0.134 C 
ATOM     20  C   UNL     1      31.567 -22.258 -14.840  0.00  0.00    +0.034 C 
ATOM     21  C   UNL     1      30.573 -22.102 -13.881  0.00  0.00    +0.004 C 
ATOM     22  C   UNL     1      29.245 -21.983 -14.278  0.00  0.00    +0.021 C 
ATOM     23  C   UNL     1      28.967 -22.026 -15.634  0.00  0.00    +0.100 C 
ENDBRANCH  13  16
ENDBRANCH   1  13
TORSDOF 3
ENDMDL
MODEL 8
REMARK VINA RESULT:     -10.8      5.945     10.362
REMARK  Name = 100472
REMARK  3 active torsions:
REMARK  status: ('A' for Active; 'I' for Inactive)
REMARK    1  A    between atoms: C_1  and  C_13
REMARK    2  A    between atoms: C_2  and  C_7
REMARK    3  A    between atoms: C_13  and  C_16
REMARK                            x       y       z     vdW  Elec       q    Type
REMARK                         _______ _______ _______ _____ _____    ______ ____
ROOT
ATOM      1  C   UNL     1      35.151 -16.345 -22.850  0.00  0.00    -0.013 C 
ATOM      2  C   UNL     1      35.082 -18.436 -21.003  0.00  0.00    -0.000 C 
ATOM      3  C   UNL     1      35.558 -16.127 -21.533  0.00  0.00    -0.004 C 
ATOM      4  C   UNL     1      34.710 -17.609 -23.243  0.00  0.00    -0.004 C 
ATOM      5  C   UNL     1      35.523 -17.172 -20.610  0.00  0.00    -0.000 C 
ATOM      6  C   UNL     1      34.675 -18.654 -22.320  0.00  0.00    -0.000 C 
ENDROOT
BRANCH   2   7
ATOM      7  C   UNL     1      35.045 -19.520 -20.046  0.00  0.00    -0.000 C 
ATOM      8  C   UNL     1      33.825 -20.092 -19.686  0.00  0.00    -0.000 C 
ATOM      9  C   UNL     1      36.230 -19.992 -19.482  0.00  0.00    -0.000 C 
ATOM     10  C   UNL     1      33.790 -21.138 -18.764  0.00  0.00    +0.000 C 
ATOM     11  C   UNL     1      36.195 -21.038 -18.560  0.00  0.00    +0.000 C 
ATOM     12  C   UNL     1      34.975 -21.610 -18.201  0.00  0.00    +0.000 C 
ENDBRANCH   2   7
BRANCH   1  13
ATOM     13  C   UNL     1      35.189 -15.228 -23.837  0.00  0.00    +0.112 C 
BRANCH  13  16
ATOM     14  O   UNL     1      34.119 -13.101 -24.215  0.00  0.00    -0.274 OA
ATOM     15  N   UNL     1      33.943 -14.116 -22.105  0.00  0.00    -0.269 N 
ATOM     16  C   UNL     1      34.358 -14.014 -23.430  0.00  0.00    +0.232 C 
ATOM     17  H   UNL     1      34.229 -14.925 -21.621  0.00  0.00    +0.156 HD
ATOM     18  N   UNL     1      32.869 -13.489 -20.093  0.00  0.00    -0.229 NA
ATOM     19  C   UNL     1      33.158 -13.193 -21.373  0.00  0.00    +0.134 C 
ATOM     20  C   UNL     1      32.749 -12.058 -22.038  0.00  0.00    +0.034 C 
ATOM     21  C   UNL     1      31.977 -11.146 -21.328  0.00  0.00    +0.004 C 
ATOM     22  C   UNL     1      31.650 -11.404 -20.001  0.00  0.00    +0.021 C 
ATOM     23  C   UNL     1      32.116 -12.579 -19.435  0.00  0.00    +0.100 C 
ENDBRANCH  13  16
ENDBRANCH   1  13
TORSDOF 3
ENDMDL
MODEL 9
REMARK VINA RESULT:     -10.7      7.004     11.746
REMARK  Name = 100472
REMARK  3 active torsions:
REMARK  status: ('A' for Active; 'I' for Inactive)
REMARK    1  A    between atoms: C_1  and  C_13
REMARK    2  A    between atoms: C_2  and  C_7
REMARK    3  A    between atoms: C_13  and  C_16
REMARK                            x       y       z     vdW  Elec       q    Type
REMARK                         _______ _______ _______ _____ _____    ______ ____
ROOT
ATOM      1  C   UNL     1      35.116 -15.455 -22.614  0.00  0.00    -0.013 C 
ATOM      2  C   UNL     1      35.262 -17.773 -21.068  0.00  0.00    -0.000 C 
ATOM      3  C   UNL     1      35.254 -15.363 -21.229  0.00  0.00    -0.004 C 
ATOM      4  C   UNL     1      35.051 -16.707 -23.226  0.00  0.00    -0.004 C 
ATOM      5  C   UNL     1      35.327 -16.521 -20.456  0.00  0.00    -0.000 C 
ATOM      6  C   UNL     1      35.124 -17.866 -22.453  0.00  0.00    -0.000 C 
ENDROOT
BRANCH   2   7
ATOM      7  C   UNL     1      35.337 -18.976 -20.266  0.00  0.00    -0.000 C 
ATOM      8  C   UNL     1      34.173 -19.674 -19.946  0.00  0.00    -0.000 C 
ATOM      9  C   UNL     1      36.573 -19.435 -19.814  0.00  0.00    -0.000 C 
ATOM     10  C   UNL     1      34.246 -20.834 -19.174  0.00  0.00    +0.000 C 
ATOM     11  C   UNL     1      36.647 -20.595 -19.041  0.00  0.00    +0.000 C 
ATOM     12  C   UNL     1      35.482 -21.294 -18.722  0.00  0.00    +0.000 C 
ENDBRANCH   2   7
BRANCH   1  13
ATOM     13  C   UNL     1      35.038 -14.216 -23.440  0.00  0.00    +0.112 C 
BRANCH  13  16
ATOM     14  O   UNL     1      33.122 -13.449 -22.195  0.00  0.00    -0.274 OA
ATOM     15  N   UNL     1      34.517 -11.876 -23.242  0.00  0.00    -0.269 N 
ATOM     16  C   UNL     1      34.099 -13.153 -22.876  0.00  0.00    +0.232 C 
ATOM     17  H   UNL     1      35.330 -11.826 -23.796  0.00  0.00    +0.156 HD
ATOM     18  N   UNL     1      34.481  -9.515 -23.372  0.00  0.00    -0.229 NA
ATOM     19  C   UNL     1      33.909 -10.642 -22.911  0.00  0.00    +0.134 C 
ATOM     20  C   UNL     1      32.771 -10.696 -22.134  0.00  0.00    +0.034 C 
ATOM     21  C   UNL     1      32.167  -9.489 -21.803  0.00  0.00    +0.004 C 
ATOM     22  C   UNL     1      32.719  -8.294 -22.254  0.00  0.00    +0.021 C 
ATOM     23  C   UNL     1      33.866  -8.361 -23.028  0.00  0.00    +0.100 C 
ENDBRANCH  13  16
ENDBRANCH   1  13
TORSDOF 3
ENDMDL
