MODEL 1
REMARK VINA RESULT:     -12.7      0.000      0.000
REMARK  Name = 24808489
REMARK  4 active torsions:
REMARK  status: ('A' for Active; 'I' for Inactive)
REMARK    1  A    between atoms: N_1  and  C_10
REMARK    2  A    between atoms: N_1  and  C_21
REMARK    3  A    between atoms: C_18  and  C_24
REMARK    4  A    between atoms: C_24  and  N_25
REMARK                            x       y       z     vdW  Elec       q    Type
REMARK                         _______ _______ _______ _____ _____    ______ ____
ROOT
ATOM      1  N   UNL     1      34.819 -21.817 -18.269  0.00  0.00    -0.311 N 
ATOM      2  H   UNL     1      35.504 -22.521 -18.215  0.00  0.00    +0.152 HD
ENDROOT
BRANCH   1  10
ATOM      3 BR   UNL     1      28.232 -22.416 -16.217  0.00  0.00    -0.049 Br
ATOM      4  O   UNL     1      36.018 -22.484 -16.134  0.00  0.00    -0.270 OA
ATOM      5  O   UNL     1      33.727 -23.642 -12.329  0.00  0.00    -0.270 OA
ATOM      6  N   UNL     1      34.834 -23.056 -14.254  0.00  0.00    -0.248 N 
ATOM      7  C   UNL     1      33.621 -22.431 -16.260  0.00  0.00    +0.068 C 
ATOM      8  C   UNL     1      32.353 -22.649 -15.530  0.00  0.00    +0.010 C 
ATOM      9  C   UNL     1      32.396 -23.063 -14.188  0.00  0.00    +0.054 C 
ATOM     10  C   UNL     1      33.702 -22.035 -17.542  0.00  0.00    +0.066 C 
ATOM     11  C   UNL     1      34.935 -22.649 -15.577  0.00  0.00    +0.253 C 
ATOM     12  C   UNL     1      31.088 -22.462 -16.116  0.00  0.00    +0.007 C 
ATOM     13  C   UNL     1      33.688 -23.281 -13.502  0.00  0.00    +0.252 C 
ATOM     14  C   UNL     1      31.214 -23.281 -13.461  0.00  0.00    +0.005 C 
ATOM     15  C   UNL     1      29.912 -22.680 -15.391  0.00  0.00    +0.035 C 
ATOM     16  C   UNL     1      29.975 -23.089 -14.065  0.00  0.00    +0.007 C 
ATOM     17  H   UNL     1      35.689 -23.206 -13.788  0.00  0.00    +0.158 HD
ENDBRANCH   1  10
BRANCH   1  21
ATOM     18  C   UNL     1      35.762 -18.543 -20.722  0.00  0.00    -0.043 C 
ATOM     19  C   UNL     1      34.450 -19.012 -20.658  0.00  0.00    -0.005 C 
ATOM     20  C   UNL     1      36.761 -19.162 -19.972  0.00  0.00    -0.005 C 
ATOM     21  C   UNL     1      35.136 -20.719 -19.093  0.00  0.00    +0.048 C 
ATOM     22  C   UNL     1      34.137 -20.100 -19.844  0.00  0.00    +0.014 C 
ATOM     23  C   UNL     1      36.449 -20.250 -19.157  0.00  0.00    +0.014 C 
BRANCH  18  24
ATOM     24  C   UNL     1      36.097 -17.381 -21.594  0.00  0.00    -0.050 C 
BRANCH  24  25
ATOM     25  N   UNL     1      35.150 -16.285 -21.446  0.00  0.00    +0.390 N 
ATOM     26  C   UNL     1      35.256 -15.627 -20.144  0.00  0.00    -0.077 C 
ATOM     27  C   UNL     1      35.367 -15.223 -22.427  0.00  0.00    -0.077 C 
ATOM     28  C   UNL     1      34.494 -14.327 -20.355  0.00  0.00    -0.025 C 
ATOM     29  C   UNL     1      34.564 -14.063 -21.856  0.00  0.00    -0.025 C 
ATOM     30  H   UNL     1      34.239 -16.728 -21.568  0.00  0.00    -0.079 HD
ENDBRANCH  24  25
ENDBRANCH  18  24
ENDBRANCH   1  21
TORSDOF 4
ENDMDL
MODEL 2
REMARK VINA RESULT:     -12.5      1.155      1.687
REMARK  Name = 24808489
REMARK  4 active torsions:
REMARK  status: ('A' for Active; 'I' for Inactive)
REMARK    1  A    between atoms: N_1  and  C_10
REMARK    2  A    between atoms: N_1  and  C_21
REMARK    3  A    between atoms: C_18  and  C_24
REMARK    4  A    between atoms: C_24  and  N_25
REMARK                            x       y       z     vdW  Elec       q    Type
REMARK                         _______ _______ _______ _____ _____    ______ ____
ROOT
ATOM      1  N   UNL     1      34.871 -21.963 -17.998  0.00  0.00    -0.311 N 
ATOM      2  H   UNL     1      35.567 -22.657 -17.954  0.00  0.00    +0.152 HD
ENDROOT
BRANCH   1  10
ATOM      3 BR   UNL     1      28.383 -22.530 -15.642  0.00  0.00    -0.049 Br
ATOM      4  O   UNL     1      36.164 -22.635 -15.920  0.00  0.00    -0.270 OA
ATOM      5  O   UNL     1      34.046 -23.780 -12.012  0.00  0.00    -0.270 OA
ATOM      6  N   UNL     1      35.066 -23.200 -13.987  0.00  0.00    -0.248 N 
ATOM      7  C   UNL     1      33.765 -22.570 -15.935  0.00  0.00    +0.068 C 
ATOM      8  C   UNL     1      32.531 -22.782 -15.147  0.00  0.00    +0.010 C 
ATOM      9  C   UNL     1      32.633 -23.195 -13.808  0.00  0.00    +0.054 C 
ATOM     10  C   UNL     1      33.787 -22.175 -17.220  0.00  0.00    +0.066 C 
ATOM     11  C   UNL     1      35.108 -22.794 -15.313  0.00  0.00    +0.253 C 
ATOM     12  C   UNL     1      31.241 -22.589 -15.673  0.00  0.00    +0.007 C 
ATOM     13  C   UNL     1      33.956 -23.420 -13.182  0.00  0.00    +0.252 C 
ATOM     14  C   UNL     1      31.485 -23.408 -13.027  0.00  0.00    +0.005 C 
ATOM     15  C   UNL     1      30.099 -22.801 -14.895  0.00  0.00    +0.035 C 
ATOM     16  C   UNL     1      30.221 -23.209 -13.573  0.00  0.00    +0.007 C 
ATOM     17  H   UNL     1      35.941 -23.354 -13.561  0.00  0.00    +0.158 HD
ENDBRANCH   1  10
BRANCH   1  21
ATOM     18  C   UNL     1      35.669 -18.744 -20.572  0.00  0.00    -0.043 C 
ATOM     19  C   UNL     1      34.355 -19.164 -20.367  0.00  0.00    -0.005 C 
ATOM     20  C   UNL     1      36.718 -19.393 -19.921  0.00  0.00    -0.005 C 
ATOM     21  C   UNL     1      35.139 -20.883 -18.862  0.00  0.00    +0.048 C 
ATOM     22  C   UNL     1      34.090 -20.234 -19.512  0.00  0.00    +0.014 C 
ATOM     23  C   UNL     1      36.454 -20.463 -19.067  0.00  0.00    +0.014 C 
BRANCH  18  24
ATOM     24  C   UNL     1      35.952 -17.600 -21.486  0.00  0.00    -0.050 C 
BRANCH  24  25
ATOM     25  N   UNL     1      34.938 -17.452 -22.519  0.00  0.00    +0.390 N 
ATOM     26  C   UNL     1      35.197 -16.310 -23.396  0.00  0.00    -0.077 C 
ATOM     27  C   UNL     1      34.875 -18.609 -23.411  0.00  0.00    -0.077 C 
ATOM     28  C   UNL     1      34.281 -16.576 -24.582  0.00  0.00    -0.025 C 
ATOM     29  C   UNL     1      34.068 -18.087 -24.590  0.00  0.00    -0.025 C 
ATOM     30  H   UNL     1      34.069 -17.334 -21.997  0.00  0.00    -0.079 HD
ENDBRANCH  24  25
ENDBRANCH  18  24
ENDBRANCH   1  21
TORSDOF 4
ENDMDL
MODEL 3
REMARK VINA RESULT:     -12.0      2.543      3.418
REMARK  Name = 24808489
REMARK  4 active torsions:
REMARK  status: ('A' for Active; 'I' for Inactive)
REMARK    1  A    between atoms: N_1  and  C_10
REMARK    2  A    between atoms: N_1  and  C_21
REMARK    3  A    between atoms: C_18  and  C_24
REMARK    4  A    between atoms: C_24  and  N_25
REMARK                            x       y       z     vdW  Elec       q    Type
REMARK                         _______ _______ _______ _____ _____    ______ ____
ROOT
ATOM      1  N   UNL     1      33.930 -21.960 -18.077  0.00  0.00    -0.311 N 
ATOM      2  H   UNL     1      33.121 -22.436 -18.371  0.00  0.00    +0.152 HD
ENDROOT
BRANCH   1  10
ATOM      3 BR   UNL     1      38.256 -24.013 -13.072  0.00  0.00    -0.049 Br
ATOM      4  O   UNL     1      31.731 -21.988 -16.809  0.00  0.00    -0.270 OA
ATOM      5  O   UNL     1      31.497 -23.203 -12.390  0.00  0.00    -0.270 OA
ATOM      6  N   UNL     1      31.658 -22.602 -14.601  0.00  0.00    -0.248 N 
ATOM      7  C   UNL     1      33.796 -22.597 -15.747  0.00  0.00    +0.068 C 
ATOM      8  C   UNL     1      34.441 -23.046 -14.494  0.00  0.00    +0.010 C 
ATOM      9  C   UNL     1      33.650 -23.251 -13.351  0.00  0.00    +0.054 C 
ATOM     10  C   UNL     1      34.451 -22.370 -16.900  0.00  0.00    +0.066 C 
ATOM     11  C   UNL     1      32.319 -22.362 -15.797  0.00  0.00    +0.253 C 
ATOM     12  C   UNL     1      35.822 -23.283 -14.383  0.00  0.00    +0.007 C 
ATOM     13  C   UNL     1      32.188 -23.023 -13.388  0.00  0.00    +0.252 C 
ATOM     14  C   UNL     1      34.224 -23.677 -12.142  0.00  0.00    +0.005 C 
ATOM     15  C   UNL     1      36.393 -23.707 -13.179  0.00  0.00    +0.035 C 
ATOM     16  C   UNL     1      35.595 -23.904 -12.059  0.00  0.00    +0.007 C 
ATOM     17  H   UNL     1      30.685 -22.452 -14.613  0.00  0.00    +0.158 HD
ENDBRANCH   1  10
BRANCH   1  21
ATOM     18  C   UNL     1      35.299 -18.938 -20.649  0.00  0.00    -0.043 C 
ATOM     19  C   UNL     1      36.209 -19.672 -19.888  0.00  0.00    -0.005 C 
ATOM     20  C   UNL     1      33.934 -19.209 -20.556  0.00  0.00    -0.005 C 
ATOM     21  C   UNL     1      34.389 -20.946 -18.940  0.00  0.00    +0.048 C 
ATOM     22  C   UNL     1      35.754 -20.675 -19.033  0.00  0.00    +0.014 C 
ATOM     23  C   UNL     1      33.479 -20.212 -19.701  0.00  0.00    +0.014 C 
BRANCH  18  24
ATOM     24  C   UNL     1      35.785 -17.865 -21.562  0.00  0.00    -0.050 C 
BRANCH  24  25
ATOM     25  N   UNL     1      35.038 -16.625 -21.410  0.00  0.00    +0.390 N 
ATOM     26  C   UNL     1      35.312 -15.961 -20.136  0.00  0.00    -0.077 C 
ATOM     27  C   UNL     1      35.379 -15.638 -22.434  0.00  0.00    -0.077 C 
ATOM     28  C   UNL     1      34.763 -14.559 -20.357  0.00  0.00    -0.025 C 
ATOM     29  C   UNL     1      34.804 -14.348 -21.868  0.00  0.00    -0.025 C 
ATOM     30  H   UNL     1      34.062 -16.915 -21.479  0.00  0.00    -0.079 HD
ENDBRANCH  24  25
ENDBRANCH  18  24
ENDBRANCH   1  21
TORSDOF 4
ENDMDL
MODEL 4
REMARK VINA RESULT:     -11.9      2.782      3.806
REMARK  Name = 24808489
REMARK  4 active torsions:
REMARK  status: ('A' for Active; 'I' for Inactive)
REMARK    1  A    between atoms: N_1  and  C_10
REMARK    2  A    between atoms: N_1  and  C_21
REMARK    3  A    between atoms: C_18  and  C_24
REMARK    4  A    between atoms: C_24  and  N_25
REMARK                            x       y       z     vdW  Elec       q    Type
REMARK                         _______ _______ _______ _____ _____    ______ ____
ROOT
ATOM      1  N   UNL     1      34.076 -22.089 -17.990  0.00  0.00    -0.311 N 
ATOM      2  H   UNL     1      33.293 -22.594 -18.306  0.00  0.00    +0.152 HD
ENDROOT
BRANCH   1  10
ATOM      3 BR   UNL     1      38.313 -24.069 -12.881  0.00  0.00    -0.049 Br
ATOM      4  O   UNL     1      31.860 -22.067 -16.753  0.00  0.00    -0.270 OA
ATOM      5  O   UNL     1      31.554 -23.178 -12.310  0.00  0.00    -0.270 OA
ATOM      6  N   UNL     1      31.751 -22.629 -14.532  0.00  0.00    -0.248 N 
ATOM      7  C   UNL     1      33.904 -22.671 -15.649  0.00  0.00    +0.068 C 
ATOM      8  C   UNL     1      34.528 -23.097 -14.377  0.00  0.00    +0.010 C 
ATOM      9  C   UNL     1      33.719 -23.269 -13.240  0.00  0.00    +0.054 C 
ATOM     10  C   UNL     1      34.577 -22.477 -16.797  0.00  0.00    +0.066 C 
ATOM     11  C   UNL     1      32.430 -22.423 -15.724  0.00  0.00    +0.253 C 
ATOM     12  C   UNL     1      35.905 -23.345 -14.242  0.00  0.00    +0.007 C 
ATOM     13  C   UNL     1      32.260 -23.028 -13.302  0.00  0.00    +0.252 C 
ATOM     14  C   UNL     1      34.273 -23.672 -12.014  0.00  0.00    +0.005 C 
ATOM     15  C   UNL     1      36.455 -23.747 -13.020  0.00  0.00    +0.035 C 
ATOM     16  C   UNL     1      35.640 -23.910 -11.908  0.00  0.00    +0.007 C 
ATOM     17  H   UNL     1      30.780 -22.470 -14.561  0.00  0.00    +0.158 HD
ENDBRANCH   1  10
BRANCH   1  21
ATOM     18  C   UNL     1      35.411 -19.028 -20.534  0.00  0.00    -0.043 C 
ATOM     19  C   UNL     1      36.335 -19.840 -19.875  0.00  0.00    -0.005 C 
ATOM     20  C   UNL     1      34.044 -19.234 -20.348  0.00  0.00    -0.005 C 
ATOM     21  C   UNL     1      34.524 -21.062 -18.843  0.00  0.00    +0.048 C 
ATOM     22  C   UNL     1      35.891 -20.856 -19.029  0.00  0.00    +0.014 C 
ATOM     23  C   UNL     1      33.600 -20.250 -19.503  0.00  0.00    +0.014 C 
BRANCH  18  24
ATOM     24  C   UNL     1      35.886 -17.941 -21.437  0.00  0.00    -0.050 C 
BRANCH  24  25
ATOM     25  N   UNL     1      34.916 -17.616 -22.473  0.00  0.00    +0.390 N 
ATOM     26  C   UNL     1      35.272 -16.405 -23.211  0.00  0.00    -0.077 C 
ATOM     27  C   UNL     1      34.811 -18.663 -23.488  0.00  0.00    -0.077 C 
ATOM     28  C   UNL     1      34.380 -16.481 -24.442  0.00  0.00    -0.025 C 
ATOM     29  C   UNL     1      34.075 -17.965 -24.622  0.00  0.00    -0.025 C 
ATOM     30  H   UNL     1      34.040 -17.499 -21.962  0.00  0.00    -0.079 HD
ENDBRANCH  24  25
ENDBRANCH  18  24
ENDBRANCH   1  21
TORSDOF 4
ENDMDL
MODEL 5
REMARK VINA RESULT:     -11.7      3.345      4.648
REMARK  Name = 24808489
REMARK  4 active torsions:
REMARK  status: ('A' for Active; 'I' for Inactive)
REMARK    1  A    between atoms: N_1  and  C_10
REMARK    2  A    between atoms: N_1  and  C_21
REMARK    3  A    between atoms: C_18  and  C_24
REMARK    4  A    between atoms: C_24  and  N_25
REMARK                            x       y       z     vdW  Elec       q    Type
REMARK                         _______ _______ _______ _____ _____    ______ ____
ROOT
ATOM      1  N   UNL     1      34.647 -22.041 -16.691  0.00  0.00    -0.311 N 
ATOM      2  H   UNL     1      33.740 -22.122 -16.318  0.00  0.00    +0.152 HD
ENDROOT
BRANCH   1  10
ATOM      3 BR   UNL     1      40.658 -24.822 -14.669  0.00  0.00    -0.049 Br
ATOM      4  O   UNL     1      33.294 -22.296 -14.558  0.00  0.00    -0.270 OA
ATOM      5  O   UNL     1      35.064 -24.207 -10.779  0.00  0.00    -0.270 OA
ATOM      6  N   UNL     1      34.217 -23.257 -12.692  0.00  0.00    -0.248 N 
ATOM      7  C   UNL     1      35.571 -23.045 -14.693  0.00  0.00    +0.068 C 
ATOM      8  C   UNL     1      36.693 -23.682 -13.971  0.00  0.00    +0.010 C 
ATOM      9  C   UNL     1      36.514 -24.076 -12.635  0.00  0.00    +0.054 C 
ATOM     10  C   UNL     1      35.627 -22.628 -15.971  0.00  0.00    +0.066 C 
ATOM     11  C   UNL     1      34.259 -22.821 -14.008  0.00  0.00    +0.253 C 
ATOM     12  C   UNL     1      37.949 -23.918 -14.559  0.00  0.00    +0.007 C 
ATOM     13  C   UNL     1      35.222 -23.862 -11.946  0.00  0.00    +0.252 C 
ATOM     14  C   UNL     1      37.556 -24.684 -11.915  0.00  0.00    +0.005 C 
ATOM     15  C   UNL     1      38.985 -24.523 -13.841  0.00  0.00    +0.035 C 
ATOM     16  C   UNL     1      38.789 -24.906 -12.521  0.00  0.00    +0.007 C 
ATOM     17  H   UNL     1      33.362 -23.117 -12.223  0.00  0.00    +0.158 HD
ENDBRANCH   1  10
BRANCH   1  21
ATOM     18  C   UNL     1      34.945 -19.924 -20.304  0.00  0.00    -0.043 C 
ATOM     19  C   UNL     1      36.100 -20.345 -19.644  0.00  0.00    -0.005 C 
ATOM     20  C   UNL     1      33.691 -20.207 -19.763  0.00  0.00    -0.005 C 
ATOM     21  C   UNL     1      34.746 -21.330 -17.903  0.00  0.00    +0.048 C 
ATOM     22  C   UNL     1      36.000 -21.048 -18.444  0.00  0.00    +0.014 C 
ATOM     23  C   UNL     1      33.591 -20.910 -18.562  0.00  0.00    +0.014 C 
BRANCH  18  24
ATOM     24  C   UNL     1      35.051 -19.172 -21.587  0.00  0.00    -0.050 C 
BRANCH  24  25
ATOM     25  N   UNL     1      35.533 -17.813 -21.395  0.00  0.00    +0.390 N 
ATOM     26  C   UNL     1      35.305 -16.969 -22.568  0.00  0.00    -0.077 C 
ATOM     27  C   UNL     1      34.850 -17.128 -20.297  0.00  0.00    -0.077 C 
ATOM     28  C   UNL     1      35.509 -15.563 -22.022  0.00  0.00    -0.025 C 
ATOM     29  C   UNL     1      35.212 -15.669 -20.529  0.00  0.00    -0.025 C 
ATOM     30  H   UNL     1      36.528 -17.928 -21.204  0.00  0.00    -0.079 HD
ENDBRANCH  24  25
ENDBRANCH  18  24
ENDBRANCH   1  21
TORSDOF 4
ENDMDL
MODEL 6
REMARK VINA RESULT:     -11.5      8.557     13.220
REMARK  Name = 24808489
REMARK  4 active torsions:
REMARK  status: ('A' for Active; 'I' for Inactive)
REMARK    1  A    between atoms: N_1  and  C_10
REMARK    2  A    between atoms: N_1  and  C_21
REMARK    3  A    between atoms: C_18  and  C_24
REMARK    4  A    between atoms: C_24  and  N_25
REMARK                            x       y       z     vdW  Elec       q    Type
REMARK                         _______ _______ _______ _____ _____    ______ ____
ROOT
ATOM      1  N   UNL     1      31.951 -10.890 -21.125  0.00  0.00    -0.311 N 
ATOM      2  H   UNL     1      31.221 -11.151 -20.519  0.00  0.00    +0.152 HD
ENDROOT
BRANCH   1  10
ATOM      3 BR   UNL     1      31.845  -4.992 -24.753  0.00  0.00    -0.049 Br
ATOM      4  O   UNL     1      32.223  -9.968 -18.776  0.00  0.00    -0.270 OA
ATOM      5  O   UNL     1      32.505  -5.460 -17.959  0.00  0.00    -0.270 OA
ATOM      6  N   UNL     1      32.360  -7.708 -18.412  0.00  0.00    -0.248 N 
ATOM      7  C   UNL     1      32.098  -8.516 -20.684  0.00  0.00    +0.068 C 
ATOM      8  C   UNL     1      32.112  -7.115 -21.157  0.00  0.00    +0.010 C 
ATOM      9  C   UNL     1      32.251  -6.076 -20.222  0.00  0.00    +0.054 C 
ATOM     10  C   UNL     1      31.972  -9.589 -21.486  0.00  0.00    +0.066 C 
ATOM     11  C   UNL     1      32.229  -8.824 -19.225  0.00  0.00    +0.253 C 
ATOM     12  C   UNL     1      31.992  -6.762 -22.513  0.00  0.00    +0.007 C 
ATOM     13  C   UNL     1      32.382  -6.367 -18.777  0.00  0.00    +0.252 C 
ATOM     14  C   UNL     1      32.268  -4.732 -20.632  0.00  0.00    +0.005 C 
ATOM     15  C   UNL     1      32.009  -5.424 -22.920  0.00  0.00    +0.035 C 
ATOM     16  C   UNL     1      32.147  -4.410 -21.980  0.00  0.00    +0.007 C 
ATOM     17  H   UNL     1      32.446  -7.890 -17.448  0.00  0.00    +0.158 HD
ENDBRANCH   1  10
BRANCH   1  21
ATOM     18  C   UNL     1      34.580 -13.969 -22.236  0.00  0.00    -0.043 C 
ATOM     19  C   UNL     1      34.262 -12.960 -23.146  0.00  0.00    -0.005 C 
ATOM     20  C   UNL     1      34.024 -13.954 -20.957  0.00  0.00    -0.005 C 
ATOM     21  C   UNL     1      32.832 -11.923 -21.497  0.00  0.00    +0.048 C 
ATOM     22  C   UNL     1      33.388 -11.938 -22.776  0.00  0.00    +0.014 C 
ATOM     23  C   UNL     1      33.150 -12.932 -20.587  0.00  0.00    +0.014 C 
BRANCH  18  24
ATOM     24  C   UNL     1      35.513 -15.062 -22.631  0.00  0.00    -0.050 C 
BRANCH  24  25
ATOM     25  N   UNL     1      34.825 -16.323 -22.862  0.00  0.00    +0.390 N 
ATOM     26  C   UNL     1      34.487 -16.525 -24.271  0.00  0.00    -0.077 C 
ATOM     27  C   UNL     1      35.642 -17.480 -22.498  0.00  0.00    -0.077 C 
ATOM     28  C   UNL     1      34.155 -18.009 -24.333  0.00  0.00    -0.025 C 
ATOM     29  C   UNL     1      34.912 -18.636 -23.166  0.00  0.00    -0.025 C 
ATOM     30  H   UNL     1      33.988 -16.258 -22.282  0.00  0.00    -0.079 HD
ENDBRANCH  24  25
ENDBRANCH  18  24
ENDBRANCH   1  21
TORSDOF 4
ENDMDL
MODEL 7
REMARK VINA RESULT:     -11.3      2.479      3.119
REMARK  Name = 24808489
REMARK  4 active torsions:
REMARK  status: ('A' for Active; 'I' for Inactive)
REMARK    1  A    between atoms: N_1  and  C_10
REMARK    2  A    between atoms: N_1  and  C_21
REMARK    3  A    between atoms: C_18  and  C_24
REMARK    4  A    between atoms: C_24  and  N_25
REMARK                            x       y       z     vdW  Elec       q    Type
REMARK                         _______ _______ _______ _____ _____    ______ ____
ROOT
ATOM      1  N   UNL     1      35.062 -21.677 -18.823  0.00  0.00    -0.311 N 
ATOM      2  H   UNL     1      34.730 -22.386 -19.418  0.00  0.00    +0.152 HD
ENDROOT
BRANCH   1  10
ATOM      3 BR   UNL     1      37.584 -23.310 -12.582  0.00  0.00    -0.049 Br
ATOM      4  O   UNL     1      32.572 -21.808 -18.349  0.00  0.00    -0.270 OA
ATOM      5  O   UNL     1      30.949 -22.909 -14.200  0.00  0.00    -0.270 OA
ATOM      6  N   UNL     1      31.803 -22.362 -16.261  0.00  0.00    -0.248 N 
ATOM      7  C   UNL     1      34.196 -22.255 -16.639  0.00  0.00    +0.068 C 
ATOM      8  C   UNL     1      34.411 -22.626 -15.223  0.00  0.00    +0.010 C 
ATOM      9  C   UNL     1      33.298 -22.849 -14.396  0.00  0.00    +0.054 C 
ATOM     10  C   UNL     1      35.184 -22.020 -17.521  0.00  0.00    +0.066 C 
ATOM     11  C   UNL     1      32.809 -22.115 -17.183  0.00  0.00    +0.253 C 
ATOM     12  C   UNL     1      35.689 -22.772 -14.653  0.00  0.00    +0.007 C 
ATOM     13  C   UNL     1      31.921 -22.715 -14.922  0.00  0.00    +0.252 C 
ATOM     14  C   UNL     1      33.461 -23.202 -13.046  0.00  0.00    +0.005 C 
ATOM     15  C   UNL     1      35.849 -23.125 -13.310  0.00  0.00    +0.035 C 
ATOM     16  C   UNL     1      34.736 -23.340 -12.507  0.00  0.00    +0.007 C 
ATOM     17  H   UNL     1      30.882 -22.274 -16.600  0.00  0.00    +0.158 HD
ENDBRANCH   1  10
BRANCH   1  21
ATOM     18  C   UNL     1      35.910 -18.002 -20.665  0.00  0.00    -0.043 C 
ATOM     19  C   UNL     1      34.603 -18.491 -20.651  0.00  0.00    -0.005 C 
ATOM     20  C   UNL     1      36.934 -18.734 -20.066  0.00  0.00    -0.005 C 
ATOM     21  C   UNL     1      35.347 -20.445 -19.441  0.00  0.00    +0.048 C 
ATOM     22  C   UNL     1      34.322 -19.712 -20.040  0.00  0.00    +0.014 C 
ATOM     23  C   UNL     1      36.653 -19.956 -19.454  0.00  0.00    +0.014 C 
BRANCH  18  24
ATOM     24  C   UNL     1      36.210 -16.696 -21.319  0.00  0.00    -0.050 C 
BRANCH  24  25
ATOM     25  N   UNL     1      35.070 -15.791 -21.301  0.00  0.00    +0.390 N 
ATOM     26  C   UNL     1      35.004 -15.001 -20.072  0.00  0.00    -0.077 C 
ATOM     27  C   UNL     1      35.121 -14.808 -22.382  0.00  0.00    -0.077 C 
ATOM     28  C   UNL     1      34.021 -13.896 -20.429  0.00  0.00    -0.025 C 
ATOM     29  C   UNL     1      34.096 -13.771 -21.947  0.00  0.00    -0.025 C 
ATOM     30  H   UNL     1      34.263 -16.408 -21.393  0.00  0.00    -0.079 HD
ENDBRANCH  24  25
ENDBRANCH  18  24
ENDBRANCH   1  21
TORSDOF 4
ENDMDL
MODEL 8
REMARK VINA RESULT:     -10.9      3.947      9.708
REMARK  Name = 24808489
REMARK  4 active torsions:
REMARK  status: ('A' for Active; 'I' for Inactive)
REMARK    1  A    between atoms: N_1  and  C_10
REMARK    2  A    between atoms: N_1  and  C_21
REMARK    3  A    between atoms: C_18  and  C_24
REMARK    4  A    between atoms: C_24  and  N_25
REMARK                            x       y       z     vdW  Elec       q    Type
REMARK                         _______ _______ _______ _____ _____    ______ ____
ROOT
ATOM      1  N   UNL     1      36.005 -17.918 -20.481  0.00  0.00    -0.311 N 
ATOM      2  H   UNL     1      36.940 -17.983 -20.780  0.00  0.00    +0.152 HD
ENDROOT
BRANCH   1  10
ATOM      3 BR   UNL     1      32.831 -11.798 -19.815  0.00  0.00    -0.049 Br
ATOM      4  O   UNL     1      36.107 -18.098 -23.011  0.00  0.00    -0.270 OA
ATOM      5  O   UNL     1      34.412 -14.823 -25.744  0.00  0.00    -0.270 OA
ATOM      6  N   UNL     1      35.248 -16.438 -24.341  0.00  0.00    -0.248 N 
ATOM      7  C   UNL     1      35.116 -16.197 -21.931  0.00  0.00    +0.068 C 
ATOM      8  C   UNL     1      34.442 -14.895 -22.123  0.00  0.00    +0.010 C 
ATOM      9  C   UNL     1      34.204 -14.431 -23.428  0.00  0.00    +0.054 C 
ATOM     10  C   UNL     1      35.394 -16.739 -20.732  0.00  0.00    +0.066 C 
ATOM     11  C   UNL     1      35.543 -17.011 -23.112  0.00  0.00    +0.253 C 
ATOM     12  C   UNL     1      34.018 -14.084 -21.055  0.00  0.00    +0.007 C 
ATOM     13  C   UNL     1      34.620 -15.227 -24.604  0.00  0.00    +0.252 C 
ATOM     14  C   UNL     1      33.567 -13.200 -23.652  0.00  0.00    +0.005 C 
ATOM     15  C   UNL     1      33.384 -12.858 -21.280  0.00  0.00    +0.035 C 
ATOM     16  C   UNL     1      33.158 -12.417 -22.577  0.00  0.00    +0.007 C 
ATOM     17  H   UNL     1      35.522 -16.959 -25.131  0.00  0.00    +0.158 HD
ENDBRANCH   1  10
BRANCH   1  21
ATOM     18  C   UNL     1      34.454 -21.337 -18.602  0.00  0.00    -0.043 C 
ATOM     19  C   UNL     1      35.815 -21.044 -18.506  0.00  0.00    -0.005 C 
ATOM     20  C   UNL     1      33.609 -20.493 -19.323  0.00  0.00    -0.005 C 
ATOM     21  C   UNL     1      35.484 -19.065 -19.852  0.00  0.00    +0.048 C 
ATOM     22  C   UNL     1      36.330 -19.908 -19.131  0.00  0.00    +0.014 C 
ATOM     23  C   UNL     1      34.124 -19.358 -19.948  0.00  0.00    +0.014 C 
BRANCH  18  24
ATOM     24  C   UNL     1      33.904 -22.551 -17.935  0.00  0.00    -0.050 C 
BRANCH  24  25
ATOM     25  N   UNL     1      33.549 -22.308 -16.545  0.00  0.00    +0.390 N 
ATOM     26  C   UNL     1      32.152 -22.634 -16.260  0.00  0.00    -0.077 C 
ATOM     27  C   UNL     1      34.328 -23.129 -15.618  0.00  0.00    -0.077 C 
ATOM     28  C   UNL     1      32.117 -22.684 -14.739  0.00  0.00    -0.025 C 
ATOM     29  C   UNL     1      33.547 -23.007 -14.318  0.00  0.00    -0.025 C 
ATOM     30  H   UNL     1      33.736 -21.314 -16.413  0.00  0.00    -0.079 HD
ENDBRANCH  24  25
ENDBRANCH  18  24
ENDBRANCH   1  21
TORSDOF 4
ENDMDL
MODEL 9
REMARK VINA RESULT:     -10.5      6.503     12.196
REMARK  Name = 24808489
REMARK  4 active torsions:
REMARK  status: ('A' for Active; 'I' for Inactive)
REMARK    1  A    between atoms: N_1  and  C_10
REMARK    2  A    between atoms: N_1  and  C_21
REMARK    3  A    between atoms: C_18  and  C_24
REMARK    4  A    between atoms: C_24  and  N_25
REMARK                            x       y       z     vdW  Elec       q    Type
REMARK                         _______ _______ _______ _____ _____    ______ ____
ROOT
ATOM      1  N   UNL     1      33.369 -13.398 -22.431  0.00  0.00    -0.311 N 
ATOM      2  H   UNL     1      32.398 -13.520 -22.329  0.00  0.00    +0.152 HD
ENDROOT
BRANCH   1  10
ATOM      3 BR   UNL     1      36.403  -8.349 -26.074  0.00  0.00    -0.049 Br
ATOM      4  O   UNL     1      31.976 -12.015 -20.821  0.00  0.00    -0.270 OA
ATOM      5  O   UNL     1      32.001  -7.426 -20.919  0.00  0.00    -0.270 OA
ATOM      6  N   UNL     1      32.017  -9.724 -20.904  0.00  0.00    -0.248 N 
ATOM      7  C   UNL     1      33.374 -10.979 -22.475  0.00  0.00    +0.068 C 
ATOM      8  C   UNL     1      33.846  -9.701 -23.050  0.00  0.00    +0.010 C 
ATOM      9  C   UNL     1      33.374  -8.491 -22.514  0.00  0.00    +0.054 C 
ATOM     10  C   UNL     1      33.757 -12.194 -22.906  0.00  0.00    +0.066 C 
ATOM     11  C   UNL     1      32.402 -10.984 -21.336  0.00  0.00    +0.253 C 
ATOM     12  C   UNL     1      34.756  -9.630 -24.120  0.00  0.00    +0.007 C 
ATOM     13  C   UNL     1      32.414  -8.483 -21.388  0.00  0.00    +0.252 C 
ATOM     14  C   UNL     1      33.798  -7.256 -23.033  0.00  0.00    +0.005 C 
ATOM     15  C   UNL     1      35.178  -8.400 -24.635  0.00  0.00    +0.035 C 
ATOM     16  C   UNL     1      34.700  -7.215 -24.092  0.00  0.00    +0.007 C 
ATOM     17  H   UNL     1      31.377  -9.706 -20.156  0.00  0.00    +0.158 HD
ENDBRANCH   1  10
BRANCH   1  21
ATOM     18  C   UNL     1      35.743 -16.680 -21.330  0.00  0.00    -0.043 C 
ATOM     19  C   UNL     1      35.466 -16.439 -22.676  0.00  0.00    -0.005 C 
ATOM     20  C   UNL     1      35.230 -15.831 -20.350  0.00  0.00    -0.005 C 
ATOM     21  C   UNL     1      34.164 -14.499 -22.061  0.00  0.00    +0.048 C 
ATOM     22  C   UNL     1      34.677 -15.348 -23.041  0.00  0.00    +0.014 C 
ATOM     23  C   UNL     1      34.441 -14.741 -20.715  0.00  0.00    +0.014 C 
BRANCH  18  24
ATOM     24  C   UNL     1      36.586 -17.847 -20.940  0.00  0.00    -0.050 C 
BRANCH  24  25
ATOM     25  N   UNL     1      35.938 -18.693 -19.949  0.00  0.00    +0.390 N 
ATOM     26  C   UNL     1      34.672 -19.247 -20.429  0.00  0.00    -0.077 C 
ATOM     27  C   UNL     1      36.750 -19.855 -19.591  0.00  0.00    -0.077 C 
ATOM     28  C   UNL     1      34.389 -20.362 -19.434  0.00  0.00    -0.025 C 
ATOM     29  C   UNL     1      35.754 -20.760 -18.881  0.00  0.00    -0.025 C 
ATOM     30  H   UNL     1      35.797 -18.074 -19.150  0.00  0.00    -0.079 HD
ENDBRANCH  24  25
ENDBRANCH  18  24
ENDBRANCH   1  21
TORSDOF 4
ENDMDL
