MODEL 1
REMARK VINA RESULT:     -12.2      0.000      0.000
REMARK  Name = 11840906
REMARK  7 active torsions:
REMARK  status: ('A' for Active; 'I' for Inactive)
REMARK    1  A    between atoms: O_1  and  C_3
REMARK    2  A    between atoms: O_1  and  C_18
REMARK    3  A    between atoms: C_5  and  C_9
REMARK    4  A    between atoms: C_18  and  C_19
REMARK    5  A    between atoms: C_19  and  N_20
REMARK    6  A    between atoms: C_19  and  C_24
REMARK    7  A    between atoms: C_24  and  C_26
REMARK                            x       y       z     vdW  Elec       q    Type
REMARK                         _______ _______ _______ _____ _____    ______ ____
ROOT
ATOM      1  O   UNL     1      34.634 -13.543 -23.257  0.00  0.00    -0.476 OA
ENDROOT
BRANCH   1   3
ATOM      2  N   UNL     1      34.267 -16.771 -24.910  0.00  0.00    -0.239 NA
ATOM      3  C   UNL     1      34.640 -14.901 -23.444  0.00  0.00    +0.158 C 
ATOM      4  C   UNL     1      35.006 -15.750 -22.415  0.00  0.00    +0.040 C 
ATOM      5  C   UNL     1      35.002 -17.123 -22.634  0.00  0.00    +0.022 C 
ATOM      6  C   UNL     1      34.282 -15.443 -24.660  0.00  0.00    +0.136 C 
ATOM      7  C   UNL     1      34.628 -17.578 -23.888  0.00  0.00    +0.099 C 
BRANCH   5   9
ATOM      8  N   UNL     1      35.514 -21.568 -17.953  0.00  0.00    -0.242 NA
ATOM      9  C   UNL     1      35.376 -18.045 -21.587  0.00  0.00    +0.002 C 
ATOM     10  C   UNL     1      34.762 -19.781 -19.994  0.00  0.00    +0.003 C 
ATOM     11  C   UNL     1      34.413 -18.881 -21.014  0.00  0.00    +0.000 C 
ATOM     12  C   UNL     1      36.099 -19.833 -19.552  0.00  0.00    +0.019 C 
ATOM     13  C   UNL     1      36.697 -18.100 -21.145  0.00  0.00    +0.000 C 
ATOM     14  C   UNL     1      37.060 -18.989 -20.133  0.00  0.00    +0.002 C 
ATOM     15  C   UNL     1      33.820 -20.631 -19.402  0.00  0.00    +0.021 C 
ATOM     16  C   UNL     1      36.409 -20.740 -18.537  0.00  0.00    +0.099 C 
ATOM     17  C   UNL     1      34.243 -21.492 -18.402  0.00  0.00    +0.099 C 
ENDBRANCH   5   9
ENDBRANCH   1   3
BRANCH   1  18
ATOM     18  C   UNL     1      33.800 -12.782 -24.122  0.00  0.00    +0.184 C 
BRANCH  18  19
ATOM     19  C   UNL     1      34.390 -11.381 -24.311  0.00  0.00    -0.021 C 
BRANCH  19  20
ATOM     20  N   UNL     1      33.767 -10.766 -25.484  0.00  0.00    +0.384 N 
ATOM     21  H   UNL     1      33.119 -11.428 -25.911  0.00  0.00    -0.089 HD
ATOM     22  H   UNL     1      34.489 -10.513 -26.159  0.00  0.00    -0.089 HD
ATOM     23  H   UNL     1      33.259  -9.928 -25.200  0.00  0.00    -0.089 HD
ENDBRANCH  19  20
BRANCH  19  24
ATOM     24  C   UNL     1      34.186 -10.508 -23.054  0.00  0.00    -0.012 C 
BRANCH  24  26
ATOM     25  N   UNL     1      31.998  -8.500 -21.287  0.00  0.00    -0.270 NA
ATOM     26  C   UNL     1      32.731 -10.298 -22.681  0.00  0.00    +0.046 C 
ATOM     27  C   UNL     1      32.373 -10.800 -21.320  0.00  0.00    -0.007 C 
ATOM     28  C   UNL     1      32.430  -8.818 -22.469  0.00  0.00    +0.130 C 
ATOM     29  C   UNL     1      31.950  -9.702 -20.559  0.00  0.00    +0.071 C 
ATOM     30  C   UNL     1      32.400 -12.078 -20.796  0.00  0.00    -0.024 C 
ATOM     31  C   UNL     1      31.549  -9.864 -19.244  0.00  0.00    +0.014 C 
ATOM     32  C   UNL     1      31.997 -12.249 -19.470  0.00  0.00    +0.052 C 
ATOM     33  C   UNL     1      31.576 -11.152 -18.701  0.00  0.00    -0.020 C 
ENDBRANCH  24  26
ENDBRANCH  19  24
ENDBRANCH  18  19
ENDBRANCH   1  18
TORSDOF 7
ENDMDL
MODEL 2
REMARK VINA RESULT:     -12.2      4.505     11.185
REMARK  Name = 11840906
REMARK  7 active torsions:
REMARK  status: ('A' for Active; 'I' for Inactive)
REMARK    1  A    between atoms: O_1  and  C_3
REMARK    2  A    between atoms: O_1  and  C_18
REMARK    3  A    between atoms: C_5  and  C_9
REMARK    4  A    between atoms: C_18  and  C_19
REMARK    5  A    between atoms: C_19  and  N_20
REMARK    6  A    between atoms: C_19  and  C_24
REMARK    7  A    between atoms: C_24  and  C_26
REMARK                            x       y       z     vdW  Elec       q    Type
REMARK                         _______ _______ _______ _____ _____    ______ ____
ROOT
ATOM      1  O   UNL     1      33.325 -21.589 -18.066  0.00  0.00    -0.476 OA
ENDROOT
BRANCH   1   3
ATOM      2  N   UNL     1      36.812 -20.754 -18.723  0.00  0.00    -0.239 NA
ATOM      3  C   UNL     1      34.419 -20.975 -18.619  0.00  0.00    +0.158 C 
ATOM      4  C   UNL     1      34.263 -20.000 -19.587  0.00  0.00    +0.040 C 
ATOM      5  C   UNL     1      35.391 -19.394 -20.129  0.00  0.00    +0.022 C 
ATOM      6  C   UNL     1      35.692 -21.320 -18.219  0.00  0.00    +0.136 C 
ATOM      7  C   UNL     1      36.631 -19.803 -19.667  0.00  0.00    +0.099 C 
BRANCH   5   9
ATOM      8  N   UNL     1      34.305 -15.663 -25.309  0.00  0.00    -0.242 NA
ATOM      9  C   UNL     1      35.273 -18.371 -21.142  0.00  0.00    +0.002 C 
ATOM     10  C   UNL     1      34.522 -17.673 -23.350  0.00  0.00    +0.003 C 
ATOM     11  C   UNL     1      34.643 -18.658 -22.356  0.00  0.00    +0.000 C 
ATOM     12  C   UNL     1      35.045 -16.387 -23.109  0.00  0.00    +0.019 C 
ATOM     13  C   UNL     1      35.789 -17.097 -20.909  0.00  0.00    +0.000 C 
ATOM     14  C   UNL     1      35.677 -16.107 -21.886  0.00  0.00    +0.002 C 
ATOM     15  C   UNL     1      33.895 -17.931 -24.576  0.00  0.00    +0.021 C 
ATOM     16  C   UNL     1      34.905 -15.433 -24.120  0.00  0.00    +0.099 C 
ATOM     17  C   UNL     1      33.815 -16.906 -25.505  0.00  0.00    +0.099 C 
ENDBRANCH   5   9
ENDBRANCH   1   3
BRANCH   1  18
ATOM     18  C   UNL     1      33.564 -22.786 -17.337  0.00  0.00    +0.184 C 
BRANCH  18  19
ATOM     19  C   UNL     1      33.490 -22.501 -15.833  0.00  0.00    -0.021 C 
BRANCH  19  20
ATOM     20  N   UNL     1      32.147 -22.836 -15.359  0.00  0.00    +0.384 N 
ATOM     21  H   UNL     1      31.827 -22.118 -14.708  0.00  0.00    -0.089 HD
ATOM     22  H   UNL     1      32.168 -23.739 -14.886  0.00  0.00    -0.089 HD
ATOM     23  H   UNL     1      31.508 -22.883 -16.153  0.00  0.00    -0.089 HD
ENDBRANCH  19  20
BRANCH  19  24
ATOM     24  C   UNL     1      34.564 -23.291 -15.056  0.00  0.00    -0.012 C 
BRANCH  24  26
ATOM     25  N   UNL     1      37.912 -22.623 -14.512  0.00  0.00    -0.270 NA
ATOM     26  C   UNL     1      35.540 -22.415 -14.293  0.00  0.00    +0.046 C 
ATOM     27  C   UNL     1      36.126 -23.067 -13.083  0.00  0.00    -0.007 C 
ATOM     28  C   UNL     1      36.825 -22.208 -15.089  0.00  0.00    +0.130 C 
ATOM     29  C   UNL     1      37.510 -23.154 -13.274  0.00  0.00    +0.071 C 
ATOM     30  C   UNL     1      35.522 -23.529 -11.929  0.00  0.00    -0.024 C 
ATOM     31  C   UNL     1      38.325 -23.716 -12.305  0.00  0.00    +0.014 C 
ATOM     32  C   UNL     1      36.338 -24.097 -10.948  0.00  0.00    +0.052 C 
ATOM     33  C   UNL     1      37.727 -24.191 -11.135  0.00  0.00    -0.020 C 
ENDBRANCH  24  26
ENDBRANCH  19  24
ENDBRANCH  18  19
ENDBRANCH   1  18
TORSDOF 7
ENDMDL
MODEL 3
REMARK VINA RESULT:     -12.0      4.568     11.594
REMARK  Name = 11840906
REMARK  7 active torsions:
REMARK  status: ('A' for Active; 'I' for Inactive)
REMARK    1  A    between atoms: O_1  and  C_3
REMARK    2  A    between atoms: O_1  and  C_18
REMARK    3  A    between atoms: C_5  and  C_9
REMARK    4  A    between atoms: C_18  and  C_19
REMARK    5  A    between atoms: C_19  and  N_20
REMARK    6  A    between atoms: C_19  and  C_24
REMARK    7  A    between atoms: C_24  and  C_26
REMARK                            x       y       z     vdW  Elec       q    Type
REMARK                         _______ _______ _______ _____ _____    ______ ____
ROOT
ATOM      1  O   UNL     1      33.331 -21.760 -17.934  0.00  0.00    -0.476 OA
ENDROOT
BRANCH   1   3
ATOM      2  N   UNL     1      36.822 -20.882 -18.511  0.00  0.00    -0.239 NA
ATOM      3  C   UNL     1      34.430 -21.131 -18.461  0.00  0.00    +0.158 C 
ATOM      4  C   UNL     1      34.283 -20.156 -19.431  0.00  0.00    +0.040 C 
ATOM      5  C   UNL     1      35.416 -19.537 -19.947  0.00  0.00    +0.022 C 
ATOM      6  C   UNL     1      35.698 -21.462 -18.034  0.00  0.00    +0.136 C 
ATOM      7  C   UNL     1      36.650 -19.932 -19.458  0.00  0.00    +0.099 C 
BRANCH   5   9
ATOM      8  N   UNL     1      34.406 -15.811 -25.147  0.00  0.00    -0.242 NA
ATOM      9  C   UNL     1      35.308 -18.514 -20.960  0.00  0.00    +0.002 C 
ATOM     10  C   UNL     1      34.604 -17.822 -23.186  0.00  0.00    +0.003 C 
ATOM     11  C   UNL     1      34.714 -18.807 -22.191  0.00  0.00    +0.000 C 
ATOM     12  C   UNL     1      35.100 -16.528 -22.929  0.00  0.00    +0.019 C 
ATOM     13  C   UNL     1      35.798 -17.232 -20.712  0.00  0.00    +0.000 C 
ATOM     14  C   UNL     1      35.696 -16.242 -21.690  0.00  0.00    +0.002 C 
ATOM     15  C   UNL     1      34.013 -18.087 -24.428  0.00  0.00    +0.021 C 
ATOM     16  C   UNL     1      34.972 -15.575 -23.941  0.00  0.00    +0.099 C 
ATOM     17  C   UNL     1      33.941 -17.061 -25.357  0.00  0.00    +0.099 C 
ENDBRANCH   5   9
ENDBRANCH   1   3
BRANCH   1  18
ATOM     18  C   UNL     1      33.577 -22.870 -17.081  0.00  0.00    +0.184 C 
BRANCH  18  19
ATOM     19  C   UNL     1      33.302 -22.479 -15.626  0.00  0.00    -0.021 C 
BRANCH  19  20
ATOM     20  N   UNL     1      32.249 -23.347 -15.099  0.00  0.00    +0.384 N 
ATOM     21  H   UNL     1      31.336 -22.953 -15.329  0.00  0.00    -0.089 HD
ATOM     22  H   UNL     1      32.342 -23.418 -14.085  0.00  0.00    -0.089 HD
ATOM     23  H   UNL     1      32.333 -24.275 -15.514  0.00  0.00    -0.089 HD
ENDBRANCH  19  20
BRANCH  19  24
ATOM     24  C   UNL     1      34.580 -22.573 -14.765  0.00  0.00    -0.012 C 
BRANCH  24  26
ATOM     25  N   UNL     1      35.200 -23.704 -11.558  0.00  0.00    -0.270 NA
ATOM     26  C   UNL     1      34.636 -23.804 -13.880  0.00  0.00    +0.046 C 
ATOM     27  C   UNL     1      36.017 -24.327 -13.650  0.00  0.00    -0.007 C 
ATOM     28  C   UNL     1      34.278 -23.455 -12.438  0.00  0.00    +0.130 C 
ATOM     29  C   UNL     1      36.281 -24.245 -12.277  0.00  0.00    +0.071 C 
ATOM     30  C   UNL     1      36.946 -24.833 -14.539  0.00  0.00    -0.024 C 
ATOM     31  C   UNL     1      37.495 -24.666 -11.763  0.00  0.00    +0.014 C 
ATOM     32  C   UNL     1      38.173 -25.259 -14.027  0.00  0.00    +0.052 C 
ATOM     33  C   UNL     1      38.446 -25.176 -12.652  0.00  0.00    -0.020 C 
ENDBRANCH  24  26
ENDBRANCH  19  24
ENDBRANCH  18  19
ENDBRANCH   1  18
TORSDOF 7
ENDMDL
MODEL 4
REMARK VINA RESULT:     -12.0      1.820      2.525
REMARK  Name = 11840906
REMARK  7 active torsions:
REMARK  status: ('A' for Active; 'I' for Inactive)
REMARK    1  A    between atoms: O_1  and  C_3
REMARK    2  A    between atoms: O_1  and  C_18
REMARK    3  A    between atoms: C_5  and  C_9
REMARK    4  A    between atoms: C_18  and  C_19
REMARK    5  A    between atoms: C_19  and  N_20
REMARK    6  A    between atoms: C_19  and  C_24
REMARK    7  A    between atoms: C_24  and  C_26
REMARK                            x       y       z     vdW  Elec       q    Type
REMARK                         _______ _______ _______ _____ _____    ______ ____
ROOT
ATOM      1  O   UNL     1      35.601 -14.661 -22.793  0.00  0.00    -0.476 OA
ENDROOT
BRANCH   1   3
ATOM      2  N   UNL     1      34.437 -17.840 -24.143  0.00  0.00    -0.239 NA
ATOM      3  C   UNL     1      35.283 -15.993 -22.856  0.00  0.00    +0.158 C 
ATOM      4  C   UNL     1      35.473 -16.812 -21.758  0.00  0.00    +0.040 C 
ATOM      5  C   UNL     1      35.141 -18.160 -21.852  0.00  0.00    +0.022 C 
ATOM      6  C   UNL     1      34.771 -16.537 -24.014  0.00  0.00    +0.136 C 
ATOM      7  C   UNL     1      34.631 -18.619 -23.055  0.00  0.00    +0.099 C 
BRANCH   5   9
ATOM      8  N   UNL     1      34.759 -22.301 -16.888  0.00  0.00    -0.242 NA
ATOM      9  C   UNL     1      35.322 -19.050 -20.730  0.00  0.00    +0.002 C 
ATOM     10  C   UNL     1      34.381 -20.570 -19.077  0.00  0.00    +0.003 C 
ATOM     11  C   UNL     1      34.221 -19.702 -20.169  0.00  0.00    +0.000 C 
ATOM     12  C   UNL     1      35.672 -20.778 -18.549  0.00  0.00    +0.019 C 
ATOM     13  C   UNL     1      36.596 -19.259 -20.204  0.00  0.00    +0.000 C 
ATOM     14  C   UNL     1      36.774 -20.118 -19.119  0.00  0.00    +0.002 C 
ATOM     15  C   UNL     1      33.296 -21.237 -18.495  0.00  0.00    +0.021 C 
ATOM     16  C   UNL     1      35.793 -21.648 -17.464  0.00  0.00    +0.099 C 
ATOM     17  C   UNL     1      33.538 -22.078 -17.420  0.00  0.00    +0.099 C 
ENDBRANCH   5   9
ENDBRANCH   1   3
BRANCH   1  18
ATOM     18  C   UNL     1      34.648 -13.804 -22.178  0.00  0.00    +0.184 C 
BRANCH  18  19
ATOM     19  C   UNL     1      34.102 -12.810 -23.208  0.00  0.00    -0.021 C 
BRANCH  19  20
ATOM     20  N   UNL     1      33.115 -13.496 -24.043  0.00  0.00    +0.384 N 
ATOM     21  H   UNL     1      32.182 -13.353 -23.654  0.00  0.00    -0.089 HD
ATOM     22  H   UNL     1      33.324 -14.494 -24.065  0.00  0.00    -0.089 HD
ATOM     23  H   UNL     1      33.150 -13.120 -24.990  0.00  0.00    -0.089 HD
ENDBRANCH  19  20
BRANCH  19  24
ATOM     24  C   UNL     1      33.483 -11.572 -22.524  0.00  0.00    -0.012 C 
BRANCH  24  26
ATOM     25  N   UNL     1      35.284  -8.782 -23.486  0.00  0.00    -0.270 NA
ATOM     26  C   UNL     1      33.465 -10.332 -23.398  0.00  0.00    +0.046 C 
ATOM     27  C   UNL     1      33.122  -9.075 -22.665  0.00  0.00    -0.007 C 
ATOM     28  C   UNL     1      34.874  -9.961 -23.848  0.00  0.00    +0.130 C 
ATOM     29  C   UNL     1      34.222  -8.214 -22.759  0.00  0.00    +0.071 C 
ATOM     30  C   UNL     1      31.971  -8.711 -21.995  0.00  0.00    -0.024 C 
ATOM     31  C   UNL     1      34.193  -6.961 -22.171  0.00  0.00    +0.014 C 
ATOM     32  C   UNL     1      31.934  -7.448 -21.399  0.00  0.00    +0.052 C 
ATOM     33  C   UNL     1      33.036  -6.581 -21.486  0.00  0.00    -0.020 C 
ENDBRANCH  24  26
ENDBRANCH  19  24
ENDBRANCH  18  19
ENDBRANCH   1  18
TORSDOF 7
ENDMDL
MODEL 5
REMARK VINA RESULT:     -11.8      4.702     10.842
REMARK  Name = 11840906
REMARK  7 active torsions:
REMARK  status: ('A' for Active; 'I' for Inactive)
REMARK    1  A    between atoms: O_1  and  C_3
REMARK    2  A    between atoms: O_1  and  C_18
REMARK    3  A    between atoms: C_5  and  C_9
REMARK    4  A    between atoms: C_18  and  C_19
REMARK    5  A    between atoms: C_19  and  N_20
REMARK    6  A    between atoms: C_19  and  C_24
REMARK    7  A    between atoms: C_24  and  C_26
REMARK                            x       y       z     vdW  Elec       q    Type
REMARK                         _______ _______ _______ _____ _____    ______ ____
ROOT
ATOM      1  O   UNL     1      36.682 -21.631 -17.452  0.00  0.00    -0.476 OA
ENDROOT
BRANCH   1   3
ATOM      2  N   UNL     1      33.326 -21.373 -18.850  0.00  0.00    -0.239 NA
ATOM      3  C   UNL     1      35.644 -21.193 -18.233  0.00  0.00    +0.158 C 
ATOM      4  C   UNL     1      35.836 -20.180 -19.154  0.00  0.00    +0.040 C 
ATOM      5  C   UNL     1      34.764 -19.757 -19.932  0.00  0.00    +0.022 C 
ATOM      6  C   UNL     1      34.392 -21.756 -18.112  0.00  0.00    +0.136 C 
ATOM      7  C   UNL     1      33.541 -20.380 -19.743  0.00  0.00    +0.099 C 
BRANCH   5   9
ATOM      8  N   UNL     1      34.849 -15.762 -25.027  0.00  0.00    -0.242 NA
ATOM      9  C   UNL     1      34.921 -18.703 -20.906  0.00  0.00    +0.002 C 
ATOM     10  C   UNL     1      34.528 -17.830 -23.145  0.00  0.00    +0.003 C 
ATOM     11  C   UNL     1      34.381 -18.847 -22.187  0.00  0.00    +0.000 C 
ATOM     12  C   UNL     1      35.228 -16.657 -22.799  0.00  0.00    +0.019 C 
ATOM     13  C   UNL     1      35.614 -17.540 -20.569  0.00  0.00    +0.000 C 
ATOM     14  C   UNL     1      35.768 -16.521 -21.509  0.00  0.00    +0.002 C 
ATOM     15  C   UNL     1      33.997 -17.947 -24.435  0.00  0.00    +0.021 C 
ATOM     16  C   UNL     1      35.353 -15.668 -23.776  0.00  0.00    +0.099 C 
ATOM     17  C   UNL     1      34.183 -16.899 -25.323  0.00  0.00    +0.099 C 
ENDBRANCH   5   9
ENDBRANCH   1   3
BRANCH   1  18
ATOM     18  C   UNL     1      36.559 -21.427 -16.050  0.00  0.00    +0.184 C 
BRANCH  18  19
ATOM     19  C   UNL     1      36.852 -22.734 -15.307  0.00  0.00    -0.021 C 
BRANCH  19  20
ATOM     20  N   UNL     1      37.563 -22.419 -14.068  0.00  0.00    +0.384 N 
ATOM     21  H   UNL     1      37.206 -21.543 -13.684  0.00  0.00    -0.089 HD
ATOM     22  H   UNL     1      38.560 -22.322 -14.263  0.00  0.00    -0.089 HD
ATOM     23  H   UNL     1      37.420 -23.169 -13.393  0.00  0.00    -0.089 HD
ENDBRANCH  19  20
BRANCH  19  24
ATOM     24  C   UNL     1      35.555 -23.520 -15.016  0.00  0.00    -0.012 C 
BRANCH  24  26
ATOM     25  N   UNL     1      33.396 -23.956 -12.353  0.00  0.00    -0.270 NA
ATOM     26  C   UNL     1      34.607 -22.812 -14.068  0.00  0.00    +0.046 C 
ATOM     27  C   UNL     1      33.165 -22.943 -14.439  0.00  0.00    -0.007 C 
ATOM     28  C   UNL     1      34.562 -23.515 -12.715  0.00  0.00    +0.130 C 
ATOM     29  C   UNL     1      32.516 -23.615 -13.396  0.00  0.00    +0.071 C 
ATOM     30  C   UNL     1      32.482 -22.515 -15.561  0.00  0.00    -0.024 C 
ATOM     31  C   UNL     1      31.158 -23.879 -13.459  0.00  0.00    +0.014 C 
ATOM     32  C   UNL     1      31.113 -22.778 -15.632  0.00  0.00    +0.052 C 
ATOM     33  C   UNL     1      30.457 -23.455 -14.591  0.00  0.00    -0.020 C 
ENDBRANCH  24  26
ENDBRANCH  19  24
ENDBRANCH  18  19
ENDBRANCH   1  18
TORSDOF 7
ENDMDL
MODEL 6
REMARK VINA RESULT:     -11.8      2.502      4.329
REMARK  Name = 11840906
REMARK  7 active torsions:
REMARK  status: ('A' for Active; 'I' for Inactive)
REMARK    1  A    between atoms: O_1  and  C_3
REMARK    2  A    between atoms: O_1  and  C_18
REMARK    3  A    between atoms: C_5  and  C_9
REMARK    4  A    between atoms: C_18  and  C_19
REMARK    5  A    between atoms: C_19  and  N_20
REMARK    6  A    between atoms: C_19  and  C_24
REMARK    7  A    between atoms: C_24  and  C_26
REMARK                            x       y       z     vdW  Elec       q    Type
REMARK                         _______ _______ _______ _____ _____    ______ ____
ROOT
ATOM      1  O   UNL     1      34.121  -8.756 -23.997  0.00  0.00    -0.476 OA
ENDROOT
BRANCH   1   3
ATOM      2  N   UNL     1      33.590 -11.793 -25.941  0.00  0.00    -0.239 NA
ATOM      3  C   UNL     1      34.043 -10.090 -24.304  0.00  0.00    +0.158 C 
ATOM      4  C   UNL     1      34.321 -11.048 -23.347  0.00  0.00    +0.040 C 
ATOM      5  C   UNL     1      34.233 -12.393 -23.689  0.00  0.00    +0.022 C 
ATOM      6  C   UNL     1      33.686 -10.496 -25.572  0.00  0.00    +0.136 C 
ATOM      7  C   UNL     1      33.866 -12.710 -24.986  0.00  0.00    +0.099 C 
BRANCH   5   9
ATOM      8  N   UNL     1      35.786 -17.693 -20.306  0.00  0.00    -0.242 NA
ATOM      9  C   UNL     1      34.513 -13.427 -22.720  0.00  0.00    +0.002 C 
ATOM     10  C   UNL     1      35.247 -15.693 -22.213  0.00  0.00    +0.003 C 
ATOM     11  C   UNL     1      34.972 -14.678 -23.144  0.00  0.00    +0.000 C 
ATOM     12  C   UNL     1      35.057 -15.436 -20.840  0.00  0.00    +0.019 C 
ATOM     13  C   UNL     1      34.326 -13.179 -21.361  0.00  0.00    +0.000 C 
ATOM     14  C   UNL     1      34.595 -14.176 -20.423  0.00  0.00    +0.002 C 
ATOM     15  C   UNL     1      35.708 -16.955 -22.608  0.00  0.00    +0.021 C 
ATOM     16  C   UNL     1      35.342 -16.468 -19.945  0.00  0.00    +0.099 C 
ATOM     17  C   UNL     1      35.958 -17.903 -21.629  0.00  0.00    +0.099 C 
ENDBRANCH   5   9
ENDBRANCH   1   3
BRANCH   1  18
ATOM     18  C   UNL     1      32.906  -8.018 -24.033  0.00  0.00    +0.184 C 
BRANCH  18  19
ATOM     19  C   UNL     1      33.004  -6.810 -23.095  0.00  0.00    -0.021 C 
BRANCH  19  20
ATOM     20  N   UNL     1      31.708  -6.131 -23.070  0.00  0.00    +0.384 N 
ATOM     21  H   UNL     1      31.798  -5.246 -22.569  0.00  0.00    -0.089 HD
ATOM     22  H   UNL     1      31.024  -6.721 -22.597  0.00  0.00    -0.089 HD
ATOM     23  H   UNL     1      31.400  -5.951 -24.025  0.00  0.00    -0.089 HD
ENDBRANCH  19  20
BRANCH  19  24
ATOM     24  C   UNL     1      33.435  -7.233 -21.674  0.00  0.00    -0.012 C 
BRANCH  24  26
ATOM     25  N   UNL     1      32.585  -7.959 -18.403  0.00  0.00    -0.270 NA
ATOM     26  C   UNL     1      32.277  -7.451 -20.719  0.00  0.00    +0.046 C 
ATOM     27  C   UNL     1      31.973  -8.889 -20.451  0.00  0.00    -0.007 C 
ATOM     28  C   UNL     1      32.650  -7.025 -19.303  0.00  0.00    +0.130 C 
ATOM     29  C   UNL     1      32.168  -9.118 -19.083  0.00  0.00    +0.071 C 
ATOM     30  C   UNL     1      31.559  -9.895 -21.302  0.00  0.00    -0.024 C 
ATOM     31  C   UNL     1      31.957 -10.372 -18.537  0.00  0.00    +0.014 C 
ATOM     32  C   UNL     1      31.343 -11.163 -20.758  0.00  0.00    +0.052 C 
ATOM     33  C   UNL     1      31.541 -11.400 -19.388  0.00  0.00    -0.020 C 
ENDBRANCH  24  26
ENDBRANCH  19  24
ENDBRANCH  18  19
ENDBRANCH   1  18
TORSDOF 7
ENDMDL
MODEL 7
REMARK VINA RESULT:     -11.7      4.888      9.257
REMARK  Name = 11840906
REMARK  7 active torsions:
REMARK  status: ('A' for Active; 'I' for Inactive)
REMARK    1  A    between atoms: O_1  and  C_3
REMARK    2  A    between atoms: O_1  and  C_18
REMARK    3  A    between atoms: C_5  and  C_9
REMARK    4  A    between atoms: C_18  and  C_19
REMARK    5  A    between atoms: C_19  and  N_20
REMARK    6  A    between atoms: C_19  and  C_24
REMARK    7  A    between atoms: C_24  and  C_26
REMARK                            x       y       z     vdW  Elec       q    Type
REMARK                         _______ _______ _______ _____ _____    ______ ____
ROOT
ATOM      1  O   UNL     1      32.793 -21.483 -18.294  0.00  0.00    -0.476 OA
ENDROOT
BRANCH   1   3
ATOM      2  N   UNL     1      31.040 -22.562 -15.285  0.00  0.00    -0.239 NA
ATOM      3  C   UNL     1      32.585 -22.005 -17.043  0.00  0.00    +0.158 C 
ATOM      4  C   UNL     1      33.646 -22.484 -16.296  0.00  0.00    +0.040 C 
ATOM      5  C   UNL     1      33.403 -23.007 -15.031  0.00  0.00    +0.022 C 
ATOM      6  C   UNL     1      31.315 -22.061 -16.510  0.00  0.00    +0.136 C 
ATOM      7  C   UNL     1      32.095 -23.023 -14.576  0.00  0.00    +0.099 C 
BRANCH   5   9
ATOM      8  N   UNL     1      38.685 -25.700 -12.426  0.00  0.00    -0.242 NA
ATOM      9  C   UNL     1      34.482 -23.517 -14.217  0.00  0.00    +0.002 C 
ATOM     10  C   UNL     1      36.594 -24.714 -14.033  0.00  0.00    +0.003 C 
ATOM     11  C   UNL     1      35.539 -24.211 -14.812  0.00  0.00    +0.000 C 
ATOM     12  C   UNL     1      36.576 -24.509 -12.638  0.00  0.00    +0.019 C 
ATOM     13  C   UNL     1      34.468 -23.318 -12.837  0.00  0.00    +0.000 C 
ATOM     14  C   UNL     1      35.509 -23.811 -12.049  0.00  0.00    +0.002 C 
ATOM     15  C   UNL     1      37.667 -25.412 -14.601  0.00  0.00    +0.021 C 
ATOM     16  C   UNL     1      37.641 -25.022 -11.897  0.00  0.00    +0.099 C 
ATOM     17  C   UNL     1      38.670 -25.876 -13.765  0.00  0.00    +0.099 C 
ENDBRANCH   5   9
ENDBRANCH   1   3
BRANCH   1  18
ATOM     18  C   UNL     1      34.042 -21.772 -18.908  0.00  0.00    +0.184 C 
BRANCH  18  19
ATOM     19  C   UNL     1      34.862 -20.486 -19.048  0.00  0.00    -0.021 C 
BRANCH  19  20
ATOM     20  N   UNL     1      36.272 -20.845 -19.204  0.00  0.00    +0.384 N 
ATOM     21  H   UNL     1      36.493 -21.629 -18.590  0.00  0.00    -0.089 HD
ATOM     22  H   UNL     1      36.856 -20.045 -18.957  0.00  0.00    -0.089 HD
ATOM     23  H   UNL     1      36.450 -21.110 -20.173  0.00  0.00    -0.089 HD
ENDBRANCH  19  20
BRANCH  19  24
ATOM     24  C   UNL     1      34.373 -19.631 -20.236  0.00  0.00    -0.012 C 
BRANCH  24  26
ATOM     25  N   UNL     1      35.743 -16.532 -20.918  0.00  0.00    -0.270 NA
ATOM     26  C   UNL     1      35.485 -18.908 -20.973  0.00  0.00    +0.046 C 
ATOM     27  C   UNL     1      35.061 -18.303 -22.272  0.00  0.00    -0.007 C 
ATOM     28  C   UNL     1      35.883 -17.631 -20.241  0.00  0.00    +0.130 C 
ATOM     29  C   UNL     1      35.241 -16.917 -22.174  0.00  0.00    +0.071 C 
ATOM     30  C   UNL     1      34.579 -18.892 -23.424  0.00  0.00    -0.024 C 
ATOM     31  C   UNL     1      34.932 -16.086 -23.238  0.00  0.00    +0.014 C 
ATOM     32  C   UNL     1      34.266 -18.060 -24.501  0.00  0.00    +0.052 C 
ATOM     33  C   UNL     1      34.440 -16.669 -24.408  0.00  0.00    -0.020 C 
ENDBRANCH  24  26
ENDBRANCH  19  24
ENDBRANCH  18  19
ENDBRANCH   1  18
TORSDOF 7
ENDMDL
MODEL 8
REMARK VINA RESULT:     -11.6      4.173      7.766
REMARK  Name = 11840906
REMARK  7 active torsions:
REMARK  status: ('A' for Active; 'I' for Inactive)
REMARK    1  A    between atoms: O_1  and  C_3
REMARK    2  A    between atoms: O_1  and  C_18
REMARK    3  A    between atoms: C_5  and  C_9
REMARK    4  A    between atoms: C_18  and  C_19
REMARK    5  A    between atoms: C_19  and  N_20
REMARK    6  A    between atoms: C_19  and  C_24
REMARK    7  A    between atoms: C_24  and  C_26
REMARK                            x       y       z     vdW  Elec       q    Type
REMARK                         _______ _______ _______ _____ _____    ______ ____
ROOT
ATOM      1  O   UNL     1      35.635 -20.443 -19.214  0.00  0.00    -0.476 OA
ENDROOT
BRANCH   1   3
ATOM      2  N   UNL     1      32.677 -21.995 -17.755  0.00  0.00    -0.239 NA
ATOM      3  C   UNL     1      34.848 -21.132 -18.327  0.00  0.00    +0.158 C 
ATOM      4  C   UNL     1      35.386 -21.643 -17.160  0.00  0.00    +0.040 C 
ATOM      5  C   UNL     1      34.562 -22.337 -16.280  0.00  0.00    +0.022 C 
ATOM      6  C   UNL     1      33.508 -21.327 -18.586  0.00  0.00    +0.136 C 
ATOM      7  C   UNL     1      33.228 -22.484 -16.621  0.00  0.00    +0.099 C 
BRANCH   5   9
ATOM      8  N   UNL     1      37.943 -24.845 -11.359  0.00  0.00    -0.242 NA
ATOM      9  C   UNL     1      35.082 -22.886 -15.050  0.00  0.00    +0.002 C 
ATOM     10  C   UNL     1      36.951 -23.775 -13.767  0.00  0.00    +0.003 C 
ATOM     11  C   UNL     1      36.432 -23.239 -14.957  0.00  0.00    +0.000 C 
ATOM     12  C   UNL     1      36.094 -23.954 -12.663  0.00  0.00    +0.019 C 
ATOM     13  C   UNL     1      34.239 -23.066 -13.955  0.00  0.00    +0.000 C 
ATOM     14  C   UNL     1      34.739 -23.597 -12.766  0.00  0.00    +0.002 C 
ATOM     15  C   UNL     1      38.298 -24.137 -13.644  0.00  0.00    +0.021 C 
ATOM     16  C   UNL     1      36.645 -24.489 -11.497  0.00  0.00    +0.099 C 
ATOM     17  C   UNL     1      38.735 -24.658 -12.437  0.00  0.00    +0.099 C 
ENDBRANCH   5   9
ENDBRANCH   1   3
BRANCH   1  18
ATOM     18  C   UNL     1      34.965 -19.732 -20.246  0.00  0.00    +0.184 C 
BRANCH  18  19
ATOM     19  C   UNL     1      35.655 -18.384 -20.481  0.00  0.00    -0.021 C 
BRANCH  19  20
ATOM     20  N   UNL     1      37.104 -18.591 -20.458  0.00  0.00    +0.384 N 
ATOM     21  H   UNL     1      37.321 -19.415 -19.897  0.00  0.00    -0.089 HD
ATOM     22  H   UNL     1      37.557 -17.773 -20.050  0.00  0.00    -0.089 HD
ATOM     23  H   UNL     1      37.443 -18.729 -21.410  0.00  0.00    -0.089 HD
ENDBRANCH  19  20
BRANCH  19  24
ATOM     24  C   UNL     1      35.208 -17.746 -21.814  0.00  0.00    -0.012 C 
BRANCH  24  26
ATOM     25  N   UNL     1      34.566 -14.424 -21.107  0.00  0.00    -0.270 NA
ATOM     26  C   UNL     1      35.701 -16.325 -22.011  0.00  0.00    +0.046 C 
ATOM     27  C   UNL     1      34.985 -15.577 -23.088  0.00  0.00    -0.007 C 
ATOM     28  C   UNL     1      35.317 -15.446 -20.825  0.00  0.00    +0.130 C 
ATOM     29  C   UNL     1      34.349 -14.480 -22.495  0.00  0.00    +0.071 C 
ATOM     30  C   UNL     1      34.902 -15.816 -24.446  0.00  0.00    -0.024 C 
ATOM     31  C   UNL     1      33.605 -13.595 -23.257  0.00  0.00    +0.014 C 
ATOM     32  C   UNL     1      34.153 -14.928 -25.221  0.00  0.00    +0.052 C 
ATOM     33  C   UNL     1      33.510 -13.828 -24.632  0.00  0.00    -0.020 C 
ENDBRANCH  24  26
ENDBRANCH  19  24
ENDBRANCH  18  19
ENDBRANCH   1  18
TORSDOF 7
ENDMDL
MODEL 9
REMARK VINA RESULT:     -11.6      1.655      9.447
REMARK  Name = 11840906
REMARK  7 active torsions:
REMARK  status: ('A' for Active; 'I' for Inactive)
REMARK    1  A    between atoms: O_1  and  C_3
REMARK    2  A    between atoms: O_1  and  C_18
REMARK    3  A    between atoms: C_5  and  C_9
REMARK    4  A    between atoms: C_18  and  C_19
REMARK    5  A    between atoms: C_19  and  N_20
REMARK    6  A    between atoms: C_19  and  C_24
REMARK    7  A    between atoms: C_24  and  C_26
REMARK                            x       y       z     vdW  Elec       q    Type
REMARK                         _______ _______ _______ _____ _____    ______ ____
ROOT
ATOM      1  O   UNL     1      35.655 -17.237 -22.428  0.00  0.00    -0.476 OA
ENDROOT
BRANCH   1   3
ATOM      2  N   UNL     1      34.052 -15.797 -25.368  0.00  0.00    -0.239 NA
ATOM      3  C   UNL     1      35.013 -16.327 -23.228  0.00  0.00    +0.158 C 
ATOM      4  C   UNL     1      34.684 -15.074 -22.743  0.00  0.00    +0.040 C 
ATOM      5  C   UNL     1      34.033 -14.173 -23.578  0.00  0.00    +0.022 C 
ATOM      6  C   UNL     1      34.684 -16.647 -24.528  0.00  0.00    +0.136 C 
ATOM      7  C   UNL     1      33.743 -14.579 -24.870  0.00  0.00    +0.099 C 
BRANCH   5   9
ATOM      8  N   UNL     1      31.854  -8.849 -20.603  0.00  0.00    -0.242 NA
ATOM      9  C   UNL     1      33.673 -12.854 -23.112  0.00  0.00    +0.002 C 
ATOM     10  C   UNL     1      32.546 -11.430 -21.490  0.00  0.00    +0.003 C 
ATOM     11  C   UNL     1      32.905 -12.707 -21.954  0.00  0.00    +0.000 C 
ATOM     12  C   UNL     1      32.970 -10.295 -22.208  0.00  0.00    +0.019 C 
ATOM     13  C   UNL     1      34.088 -11.727 -23.820  0.00  0.00    +0.000 C 
ATOM     14  C   UNL     1      33.740 -10.452 -23.372  0.00  0.00    +0.002 C 
ATOM     15  C   UNL     1      31.778 -11.252 -20.332  0.00  0.00    +0.021 C 
ATOM     16  C   UNL     1      32.594  -9.043 -21.717  0.00  0.00    +0.099 C 
ATOM     17  C   UNL     1      31.466  -9.960 -19.939  0.00  0.00    +0.099 C 
ENDBRANCH   5   9
ENDBRANCH   1   3
BRANCH   1  18
ATOM     18  C   UNL     1      34.892 -18.353 -21.989  0.00  0.00    +0.184 C 
BRANCH  18  19
ATOM     19  C   UNL     1      35.589 -19.024 -20.801  0.00  0.00    -0.021 C 
BRANCH  19  20
ATOM     20  N   UNL     1      36.455 -18.040 -20.150  0.00  0.00    +0.384 N 
ATOM     21  H   UNL     1      35.995 -17.129 -20.152  0.00  0.00    -0.089 HD
ATOM     22  H   UNL     1      37.338 -17.975 -20.658  0.00  0.00    -0.089 HD
ATOM     23  H   UNL     1      36.636 -18.328 -19.189  0.00  0.00    -0.089 HD
ENDBRANCH  19  20
BRANCH  19  24
ATOM     24  C   UNL     1      34.567 -19.607 -19.803  0.00  0.00    -0.012 C 
BRANCH  24  26
ATOM     25  N   UNL     1      33.455 -22.265 -17.892  0.00  0.00    -0.270 NA
ATOM     26  C   UNL     1      34.824 -21.057 -19.436  0.00  0.00    +0.046 C 
ATOM     27  C   UNL     1      35.533 -21.237 -18.132  0.00  0.00    -0.007 C 
ATOM     28  C   UNL     1      33.522 -21.772 -19.092  0.00  0.00    +0.130 C 
ATOM     29  C   UNL     1      34.682 -21.952 -17.280  0.00  0.00    +0.071 C 
ATOM     30  C   UNL     1      36.791 -20.834 -17.729  0.00  0.00    -0.024 C 
ATOM     31  C   UNL     1      35.075 -22.274 -15.993  0.00  0.00    +0.014 C 
ATOM     32  C   UNL     1      37.195 -21.154 -16.431  0.00  0.00    +0.052 C 
ATOM     33  C   UNL     1      36.344 -21.868 -15.570  0.00  0.00    -0.020 C 
ENDBRANCH  24  26
ENDBRANCH  19  24
ENDBRANCH  18  19
ENDBRANCH   1  18
TORSDOF 7
ENDMDL
