MODEL 1
REMARK VINA RESULT:     -11.8      0.000      0.000
REMARK  Name = 11711595
REMARK  10 active torsions:
REMARK  status: ('A' for Active; 'I' for Inactive)
REMARK    1  A    between atoms: C_1  and  C_9
REMARK    2  A    between atoms: C_3  and  C_17
REMARK    3  A    between atoms: C_5  and  O_7
REMARK    4  A    between atoms: C_9  and  C_10
REMARK    5  A    between atoms: C_10  and  C_12
REMARK    6  A    between atoms: C_10  and  C_15
REMARK    7  A    between atoms: C_12  and  O_13
REMARK    8  A    between atoms: C_17  and  N_19
REMARK    9  A    between atoms: C_20  and  C_23
REMARK   10  A    between atoms: C_26  and  C_32
REMARK                            x       y       z     vdW  Elec       q    Type
REMARK                         _______ _______ _______ _____ _____    ______ ____
ROOT
ATOM      1  C   UNL     1      35.599 -23.453 -14.169  0.00  0.00    -0.022 C 
ATOM      2  C   UNL     1      34.828 -23.140 -15.290  0.00  0.00    -0.004 C 
ATOM      3  C   UNL     1      33.448 -22.980 -15.164  0.00  0.00    +0.031 C 
ATOM      4  C   UNL     1      34.989 -23.606 -12.924  0.00  0.00    -0.001 C 
ATOM      5  C   UNL     1      32.839 -23.134 -13.918  0.00  0.00    +0.136 C 
ATOM      6  C   UNL     1      33.609 -23.446 -12.799  0.00  0.00    +0.036 C 
ENDROOT
BRANCH   5   7
ATOM      7  O   UNL     1      31.492 -22.982 -13.778  0.00  0.00    -0.472 OA
ATOM      8  C   UNL     1      30.780 -24.052 -13.161  0.00  0.00    +0.252 C 
ENDBRANCH   5   7
BRANCH   1   9
ATOM      9  C   UNL     1      37.093 -23.626 -14.305  0.00  0.00    +0.037 C 
BRANCH   9  10
ATOM     10  C   UNL     1      37.653 -24.772 -13.442  0.00  0.00    +0.103 C 
BRANCH  10  12
ATOM     11  O   UNL     1      39.191 -26.525 -14.143  0.00  0.00    -0.250 OA
ATOM     12  C   UNL     1      38.167 -25.883 -14.346  0.00  0.00    +0.314 C 
BRANCH  12  13
ATOM     13  O   UNL     1      37.353 -26.114 -15.407  0.00  0.00    -0.480 OA
ATOM     14  H   UNL     1      37.694 -26.516 -16.182  0.00  0.00    +0.295 HD
ENDBRANCH  12  13
ENDBRANCH  10  12
BRANCH  10  15
ATOM     15  C   UNL     1      38.789 -24.254 -12.540  0.00  0.00    +0.011 C 
ATOM     16  C   UNL     1      38.274 -23.608 -11.260  0.00  0.00    +0.001 C 
ENDBRANCH  10  15
ENDBRANCH   9  10
ENDBRANCH   1   9
BRANCH   3  17
ATOM     17  C   UNL     1      32.640 -22.646 -16.373  0.00  0.00    +0.120 C 
BRANCH  17  19
ATOM     18  O   UNL     1      34.028 -23.221 -18.819  0.00  0.00    -0.270 OA
ATOM     19  N   UNL     1      33.304 -21.696 -17.228  0.00  0.00    -0.297 N 
ATOM     20  C   UNL     1      33.953 -22.069 -18.398  0.00  0.00    +0.248 C 
ATOM     21  H   UNL     1      33.299 -20.746 -16.974  0.00  0.00    +0.150 HD
BRANCH  20  23
ATOM     22  F   UNL     1      32.519 -20.235 -19.996  0.00  0.00    -0.204 F 
ATOM     23  C   UNL     1      34.614 -20.975 -19.155  0.00  0.00    +0.081 C 
ATOM     24  C   UNL     1      33.852 -20.099 -19.927  0.00  0.00    +0.144 C 
ATOM     25  C   UNL     1      35.999 -20.824 -19.091  0.00  0.00    +0.007 C 
ATOM     26  C   UNL     1      35.859 -18.921 -20.572  0.00  0.00    +0.074 C 
ATOM     27  C   UNL     1      34.473 -19.071 -20.636  0.00  0.00    +0.034 C 
ATOM     28  C   UNL     1      36.621 -19.797 -19.800  0.00  0.00    +0.004 C 
BRANCH  26  32
ATOM     29  F   UNL     1      36.183 -16.572 -20.894  0.00  0.00    -0.166 F 
ATOM     30  F   UNL     1      37.888 -17.861 -21.265  0.00  0.00    -0.166 F 
ATOM     31  F   UNL     1      36.220 -17.842 -22.660  0.00  0.00    -0.166 F 
ATOM     32  C   UNL     1      36.525 -17.822 -21.330  0.00  0.00    +0.419 C 
ENDBRANCH  26  32
ENDBRANCH  20  23
ENDBRANCH  17  19
ENDBRANCH   3  17
TORSDOF 10
ENDMDL
MODEL 2
REMARK VINA RESULT:     -10.9      2.320      5.600
REMARK  Name = 11711595
REMARK  10 active torsions:
REMARK  status: ('A' for Active; 'I' for Inactive)
REMARK    1  A    between atoms: C_1  and  C_9
REMARK    2  A    between atoms: C_3  and  C_17
REMARK    3  A    between atoms: C_5  and  O_7
REMARK    4  A    between atoms: C_9  and  C_10
REMARK    5  A    between atoms: C_10  and  C_12
REMARK    6  A    between atoms: C_10  and  C_15
REMARK    7  A    between atoms: C_12  and  O_13
REMARK    8  A    between atoms: C_17  and  N_19
REMARK    9  A    between atoms: C_20  and  C_23
REMARK   10  A    between atoms: C_26  and  C_32
REMARK                            x       y       z     vdW  Elec       q    Type
REMARK                         _______ _______ _______ _____ _____    ______ ____
ROOT
ATOM      1  C   UNL     1      31.204 -22.223 -14.671  0.00  0.00    -0.022 C 
ATOM      2  C   UNL     1      32.281 -22.453 -15.529  0.00  0.00    -0.004 C 
ATOM      3  C   UNL     1      33.469 -22.986 -15.030  0.00  0.00    +0.031 C 
ATOM      4  C   UNL     1      31.317 -22.527 -13.315  0.00  0.00    -0.001 C 
ATOM      5  C   UNL     1      33.581 -23.290 -13.672  0.00  0.00    +0.136 C 
ATOM      6  C   UNL     1      32.506 -23.060 -12.815  0.00  0.00    +0.036 C 
ENDROOT
BRANCH   5   7
ATOM      7  O   UNL     1      34.735 -23.811 -13.168  0.00  0.00    -0.472 OA
ATOM      8  C   UNL     1      35.203 -23.272 -11.933  0.00  0.00    +0.252 C 
ENDBRANCH   5   7
BRANCH   1   9
ATOM      9  C   UNL     1      29.918 -21.646 -15.212  0.00  0.00    +0.037 C 
BRANCH   9  10
ATOM     10  C   UNL     1      28.685 -22.517 -14.906  0.00  0.00    +0.103 C 
BRANCH  10  12
ATOM     11  O   UNL     1      26.345 -21.844 -14.903  0.00  0.00    -0.250 OA
ATOM     12  C   UNL     1      27.437 -21.842 -15.458  0.00  0.00    +0.314 C 
BRANCH  12  13
ATOM     13  O   UNL     1      27.663 -21.207 -16.636  0.00  0.00    -0.480 OA
ATOM     14  H   UNL     1      26.964 -20.753 -17.065  0.00  0.00    +0.295 HD
ENDBRANCH  12  13
ENDBRANCH  10  12
BRANCH  10  15
ATOM     15  C   UNL     1      28.853 -23.915 -15.531  0.00  0.00    +0.011 C 
ATOM     16  C   UNL     1      29.175 -24.985 -14.496  0.00  0.00    +0.001 C 
ENDBRANCH  10  15
ENDBRANCH   9  10
ENDBRANCH   1   9
BRANCH   3  17
ATOM     17  C   UNL     1      34.610 -23.225 -15.962  0.00  0.00    +0.120 C 
BRANCH  17  19
ATOM     18  O   UNL     1      34.058 -23.154 -18.778  0.00  0.00    -0.270 OA
ATOM     19  N   UNL     1      34.828 -22.115 -16.853  0.00  0.00    -0.297 N 
ATOM     20  C   UNL     1      34.529 -22.174 -18.208  0.00  0.00    +0.248 C 
ATOM     21  H   UNL     1      35.205 -21.282 -16.488  0.00  0.00    +0.150 HD
BRANCH  20  23
ATOM     22  F   UNL     1      37.157 -21.191 -18.538  0.00  0.00    -0.204 F 
ATOM     23  C   UNL     1      34.838 -20.954 -18.998  0.00  0.00    +0.081 C 
ATOM     24  C   UNL     1      36.156 -20.518 -19.126  0.00  0.00    +0.144 C 
ATOM     25  C   UNL     1      33.806 -20.245 -19.612  0.00  0.00    +0.007 C 
ATOM     26  C   UNL     1      35.412 -18.665 -20.484  0.00  0.00    +0.074 C 
ATOM     27  C   UNL     1      36.444 -19.373 -19.869  0.00  0.00    +0.034 C 
ATOM     28  C   UNL     1      34.093 -19.100 -20.355  0.00  0.00    +0.004 C 
BRANCH  26  32
ATOM     29  F   UNL     1      36.999 -17.404 -21.755  0.00  0.00    -0.166 F 
ATOM     30  F   UNL     1      34.925 -17.290 -22.379  0.00  0.00    -0.166 F 
ATOM     31  F   UNL     1      35.565 -16.293 -20.556  0.00  0.00    -0.166 F 
ATOM     32  C   UNL     1      35.719 -17.440 -21.279  0.00  0.00    +0.419 C 
ENDBRANCH  26  32
ENDBRANCH  20  23
ENDBRANCH  17  19
ENDBRANCH   3  17
TORSDOF 10
ENDMDL
MODEL 3
REMARK VINA RESULT:     -10.5      6.199      9.929
REMARK  Name = 11711595
REMARK  10 active torsions:
REMARK  status: ('A' for Active; 'I' for Inactive)
REMARK    1  A    between atoms: C_1  and  C_9
REMARK    2  A    between atoms: C_3  and  C_17
REMARK    3  A    between atoms: C_5  and  O_7
REMARK    4  A    between atoms: C_9  and  C_10
REMARK    5  A    between atoms: C_10  and  C_12
REMARK    6  A    between atoms: C_10  and  C_15
REMARK    7  A    between atoms: C_12  and  O_13
REMARK    8  A    between atoms: C_17  and  N_19
REMARK    9  A    between atoms: C_20  and  C_23
REMARK   10  A    between atoms: C_26  and  C_32
REMARK                            x       y       z     vdW  Elec       q    Type
REMARK                         _______ _______ _______ _____ _____    ______ ____
ROOT
ATOM      1  C   UNL     1      35.614 -18.180 -21.625  0.00  0.00    -0.022 C 
ATOM      2  C   UNL     1      35.799 -16.814 -21.842  0.00  0.00    -0.004 C 
ATOM      3  C   UNL     1      35.320 -16.222 -23.011  0.00  0.00    +0.031 C 
ATOM      4  C   UNL     1      34.951 -18.953 -22.578  0.00  0.00    -0.001 C 
ATOM      5  C   UNL     1      34.657 -16.996 -23.964  0.00  0.00    +0.136 C 
ATOM      6  C   UNL     1      34.472 -18.361 -23.747  0.00  0.00    +0.036 C 
ENDROOT
BRANCH   5   7
ATOM      7  O   UNL     1      34.183 -16.434 -25.111  0.00  0.00    -0.472 OA
ATOM      8  C   UNL     1      32.845 -16.757 -25.486  0.00  0.00    +0.252 C 
ENDBRANCH   5   7
BRANCH   1   9
ATOM      9  C   UNL     1      36.132 -18.821 -20.360  0.00  0.00    +0.037 C 
BRANCH   9  10
ATOM     10  C   UNL     1      35.265 -19.997 -19.875  0.00  0.00    +0.103 C 
BRANCH  10  12
ATOM     11  O   UNL     1      36.898 -20.224 -18.083  0.00  0.00    -0.250 OA
ATOM     12  C   UNL     1      35.958 -20.694 -18.713  0.00  0.00    +0.314 C 
BRANCH  12  13
ATOM     13  O   UNL     1      35.407 -21.900 -18.421  0.00  0.00    -0.480 OA
ATOM     14  H   UNL     1      34.636 -22.184 -18.871  0.00  0.00    +0.295 HD
ENDBRANCH  12  13
ENDBRANCH  10  12
BRANCH  10  15
ATOM     15  C   UNL     1      33.877 -19.491 -19.439  0.00  0.00    +0.011 C 
ATOM     16  C   UNL     1      32.739 -20.290 -20.061  0.00  0.00    +0.001 C 
ENDBRANCH  10  15
ENDBRANCH   9  10
ENDBRANCH   1   9
BRANCH   3  17
ATOM     17  C   UNL     1      35.527 -14.759 -23.225  0.00  0.00    +0.120 C 
BRANCH  17  19
ATOM     18  O   UNL     1      32.995 -13.479 -23.663  0.00  0.00    -0.270 OA
ATOM     19  N   UNL     1      34.793 -13.960 -22.279  0.00  0.00    -0.297 N 
ATOM     20  C   UNL     1      33.569 -13.377 -22.582  0.00  0.00    +0.248 C 
ATOM     21  H   UNL     1      35.173 -13.820 -21.382  0.00  0.00    +0.150 HD
BRANCH  20  23
ATOM     22  F   UNL     1      33.082 -10.609 -22.856  0.00  0.00    -0.204 F 
ATOM     23  C   UNL     1      32.952 -12.559 -21.506  0.00  0.00    +0.081 C 
ATOM     24  C   UNL     1      32.735 -11.196 -21.701  0.00  0.00    +0.144 C 
ATOM     25  C   UNL     1      32.587 -13.159 -20.301  0.00  0.00    +0.007 C 
ATOM     26  C   UNL     1      31.790 -11.030 -19.485  0.00  0.00    +0.074 C 
ATOM     27  C   UNL     1      32.154 -10.430 -20.690  0.00  0.00    +0.034 C 
ATOM     28  C   UNL     1      32.007 -12.394 -19.290  0.00  0.00    +0.004 C 
BRANCH  26  32
ATOM     29  F   UNL     1      29.814 -10.071 -18.533  0.00  0.00    -0.166 F 
ATOM     30  F   UNL     1      31.354 -10.726 -17.153  0.00  0.00    -0.166 F 
ATOM     31  F   UNL     1      31.665  -8.941 -18.355  0.00  0.00    -0.166 F 
ATOM     32  C   UNL     1      31.168 -10.211 -18.404  0.00  0.00    +0.419 C 
ENDBRANCH  26  32
ENDBRANCH  20  23
ENDBRANCH  17  19
ENDBRANCH   3  17
TORSDOF 10
ENDMDL
MODEL 4
REMARK VINA RESULT:     -10.5      3.003      5.058
REMARK  Name = 11711595
REMARK  10 active torsions:
REMARK  status: ('A' for Active; 'I' for Inactive)
REMARK    1  A    between atoms: C_1  and  C_9
REMARK    2  A    between atoms: C_3  and  C_17
REMARK    3  A    between atoms: C_5  and  O_7
REMARK    4  A    between atoms: C_9  and  C_10
REMARK    5  A    between atoms: C_10  and  C_12
REMARK    6  A    between atoms: C_10  and  C_15
REMARK    7  A    between atoms: C_12  and  O_13
REMARK    8  A    between atoms: C_17  and  N_19
REMARK    9  A    between atoms: C_20  and  C_23
REMARK   10  A    between atoms: C_26  and  C_32
REMARK                            x       y       z     vdW  Elec       q    Type
REMARK                         _______ _______ _______ _____ _____    ______ ____
ROOT
ATOM      1  C   UNL     1      35.488 -22.011 -16.476  0.00  0.00    -0.022 C 
ATOM      2  C   UNL     1      36.262 -21.274 -17.374  0.00  0.00    -0.004 C 
ATOM      3  C   UNL     1      35.699 -20.812 -18.564  0.00  0.00    +0.031 C 
ATOM      4  C   UNL     1      34.153 -22.286 -16.769  0.00  0.00    -0.001 C 
ATOM      5  C   UNL     1      34.362 -21.089 -18.856  0.00  0.00    +0.136 C 
ATOM      6  C   UNL     1      33.590 -21.825 -17.959  0.00  0.00    +0.036 C 
ENDROOT
BRANCH   5   7
ATOM      7  O   UNL     1      33.797 -20.646 -20.014  0.00  0.00    -0.472 OA
ATOM      8  C   UNL     1      32.734 -19.702 -19.897  0.00  0.00    +0.252 C 
ENDBRANCH   5   7
BRANCH   1   9
ATOM      9  C   UNL     1      36.098 -22.510 -15.187  0.00  0.00    +0.037 C 
BRANCH   9  10
ATOM     10  C   UNL     1      35.445 -23.805 -14.669  0.00  0.00    +0.103 C 
BRANCH  10  12
ATOM     11  O   UNL     1      37.716 -24.674 -14.533  0.00  0.00    -0.250 OA
ATOM     12  C   UNL     1      36.510 -24.883 -14.517  0.00  0.00    +0.314 C 
BRANCH  12  13
ATOM     13  O   UNL     1      35.980 -26.120 -14.334  0.00  0.00    -0.480 OA
ATOM     14  H   UNL     1      35.319 -26.255 -13.684  0.00  0.00    +0.295 HD
ENDBRANCH  12  13
ENDBRANCH  10  12
BRANCH  10  15
ATOM     15  C   UNL     1      34.754 -23.549 -13.317  0.00  0.00    +0.011 C 
ATOM     16  C   UNL     1      33.237 -23.664 -13.403  0.00  0.00    +0.001 C 
ENDBRANCH  10  15
ENDBRANCH   9  10
ENDBRANCH   1   9
BRANCH   3  17
ATOM     17  C   UNL     1      36.541 -20.026 -19.513  0.00  0.00    +0.120 C 
BRANCH  17  19
ATOM     18  O   UNL     1      37.578 -18.083 -21.354  0.00  0.00    -0.270 OA
ATOM     19  N   UNL     1      35.927 -18.776 -19.879  0.00  0.00    -0.297 N 
ATOM     20  C   UNL     1      36.506 -17.895 -20.783  0.00  0.00    +0.248 C 
ATOM     21  H   UNL     1      35.063 -18.535 -19.473  0.00  0.00    +0.150 HD
BRANCH  20  23
ATOM     22  F   UNL     1      35.869 -16.990 -23.381  0.00  0.00    -0.204 F 
ATOM     23  C   UNL     1      35.761 -16.635 -21.035  0.00  0.00    +0.081 C 
ATOM     24  C   UNL     1      35.475 -16.240 -22.341  0.00  0.00    +0.144 C 
ATOM     25  C   UNL     1      35.346 -15.847 -19.961  0.00  0.00    +0.007 C 
ATOM     26  C   UNL     1      34.359 -14.269 -21.502  0.00  0.00    +0.074 C 
ATOM     27  C   UNL     1      34.774 -15.057 -22.576  0.00  0.00    +0.034 C 
ATOM     28  C   UNL     1      34.646 -14.664 -20.195  0.00  0.00    +0.004 C 
BRANCH  26  32
ATOM     29  F   UNL     1      34.391 -11.989 -22.228  0.00  0.00    -0.166 F 
ATOM     30  F   UNL     1      32.603 -13.137 -22.665  0.00  0.00    -0.166 F 
ATOM     31  F   UNL     1      33.019 -12.513 -20.624  0.00  0.00    -0.166 F 
ATOM     32  C   UNL     1      33.609 -13.004 -21.752  0.00  0.00    +0.419 C 
ENDBRANCH  26  32
ENDBRANCH  20  23
ENDBRANCH  17  19
ENDBRANCH   3  17
TORSDOF 10
ENDMDL
MODEL 5
REMARK VINA RESULT:     -10.1      5.460     11.254
REMARK  Name = 11711595
REMARK  10 active torsions:
REMARK  status: ('A' for Active; 'I' for Inactive)
REMARK    1  A    between atoms: C_1  and  C_9
REMARK    2  A    between atoms: C_3  and  C_17
REMARK    3  A    between atoms: C_5  and  O_7
REMARK    4  A    between atoms: C_9  and  C_10
REMARK    5  A    between atoms: C_10  and  C_12
REMARK    6  A    between atoms: C_10  and  C_15
REMARK    7  A    between atoms: C_12  and  O_13
REMARK    8  A    between atoms: C_17  and  N_19
REMARK    9  A    between atoms: C_20  and  C_23
REMARK   10  A    between atoms: C_26  and  C_32
REMARK                            x       y       z     vdW  Elec       q    Type
REMARK                         _______ _______ _______ _____ _____    ______ ____
ROOT
ATOM      1  C   UNL     1      34.343 -14.025 -22.938  0.00  0.00    -0.022 C 
ATOM      2  C   UNL     1      35.174 -15.097 -22.607  0.00  0.00    -0.004 C 
ATOM      3  C   UNL     1      35.138 -16.267 -23.365  0.00  0.00    +0.031 C 
ATOM      4  C   UNL     1      33.477 -14.125 -24.026  0.00  0.00    -0.001 C 
ATOM      5  C   UNL     1      34.271 -16.366 -24.454  0.00  0.00    +0.136 C 
ATOM      6  C   UNL     1      33.441 -15.296 -24.785  0.00  0.00    +0.036 C 
ENDROOT
BRANCH   5   7
ATOM      7  O   UNL     1      34.223 -17.502 -25.205  0.00  0.00    -0.472 OA
ATOM      8  C   UNL     1      32.990 -18.220 -25.215  0.00  0.00    +0.252 C 
ENDBRANCH   5   7
BRANCH   1   9
ATOM      9  C   UNL     1      34.382 -12.758 -22.117  0.00  0.00    +0.037 C 
BRANCH   9  10
ATOM     10  C   UNL     1      33.136 -11.874 -22.306  0.00  0.00    +0.103 C 
BRANCH  10  12
ATOM     11  O   UNL     1      32.117 -10.793 -20.376  0.00  0.00    -0.250 OA
ATOM     12  C   UNL     1      32.350 -11.819 -21.003  0.00  0.00    +0.314 C 
BRANCH  12  13
ATOM     13  O   UNL     1      31.905 -13.039 -20.609  0.00  0.00    -0.480 OA
ATOM     14  H   UNL     1      30.985 -13.199 -20.529  0.00  0.00    +0.295 HD
ENDBRANCH  12  13
ENDBRANCH  10  12
BRANCH  10  15
ATOM     15  C   UNL     1      33.551 -10.454 -22.734  0.00  0.00    +0.011 C 
ATOM     16  C   UNL     1      34.456 -10.452 -23.960  0.00  0.00    +0.001 C 
ENDBRANCH  10  15
ENDBRANCH   9  10
ENDBRANCH   1   9
BRANCH   3  17
ATOM     17  C   UNL     1      36.033 -17.403 -22.997  0.00  0.00    +0.120 C 
BRANCH  17  19
ATOM     18  O   UNL     1      37.312 -18.405 -20.630  0.00  0.00    -0.270 OA
ATOM     19  N   UNL     1      35.445 -18.260 -21.999  0.00  0.00    -0.297 N 
ATOM     20  C   UNL     1      36.145 -18.696 -20.882  0.00  0.00    +0.248 C 
ATOM     21  H   UNL     1      34.512 -18.548 -22.114  0.00  0.00    +0.150 HD
BRANCH  20  23
ATOM     22  F   UNL     1      37.445 -20.510 -19.151  0.00  0.00    -0.204 F 
ATOM     23  C   UNL     1      35.407 -19.598 -19.961  0.00  0.00    +0.081 C 
ATOM     24  C   UNL     1      36.105 -20.472 -19.128  0.00  0.00    +0.144 C 
ATOM     25  C   UNL     1      34.013 -19.567 -19.929  0.00  0.00    +0.007 C 
ATOM     26  C   UNL     1      34.015 -21.285 -18.231  0.00  0.00    +0.074 C 
ATOM     27  C   UNL     1      35.409 -21.316 -18.263  0.00  0.00    +0.034 C 
ATOM     28  C   UNL     1      33.317 -20.411 -19.064  0.00  0.00    +0.004 C 
BRANCH  26  32
ATOM     29  F   UNL     1      33.298 -23.501 -17.682  0.00  0.00    -0.166 F 
ATOM     30  F   UNL     1      33.749 -22.175 -16.027  0.00  0.00    -0.166 F 
ATOM     31  F   UNL     1      31.949 -21.862 -17.205  0.00  0.00    -0.166 F 
ATOM     32  C   UNL     1      33.271 -22.188 -17.305  0.00  0.00    +0.419 C 
ENDBRANCH  26  32
ENDBRANCH  20  23
ENDBRANCH  17  19
ENDBRANCH   3  17
TORSDOF 10
ENDMDL
MODEL 6
REMARK VINA RESULT:     -10.0      9.375     14.377
REMARK  Name = 11711595
REMARK  10 active torsions:
REMARK  status: ('A' for Active; 'I' for Inactive)
REMARK    1  A    between atoms: C_1  and  C_9
REMARK    2  A    between atoms: C_3  and  C_17
REMARK    3  A    between atoms: C_5  and  O_7
REMARK    4  A    between atoms: C_9  and  C_10
REMARK    5  A    between atoms: C_10  and  C_12
REMARK    6  A    between atoms: C_10  and  C_15
REMARK    7  A    between atoms: C_12  and  O_13
REMARK    8  A    between atoms: C_17  and  N_19
REMARK    9  A    between atoms: C_20  and  C_23
REMARK   10  A    between atoms: C_26  and  C_32
REMARK                            x       y       z     vdW  Elec       q    Type
REMARK                         _______ _______ _______ _____ _____    ______ ____
ROOT
ATOM      1  C   UNL     1      33.369  -8.045 -22.118  0.00  0.00    -0.022 C 
ATOM      2  C   UNL     1      33.121  -9.207 -22.851  0.00  0.00    -0.004 C 
ATOM      3  C   UNL     1      34.056  -9.655 -23.784  0.00  0.00    +0.031 C 
ATOM      4  C   UNL     1      34.551  -7.333 -22.319  0.00  0.00    -0.001 C 
ATOM      5  C   UNL     1      35.238  -8.942 -23.985  0.00  0.00    +0.136 C 
ATOM      6  C   UNL     1      35.485  -7.781 -23.253  0.00  0.00    +0.036 C 
ENDROOT
BRANCH   5   7
ATOM      7  O   UNL     1      36.161  -9.366 -24.893  0.00  0.00    -0.472 OA
ATOM      8  C   UNL     1      36.085  -8.808 -26.203  0.00  0.00    +0.252 C 
ENDBRANCH   5   7
BRANCH   1   9
ATOM      9  C   UNL     1      32.357  -7.559 -21.108  0.00  0.00    +0.037 C 
BRANCH   9  10
ATOM     10  C   UNL     1      32.936  -7.418 -19.688  0.00  0.00    +0.103 C 
BRANCH  10  12
ATOM     11  O   UNL     1      32.779  -5.663 -18.007  0.00  0.00    -0.250 OA
ATOM     12  C   UNL     1      32.698  -6.002 -19.182  0.00  0.00    +0.314 C 
BRANCH  12  13
ATOM     13  O   UNL     1      32.404  -5.131 -20.180  0.00  0.00    -0.480 OA
ATOM     14  H   UNL     1      31.514  -5.004 -20.445  0.00  0.00    +0.295 HD
ENDBRANCH  12  13
ENDBRANCH  10  12
BRANCH  10  15
ATOM     15  C   UNL     1      32.277  -8.438 -18.740  0.00  0.00    +0.011 C 
ATOM     16  C   UNL     1      31.577  -9.566 -19.488  0.00  0.00    +0.001 C 
ENDBRANCH  10  15
ENDBRANCH   9  10
ENDBRANCH   1   9
BRANCH   3  17
ATOM     17  C   UNL     1      33.774 -10.900 -24.559  0.00  0.00    +0.120 C 
BRANCH  17  19
ATOM     18  O   UNL     1      32.997 -13.615 -25.074  0.00  0.00    -0.270 OA
ATOM     19  N   UNL     1      34.278 -12.078 -23.901  0.00  0.00    -0.297 N 
ATOM     20  C   UNL     1      33.840 -13.357 -24.219  0.00  0.00    +0.248 C 
ATOM     21  H   UNL     1      34.958 -11.973 -23.197  0.00  0.00    +0.150 HD
BRANCH  20  23
ATOM     22  F   UNL     1      34.561 -15.834 -25.368  0.00  0.00    -0.204 F 
ATOM     23  C   UNL     1      34.436 -14.465 -23.430  0.00  0.00    +0.081 C 
ATOM     24  C   UNL     1      34.773 -15.666 -24.054  0.00  0.00    +0.144 C 
ATOM     25  C   UNL     1      34.661 -14.302 -22.063  0.00  0.00    +0.007 C 
ATOM     26  C   UNL     1      35.559 -16.542 -21.945  0.00  0.00    +0.074 C 
ATOM     27  C   UNL     1      35.334 -16.705 -23.312  0.00  0.00    +0.034 C 
ATOM     28  C   UNL     1      35.222 -15.341 -21.321  0.00  0.00    +0.004 C 
BRANCH  26  32
ATOM     29  F   UNL     1      35.574 -18.867 -21.378  0.00  0.00    -0.166 F 
ATOM     30  F   UNL     1      37.488 -17.847 -21.400  0.00  0.00    -0.166 F 
ATOM     31  F   UNL     1      36.066 -17.446 -19.805  0.00  0.00    -0.166 F 
ATOM     32  C   UNL     1      36.160 -17.653 -21.151  0.00  0.00    +0.419 C 
ENDBRANCH  26  32
ENDBRANCH  20  23
ENDBRANCH  17  19
ENDBRANCH   3  17
TORSDOF 10
ENDMDL
MODEL 7
REMARK VINA RESULT:      -9.9      9.530     14.180
REMARK  Name = 11711595
REMARK  10 active torsions:
REMARK  status: ('A' for Active; 'I' for Inactive)
REMARK    1  A    between atoms: C_1  and  C_9
REMARK    2  A    between atoms: C_3  and  C_17
REMARK    3  A    between atoms: C_5  and  O_7
REMARK    4  A    between atoms: C_9  and  C_10
REMARK    5  A    between atoms: C_10  and  C_12
REMARK    6  A    between atoms: C_10  and  C_15
REMARK    7  A    between atoms: C_12  and  O_13
REMARK    8  A    between atoms: C_17  and  N_19
REMARK    9  A    between atoms: C_20  and  C_23
REMARK   10  A    between atoms: C_26  and  C_32
REMARK                            x       y       z     vdW  Elec       q    Type
REMARK                         _______ _______ _______ _____ _____    ______ ____
ROOT
ATOM      1  C   UNL     1      32.806  -7.886 -21.334  0.00  0.00    -0.022 C 
ATOM      2  C   UNL     1      33.364  -8.668 -22.347  0.00  0.00    -0.004 C 
ATOM      3  C   UNL     1      33.096 -10.036 -22.400  0.00  0.00    +0.031 C 
ATOM      4  C   UNL     1      31.981  -8.473 -20.375  0.00  0.00    -0.001 C 
ATOM      5  C   UNL     1      32.271 -10.622 -21.440  0.00  0.00    +0.136 C 
ATOM      6  C   UNL     1      31.714  -9.841 -20.428  0.00  0.00    +0.036 C 
ENDROOT
BRANCH   5   7
ATOM      7  O   UNL     1      32.000 -11.957 -21.476  0.00  0.00    -0.472 OA
ATOM      8  C   UNL     1      32.055 -12.664 -20.239  0.00  0.00    +0.252 C 
ENDBRANCH   5   7
BRANCH   1   9
ATOM      9  C   UNL     1      33.096  -6.405 -21.277  0.00  0.00    +0.037 C 
BRANCH   9  10
ATOM     10  C   UNL     1      32.079  -5.620 -20.428  0.00  0.00    +0.103 C 
BRANCH  10  12
ATOM     11  O   UNL     1      33.308  -6.112 -18.384  0.00  0.00    -0.250 OA
ATOM     12  C   UNL     1      32.687  -5.307 -19.068  0.00  0.00    +0.314 C 
BRANCH  12  13
ATOM     13  O   UNL     1      32.492  -4.018 -18.691  0.00  0.00    -0.480 OA
ATOM     14  H   UNL     1      32.161  -3.394 -19.307  0.00  0.00    +0.295 HD
ENDBRANCH  12  13
ENDBRANCH  10  12
BRANCH  10  15
ATOM     15  C   UNL     1      31.683  -4.315 -21.144  0.00  0.00    +0.011 C 
ATOM     16  C   UNL     1      32.074  -4.312 -22.617  0.00  0.00    +0.001 C 
ENDBRANCH  10  15
ENDBRANCH   9  10
ENDBRANCH   1   9
BRANCH   3  17
ATOM     17  C   UNL     1      33.702 -10.856 -23.490  0.00  0.00    +0.120 C 
BRANCH  17  19
ATOM     18  O   UNL     1      33.343 -13.431 -24.708  0.00  0.00    -0.270 OA
ATOM     19  N   UNL     1      34.211 -12.114 -23.007  0.00  0.00    -0.297 N 
ATOM     20  C   UNL     1      33.985 -13.315 -23.667  0.00  0.00    +0.248 C 
ATOM     21  H   UNL     1      34.740 -12.123 -22.177  0.00  0.00    +0.150 HD
BRANCH  20  23
ATOM     22  F   UNL     1      34.618 -15.654 -25.118  0.00  0.00    -0.204 F 
ATOM     23  C   UNL     1      34.555 -14.528 -23.027  0.00  0.00    +0.081 C 
ATOM     24  C   UNL     1      34.848 -15.654 -23.796  0.00  0.00    +0.144 C 
ATOM     25  C   UNL     1      34.797 -14.539 -21.653  0.00  0.00    +0.007 C 
ATOM     26  C   UNL     1      35.626 -16.802 -21.819  0.00  0.00    +0.074 C 
ATOM     27  C   UNL     1      35.384 -16.791 -23.193  0.00  0.00    +0.034 C 
ATOM     28  C   UNL     1      35.333 -15.677 -21.049  0.00  0.00    +0.004 C 
BRANCH  26  32
ATOM     29  F   UNL     1      37.546 -18.158 -21.367  0.00  0.00    -0.166 F 
ATOM     30  F   UNL     1      36.029 -18.051 -19.820  0.00  0.00    -0.166 F 
ATOM     31  F   UNL     1      35.642 -19.173 -21.641  0.00  0.00    -0.166 F 
ATOM     32  C   UNL     1      36.200 -18.019 -21.174  0.00  0.00    +0.419 C 
ENDBRANCH  26  32
ENDBRANCH  20  23
ENDBRANCH  17  19
ENDBRANCH   3  17
TORSDOF 10
ENDMDL
MODEL 8
REMARK VINA RESULT:      -9.8      7.796     12.571
REMARK  Name = 11711595
REMARK  10 active torsions:
REMARK  status: ('A' for Active; 'I' for Inactive)
REMARK    1  A    between atoms: C_1  and  C_9
REMARK    2  A    between atoms: C_3  and  C_17
REMARK    3  A    between atoms: C_5  and  O_7
REMARK    4  A    between atoms: C_9  and  C_10
REMARK    5  A    between atoms: C_10  and  C_12
REMARK    6  A    between atoms: C_10  and  C_15
REMARK    7  A    between atoms: C_12  and  O_13
REMARK    8  A    between atoms: C_17  and  N_19
REMARK    9  A    between atoms: C_20  and  C_23
REMARK   10  A    between atoms: C_26  and  C_32
REMARK                            x       y       z     vdW  Elec       q    Type
REMARK                         _______ _______ _______ _____ _____    ______ ____
ROOT
ATOM      1  C   UNL     1      32.568 -10.538 -22.071  0.00  0.00    -0.022 C 
ATOM      2  C   UNL     1      32.820 -11.712 -22.781  0.00  0.00    -0.004 C 
ATOM      3  C   UNL     1      33.639 -11.682 -23.910  0.00  0.00    +0.031 C 
ATOM      4  C   UNL     1      33.135  -9.334 -22.490  0.00  0.00    -0.001 C 
ATOM      5  C   UNL     1      34.206 -10.478 -24.329  0.00  0.00    +0.136 C 
ATOM      6  C   UNL     1      33.954  -9.304 -23.619  0.00  0.00    +0.036 C 
ENDROOT
BRANCH   5   7
ATOM      7  O   UNL     1      35.008 -10.431 -25.429  0.00  0.00    -0.472 OA
ATOM      8  C   UNL     1      35.885  -9.311 -25.545  0.00  0.00    +0.252 C 
ENDBRANCH   5   7
BRANCH   1   9
ATOM      9  C   UNL     1      31.682 -10.570 -20.849  0.00  0.00    +0.037 C 
BRANCH   9  10
ATOM     10  C   UNL     1      32.413 -11.049 -19.581  0.00  0.00    +0.103 C 
BRANCH  10  12
ATOM     11  O   UNL     1      32.752  -8.982 -18.338  0.00  0.00    -0.250 OA
ATOM     12  C   UNL     1      32.173 -10.056 -18.452  0.00  0.00    +0.314 C 
BRANCH  12  13
ATOM     13  O   UNL     1      31.220 -10.474 -17.580  0.00  0.00    -0.480 OA
ATOM     14  H   UNL     1      30.318 -10.276 -17.741  0.00  0.00    +0.295 HD
ENDBRANCH  12  13
ENDBRANCH  10  12
BRANCH  10  15
ATOM     15  C   UNL     1      31.911 -12.446 -19.173  0.00  0.00    +0.011 C 
ATOM     16  C   UNL     1      32.650 -13.568 -19.892  0.00  0.00    +0.001 C 
ENDBRANCH  10  15
ENDBRANCH   9  10
ENDBRANCH   1   9
BRANCH   3  17
ATOM     17  C   UNL     1      33.898 -12.948 -24.658  0.00  0.00    +0.120 C 
BRANCH  17  19
ATOM     18  O   UNL     1      34.933 -15.514 -25.422  0.00  0.00    -0.270 OA
ATOM     19  N   UNL     1      34.205 -14.047 -23.779  0.00  0.00    -0.297 N 
ATOM     20  C   UNL     1      34.704 -15.257 -24.243  0.00  0.00    +0.248 C 
ATOM     21  H   UNL     1      34.054 -13.938 -22.813  0.00  0.00    +0.150 HD
BRANCH  20  23
ATOM     22  F   UNL     1      34.189 -17.997 -24.696  0.00  0.00    -0.204 F 
ATOM     23  C   UNL     1      34.944 -16.301 -23.214  0.00  0.00    +0.081 C 
ATOM     24  C   UNL     1      34.671 -17.639 -23.496  0.00  0.00    +0.144 C 
ATOM     25  C   UNL     1      35.444 -15.941 -21.962  0.00  0.00    +0.007 C 
ATOM     26  C   UNL     1      35.398 -18.257 -21.278  0.00  0.00    +0.074 C 
ATOM     27  C   UNL     1      34.898 -18.618 -22.529  0.00  0.00    +0.034 C 
ATOM     28  C   UNL     1      35.670 -16.919 -20.994  0.00  0.00    +0.004 C 
BRANCH  26  32
ATOM     29  F   UNL     1      34.575 -19.511 -19.413  0.00  0.00    -0.166 F 
ATOM     30  F   UNL     1      35.931 -20.531 -20.764  0.00  0.00    -0.166 F 
ATOM     31  F   UNL     1      36.689 -18.997 -19.423  0.00  0.00    -0.166 F 
ATOM     32  C   UNL     1      35.641 -19.303 -20.243  0.00  0.00    +0.419 C 
ENDBRANCH  26  32
ENDBRANCH  20  23
ENDBRANCH  17  19
ENDBRANCH   3  17
TORSDOF 10
ENDMDL
MODEL 9
REMARK VINA RESULT:      -9.7     10.130     14.637
REMARK  Name = 11711595
REMARK  10 active torsions:
REMARK  status: ('A' for Active; 'I' for Inactive)
REMARK    1  A    between atoms: C_1  and  C_9
REMARK    2  A    between atoms: C_3  and  C_17
REMARK    3  A    between atoms: C_5  and  O_7
REMARK    4  A    between atoms: C_9  and  C_10
REMARK    5  A    between atoms: C_10  and  C_12
REMARK    6  A    between atoms: C_10  and  C_15
REMARK    7  A    between atoms: C_12  and  O_13
REMARK    8  A    between atoms: C_17  and  N_19
REMARK    9  A    between atoms: C_20  and  C_23
REMARK   10  A    between atoms: C_26  and  C_32
REMARK                            x       y       z     vdW  Elec       q    Type
REMARK                         _______ _______ _______ _____ _____    ______ ____
ROOT
ATOM      1  C   UNL     1      32.725  -7.437 -20.789  0.00  0.00    -0.022 C 
ATOM      2  C   UNL     1      32.196  -8.519 -21.493  0.00  0.00    -0.004 C 
ATOM      3  C   UNL     1      31.813  -9.674 -20.811  0.00  0.00    +0.031 C 
ATOM      4  C   UNL     1      32.872  -7.510 -19.404  0.00  0.00    -0.001 C 
ATOM      5  C   UNL     1      31.960  -9.747 -19.425  0.00  0.00    +0.136 C 
ATOM      6  C   UNL     1      32.490  -8.666 -18.722  0.00  0.00    +0.036 C 
ENDROOT
BRANCH   5   7
ATOM      7  O   UNL     1      31.592 -10.868 -18.743  0.00  0.00    -0.472 OA
ATOM      8  C   UNL     1      31.470 -10.754 -17.327  0.00  0.00    +0.252 C 
ENDBRANCH   5   7
BRANCH   1   9
ATOM      9  C   UNL     1      33.140  -6.186 -21.527  0.00  0.00    +0.037 C 
BRANCH   9  10
ATOM     10  C   UNL     1      31.946  -5.369 -22.055  0.00  0.00    +0.103 C 
BRANCH  10  12
ATOM     11  O   UNL     1      30.396  -4.318 -20.498  0.00  0.00    -0.250 OA
ATOM     12  C   UNL     1      31.513  -4.362 -20.999  0.00  0.00    +0.314 C 
BRANCH  12  13
ATOM     13  O   UNL     1      32.513  -3.515 -20.643  0.00  0.00    -0.480 OA
ATOM     14  H   UNL     1      33.050  -3.121 -21.302  0.00  0.00    +0.295 HD
ENDBRANCH  12  13
ENDBRANCH  10  12
BRANCH  10  15
ATOM     15  C   UNL     1      32.333  -4.641 -23.356  0.00  0.00    +0.011 C 
ATOM     16  C   UNL     1      31.794  -5.336 -24.600  0.00  0.00    +0.001 C 
ENDBRANCH  10  15
ENDBRANCH   9  10
ENDBRANCH   1   9
BRANCH   3  17
ATOM     17  C   UNL     1      31.248 -10.822 -21.579  0.00  0.00    +0.120 C 
BRANCH  17  19
ATOM     18  O   UNL     1      33.767 -11.345 -22.854  0.00  0.00    -0.270 OA
ATOM     19  N   UNL     1      32.048 -12.013 -21.448  0.00  0.00    -0.297 N 
ATOM     20  C   UNL     1      33.259 -12.177 -22.107  0.00  0.00    +0.248 C 
ATOM     21  H   UNL     1      31.723 -12.740 -20.869  0.00  0.00    +0.150 HD
BRANCH  20  23
ATOM     22  F   UNL     1      33.936 -13.923 -24.222  0.00  0.00    -0.204 F 
ATOM     23  C   UNL     1      33.950 -13.474 -21.889  0.00  0.00    +0.081 C 
ATOM     24  C   UNL     1      34.259 -14.294 -22.974  0.00  0.00    +0.144 C 
ATOM     25  C   UNL     1      34.292 -13.869 -20.596  0.00  0.00    +0.007 C 
ATOM     26  C   UNL     1      35.251 -15.906 -21.474  0.00  0.00    +0.074 C 
ATOM     27  C   UNL     1      34.910 -15.510 -22.767  0.00  0.00    +0.034 C 
ATOM     28  C   UNL     1      34.942 -15.086 -20.388  0.00  0.00    +0.004 C 
BRANCH  26  32
ATOM     29  F   UNL     1      37.148 -17.301 -21.895  0.00  0.00    -0.166 F 
ATOM     30  F   UNL     1      36.225 -17.461 -19.939  0.00  0.00    -0.166 F 
ATOM     31  F   UNL     1      35.214 -18.274 -21.685  0.00  0.00    -0.166 F 
ATOM     32  C   UNL     1      35.947 -17.206 -21.252  0.00  0.00    +0.419 C 
ENDBRANCH  26  32
ENDBRANCH  20  23
ENDBRANCH  17  19
ENDBRANCH   3  17
TORSDOF 10
ENDMDL
