MODEL 1
REMARK VINA RESULT:     -12.8      0.000      0.000
REMARK  Name = 447736
REMARK  4 active torsions:
REMARK  status: ('A' for Active; 'I' for Inactive)
REMARK    1  A    between atoms: N_2  and  C_13
REMARK    2  A    between atoms: C_3  and  C_20
REMARK    3  A    between atoms: C_6  and  C_17
REMARK    4  A    between atoms: C_28  and  C_32
REMARK                            x       y       z     vdW  Elec       q    Type
REMARK                         _______ _______ _______ _____ _____    ______ ____
ROOT
ATOM      1  O   UNL     1      33.987 -23.265 -17.432  0.00  0.00    -0.270 OA
ATOM      2  N   UNL     1      35.145 -21.707 -16.106  0.00  0.00    -0.280 N 
ATOM      3  C   UNL     1      34.487 -22.159 -17.257  0.00  0.00    +0.249 C 
ATOM      4  H   UNL     1      35.488 -20.785 -16.139  0.00  0.00    +0.155 HD
ENDROOT
BRANCH   2  13
ATOM      5  N   UNL     1      38.378 -24.957 -11.942  0.00  0.00    +0.388 N 
ATOM      6  C   UNL     1      38.333 -23.984 -13.051  0.00  0.00    -0.039 C 
ATOM      7  C   UNL     1      36.922 -23.541 -13.417  0.00  0.00    -0.045 C 
ATOM      8  C   UNL     1      35.853 -23.770 -12.527  0.00  0.00    -0.030 C 
ATOM      9  C   UNL     1      36.076 -24.509 -11.232  0.00  0.00    +0.003 C 
ATOM     10  C   UNL     1      37.547 -24.515 -10.824  0.00  0.00    -0.076 C 
ATOM     11  C   UNL     1      36.668 -22.831 -14.602  0.00  0.00    +0.008 C 
ATOM     12  C   UNL     1      34.558 -23.348 -12.860  0.00  0.00    -0.003 C 
ATOM     13  C   UNL     1      35.376 -22.404 -14.919  0.00  0.00    +0.050 C 
ATOM     14  C   UNL     1      34.321 -22.668 -14.053  0.00  0.00    +0.014 C 
ATOM     15  H   UNL     1      39.342 -25.054 -11.622  0.00  0.00    -0.084 HD
ATOM     16  H   UNL     1      38.021 -25.851 -12.278  0.00  0.00    -0.084 HD
BRANCH   6  17
ATOM     17  C   UNL     1      39.092 -24.619 -14.223  0.00  0.00    -0.015 C 
ATOM     18  C   UNL     1      40.571 -24.763 -13.881  0.00  0.00    -0.002 C 
ATOM     19  C   UNL     1      38.484 -25.972 -14.577  0.00  0.00    -0.002 C 
ENDBRANCH   6  17
ENDBRANCH   2  13
BRANCH   3  20
ATOM     20  C   UNL     1      34.425 -21.186 -18.378  0.00  0.00    +0.054 C 
ATOM     21  C   UNL     1      35.536 -19.599 -19.804  0.00  0.00    +0.000 C 
ATOM     22  C   UNL     1      35.577 -20.524 -18.747  0.00  0.00    +0.005 C 
ATOM     23  C   UNL     1      34.309 -19.364 -20.470  0.00  0.00    +0.000 C 
ATOM     24  C   UNL     1      33.221 -20.975 -19.008  0.00  0.00    +0.005 C 
ATOM     25  C   UNL     1      33.160 -20.060 -20.060  0.00  0.00    +0.000 C 
ATOM     26  C   UNL     1      34.267 -18.439 -21.526  0.00  0.00    +0.003 C 
ATOM     27  C   UNL     1      36.684 -18.904 -20.215  0.00  0.00    +0.000 C 
ATOM     28  C   UNL     1      35.418 -17.757 -21.921  0.00  0.00    +0.031 C 
ATOM     29  C   UNL     1      36.625 -17.989 -21.266  0.00  0.00    +0.003 C 
BRANCH  28  32
ATOM     30  N   UNL     1      34.704 -17.107 -24.209  0.00  0.00    -0.343 N 
ATOM     31  N   UNL     1      35.935 -15.620 -22.891  0.00  0.00    -0.285 NA
ATOM     32  C   UNL     1      35.358 -16.803 -23.016  0.00  0.00    +0.117 C 
ATOM     33  H   UNL     1      34.674 -16.445 -24.937  0.00  0.00    +0.144 HD
ATOM     34  H   UNL     1      34.270 -17.983 -24.322  0.00  0.00    +0.144 HD
ATOM     35  H   UNL     1      35.895 -14.973 -23.631  0.00  0.00    +0.188 HD
ENDBRANCH  28  32
ENDBRANCH   3  20
TORSDOF 4
ENDMDL
MODEL 2
REMARK VINA RESULT:     -11.6      2.205     10.591
REMARK  Name = 447736
REMARK  4 active torsions:
REMARK  status: ('A' for Active; 'I' for Inactive)
REMARK    1  A    between atoms: N_2  and  C_13
REMARK    2  A    between atoms: C_3  and  C_20
REMARK    3  A    between atoms: C_6  and  C_17
REMARK    4  A    between atoms: C_28  and  C_32
REMARK                            x       y       z     vdW  Elec       q    Type
REMARK                         _______ _______ _______ _____ _____    ______ ____
ROOT
ATOM      1  O   UNL     1      33.653 -20.541 -19.880  0.00  0.00    -0.270 OA
ATOM      2  N   UNL     1      35.593 -19.247 -20.180  0.00  0.00    -0.280 N 
ATOM      3  C   UNL     1      34.783 -20.199 -19.547  0.00  0.00    +0.249 C 
ATOM      4  H   UNL     1      36.478 -19.096 -19.775  0.00  0.00    +0.155 HD
ENDROOT
BRANCH   2  13
ATOM      5  N   UNL     1      34.357 -14.137 -23.452  0.00  0.00    +0.388 N 
ATOM      6  C   UNL     1      34.972 -14.788 -22.278  0.00  0.00    -0.039 C 
ATOM      7  C   UNL     1      34.973 -16.309 -22.355  0.00  0.00    -0.045 C 
ATOM      8  C   UNL     1      34.749 -16.957 -23.587  0.00  0.00    -0.030 C 
ATOM      9  C   UNL     1      34.443 -16.161 -24.830  0.00  0.00    +0.003 C 
ATOM     10  C   UNL     1      34.876 -14.703 -24.695  0.00  0.00    -0.076 C 
ATOM     11  C   UNL     1      35.274 -17.094 -21.230  0.00  0.00    +0.008 C 
ATOM     12  C   UNL     1      34.766 -18.358 -23.658  0.00  0.00    -0.003 C 
ATOM     13  C   UNL     1      35.300 -18.488 -21.313  0.00  0.00    +0.050 C 
ATOM     14  C   UNL     1      35.040 -19.120 -22.525  0.00  0.00    +0.014 C 
ATOM     15  H   UNL     1      34.567 -13.139 -23.427  0.00  0.00    -0.084 HD
ATOM     16  H   UNL     1      33.349 -14.291 -23.420  0.00  0.00    -0.084 HD
BRANCH   6  17
ATOM     17  C   UNL     1      34.241 -14.245 -21.043  0.00  0.00    -0.015 C 
ATOM     18  C   UNL     1      35.233 -13.596 -20.083  0.00  0.00    -0.002 C 
ATOM     19  C   UNL     1      33.162 -13.252 -21.460  0.00  0.00    -0.002 C 
ENDBRANCH   6  17
ENDBRANCH   2  13
BRANCH   3  20
ATOM     20  C   UNL     1      35.368 -20.825 -18.333  0.00  0.00    +0.054 C 
ATOM     21  C   UNL     1      35.097 -22.210 -16.385  0.00  0.00    +0.000 C 
ATOM     22  C   UNL     1      34.560 -21.612 -17.537  0.00  0.00    +0.005 C 
ATOM     23  C   UNL     1      36.459 -21.993 -16.062  0.00  0.00    +0.000 C 
ATOM     24  C   UNL     1      36.692 -20.599 -18.041  0.00  0.00    +0.005 C 
ATOM     25  C   UNL     1      37.243 -21.184 -16.901  0.00  0.00    +0.000 C 
ATOM     26  C   UNL     1      36.995 -22.591 -14.910  0.00  0.00    +0.003 C 
ATOM     27  C   UNL     1      34.314 -23.019 -15.546  0.00  0.00    +0.000 C 
ATOM     28  C   UNL     1      36.202 -23.392 -14.089  0.00  0.00    +0.031 C 
ATOM     29  C   UNL     1      34.863 -23.606 -14.407  0.00  0.00    +0.003 C 
BRANCH  28  32
ATOM     30  N   UNL     1      37.703 -23.328 -12.112  0.00  0.00    -0.343 N 
ATOM     31  N   UNL     1      36.411 -25.225 -12.549  0.00  0.00    -0.285 NA
ATOM     32  C   UNL     1      36.772 -24.004 -12.899  0.00  0.00    +0.117 C 
ATOM     33  H   UNL     1      38.076 -23.760 -11.309  0.00  0.00    +0.144 HD
ATOM     34  H   UNL     1      37.986 -22.418 -12.357  0.00  0.00    +0.144 HD
ATOM     35  H   UNL     1      36.796 -25.641 -11.744  0.00  0.00    +0.188 HD
ENDBRANCH  28  32
ENDBRANCH   3  20
TORSDOF 4
ENDMDL
MODEL 3
REMARK VINA RESULT:     -11.4      1.122      2.626
REMARK  Name = 447736
REMARK  4 active torsions:
REMARK  status: ('A' for Active; 'I' for Inactive)
REMARK    1  A    between atoms: N_2  and  C_13
REMARK    2  A    between atoms: C_3  and  C_20
REMARK    3  A    between atoms: C_6  and  C_17
REMARK    4  A    between atoms: C_28  and  C_32
REMARK                            x       y       z     vdW  Elec       q    Type
REMARK                         _______ _______ _______ _____ _____    ______ ____
ROOT
ATOM      1  O   UNL     1      34.611 -22.541 -17.230  0.00  0.00    -0.270 OA
ATOM      2  N   UNL     1      36.721 -21.566 -16.873  0.00  0.00    -0.280 N 
ATOM      3  C   UNL     1      35.473 -21.710 -17.495  0.00  0.00    +0.249 C 
ATOM      4  H   UNL     1      37.293 -20.841 -17.215  0.00  0.00    +0.155 HD
ENDROOT
BRANCH   2  13
ATOM      5  N   UNL     1      36.687 -24.833 -11.612  0.00  0.00    +0.388 N 
ATOM      6  C   UNL     1      35.988 -24.330 -12.811  0.00  0.00    -0.039 C 
ATOM      7  C   UNL     1      36.913 -23.666 -13.823  0.00  0.00    -0.045 C 
ATOM      8  C   UNL     1      38.306 -23.872 -13.753  0.00  0.00    -0.030 C 
ATOM      9  C   UNL     1      38.906 -24.696 -12.642  0.00  0.00    +0.003 C 
ATOM     10  C   UNL     1      37.872 -25.605 -11.983  0.00  0.00    -0.076 C 
ATOM     11  C   UNL     1      36.400 -22.907 -14.888  0.00  0.00    +0.008 C 
ATOM     12  C   UNL     1      39.154 -23.271 -14.695  0.00  0.00    -0.003 C 
ATOM     13  C   UNL     1      37.252 -22.324 -15.828  0.00  0.00    +0.050 C 
ATOM     14  C   UNL     1      38.628 -22.500 -15.729  0.00  0.00    +0.014 C 
ATOM     15  H   UNL     1      36.053 -25.431 -11.082  0.00  0.00    -0.084 HD
ATOM     16  H   UNL     1      36.982 -24.036 -11.048  0.00  0.00    -0.084 HD
BRANCH   6  17
ATOM     17  C   UNL     1      34.872 -23.404 -12.311  0.00  0.00    -0.015 C 
ATOM     18  C   UNL     1      33.513 -23.908 -12.783  0.00  0.00    -0.002 C 
ATOM     19  C   UNL     1      34.913 -23.298 -10.791  0.00  0.00    -0.002 C 
ENDBRANCH   6  17
ENDBRANCH   2  13
BRANCH   3  20
ATOM     20  C   UNL     1      35.204 -20.762 -18.607  0.00  0.00    +0.054 C 
ATOM     21  C   UNL     1      36.022 -19.159 -20.204  0.00  0.00    +0.000 C 
ATOM     22  C   UNL     1      36.260 -20.061 -19.153  0.00  0.00    +0.005 C 
ATOM     23  C   UNL     1      34.701 -18.987 -20.682  0.00  0.00    +0.000 C 
ATOM     24  C   UNL     1      33.912 -20.612 -19.053  0.00  0.00    +0.005 C 
ATOM     25  C   UNL     1      33.657 -19.720 -20.095  0.00  0.00    +0.000 C 
ATOM     26  C   UNL     1      34.464 -18.085 -21.732  0.00  0.00    +0.003 C 
ATOM     27  C   UNL     1      37.066 -18.426 -20.790  0.00  0.00    +0.000 C 
ATOM     28  C   UNL     1      35.513 -17.365 -22.303  0.00  0.00    +0.031 C 
ATOM     29  C   UNL     1      36.812 -17.536 -21.832  0.00  0.00    +0.003 C 
BRANCH  28  32
ATOM     30  N   UNL     1      34.468 -16.800 -24.484  0.00  0.00    -0.343 N 
ATOM     31  N   UNL     1      35.760 -15.217 -23.350  0.00  0.00    -0.285 NA
ATOM     32  C   UNL     1      35.250 -16.435 -23.390  0.00  0.00    +0.117 C 
ATOM     33  H   UNL     1      34.302 -16.154 -25.208  0.00  0.00    +0.144 HD
ATOM     34  H   UNL     1      34.082 -17.704 -24.533  0.00  0.00    +0.144 HD
ATOM     35  H   UNL     1      35.582 -14.585 -24.085  0.00  0.00    +0.188 HD
ENDBRANCH  28  32
ENDBRANCH   3  20
TORSDOF 4
ENDMDL
MODEL 4
REMARK VINA RESULT:     -11.3      2.169      4.018
REMARK  Name = 447736
REMARK  4 active torsions:
REMARK  status: ('A' for Active; 'I' for Inactive)
REMARK    1  A    between atoms: N_2  and  C_13
REMARK    2  A    between atoms: C_3  and  C_20
REMARK    3  A    between atoms: C_6  and  C_17
REMARK    4  A    between atoms: C_28  and  C_32
REMARK                            x       y       z     vdW  Elec       q    Type
REMARK                         _______ _______ _______ _____ _____    ______ ____
ROOT
ATOM      1  O   UNL     1      36.428 -21.470 -20.010  0.00  0.00    -0.270 OA
ATOM      2  N   UNL     1      36.180 -20.181 -18.060  0.00  0.00    -0.280 N 
ATOM      3  C   UNL     1      36.184 -20.411 -19.442  0.00  0.00    +0.249 C 
ATOM      4  H   UNL     1      35.962 -19.264 -17.775  0.00  0.00    +0.155 HD
ENDROOT
BRANCH   2  13
ATOM      5  N   UNL     1      34.896 -24.268 -13.588  0.00  0.00    +0.388 N 
ATOM      6  C   UNL     1      34.526 -23.586 -14.844  0.00  0.00    -0.039 C 
ATOM      7  C   UNL     1      35.652 -22.750 -15.439  0.00  0.00    -0.045 C 
ATOM      8  C   UNL     1      36.981 -22.943 -15.011  0.00  0.00    -0.030 C 
ATOM      9  C   UNL     1      37.300 -23.929 -13.917  0.00  0.00    +0.003 C 
ATOM     10  C   UNL     1      36.182 -24.950 -13.723  0.00  0.00    -0.076 C 
ATOM     11  C   UNL     1      35.407 -21.835 -16.476  0.00  0.00    +0.008 C 
ATOM     12  C   UNL     1      38.018 -22.183 -15.572  0.00  0.00    -0.003 C 
ATOM     13  C   UNL     1      36.448 -21.091 -17.037  0.00  0.00    +0.050 C 
ATOM     14  C   UNL     1      37.751 -21.260 -16.581  0.00  0.00    +0.014 C 
ATOM     15  H   UNL     1      34.178 -24.955 -13.357  0.00  0.00    -0.084 HD
ATOM     16  H   UNL     1      34.975 -23.570 -12.848  0.00  0.00    -0.084 HD
BRANCH   6  17
ATOM     17  C   UNL     1      33.261 -22.772 -14.543  0.00  0.00    -0.015 C 
ATOM     18  C   UNL     1      32.205 -23.017 -15.615  0.00  0.00    -0.002 C 
ATOM     19  C   UNL     1      32.722 -23.121 -13.160  0.00  0.00    -0.002 C 
ENDBRANCH   6  17
ENDBRANCH   2  13
BRANCH   3  20
ATOM     20  C   UNL     1      35.885 -19.224 -20.285  0.00  0.00    +0.054 C 
ATOM     21  C   UNL     1      34.997 -18.304 -22.323  0.00  0.00    +0.000 C 
ATOM     22  C   UNL     1      35.286 -19.416 -21.513  0.00  0.00    +0.005 C 
ATOM     23  C   UNL     1      35.328 -17.007 -21.862  0.00  0.00    +0.000 C 
ATOM     24  C   UNL     1      36.216 -17.975 -19.815  0.00  0.00    +0.005 C 
ATOM     25  C   UNL     1      35.938 -16.860 -20.605  0.00  0.00    +0.000 C 
ATOM     26  C   UNL     1      35.039 -15.897 -22.671  0.00  0.00    +0.003 C 
ATOM     27  C   UNL     1      34.388 -18.452 -23.578  0.00  0.00    +0.000 C 
ATOM     28  C   UNL     1      34.433 -16.062 -23.916  0.00  0.00    +0.031 C 
ATOM     29  C   UNL     1      34.108 -17.338 -24.369  0.00  0.00    +0.003 C 
BRANCH  28  32
ATOM     30  N   UNL     1      33.922 -13.646 -24.179  0.00  0.00    -0.343 N 
ATOM     31  N   UNL     1      34.079 -15.029 -26.057  0.00  0.00    -0.285 NA
ATOM     32  C   UNL     1      34.142 -14.902 -24.743  0.00  0.00    +0.117 C 
ATOM     33  H   UNL     1      33.727 -12.874 -24.758  0.00  0.00    +0.144 HD
ATOM     34  H   UNL     1      33.962 -13.532 -23.202  0.00  0.00    +0.144 HD
ATOM     35  H   UNL     1      33.882 -14.244 -26.618  0.00  0.00    +0.188 HD
ENDBRANCH  28  32
ENDBRANCH   3  20
TORSDOF 4
ENDMDL
MODEL 5
REMARK VINA RESULT:     -11.1      2.383      4.167
REMARK  Name = 447736
REMARK  4 active torsions:
REMARK  status: ('A' for Active; 'I' for Inactive)
REMARK    1  A    between atoms: N_2  and  C_13
REMARK    2  A    between atoms: C_3  and  C_20
REMARK    3  A    between atoms: C_6  and  C_17
REMARK    4  A    between atoms: C_28  and  C_32
REMARK                            x       y       z     vdW  Elec       q    Type
REMARK                         _______ _______ _______ _____ _____    ______ ____
ROOT
ATOM      1  O   UNL     1      37.592 -18.960 -18.581  0.00  0.00    -0.270 OA
ATOM      2  N   UNL     1      35.816 -20.498 -18.476  0.00  0.00    -0.280 N 
ATOM      3  C   UNL     1      36.558 -19.445 -19.029  0.00  0.00    +0.249 C 
ATOM      4  H   UNL     1      35.006 -20.761 -18.970  0.00  0.00    +0.155 HD
ENDROOT
BRANCH   2  13
ATOM      5  N   UNL     1      34.540 -23.858 -13.433  0.00  0.00    +0.388 N 
ATOM      6  C   UNL     1      34.186 -23.404 -14.793  0.00  0.00    -0.039 C 
ATOM      7  C   UNL     1      35.299 -22.630 -15.487  0.00  0.00    -0.045 C 
ATOM      8  C   UNL     1      36.620 -22.694 -14.998  0.00  0.00    -0.030 C 
ATOM      9  C   UNL     1      36.940 -23.476 -13.750  0.00  0.00    +0.003 C 
ATOM     10  C   UNL     1      35.855 -24.498 -13.422  0.00  0.00    -0.076 C 
ATOM     11  C   UNL     1      35.054 -21.905 -16.665  0.00  0.00    +0.008 C 
ATOM     12  C   UNL     1      37.645 -21.992 -15.649  0.00  0.00    -0.003 C 
ATOM     13  C   UNL     1      36.084 -21.219 -17.312  0.00  0.00    +0.050 C 
ATOM     14  C   UNL     1      37.377 -21.257 -16.802  0.00  0.00    +0.014 C 
ATOM     15  H   UNL     1      33.841 -24.528 -13.112  0.00  0.00    -0.084 HD
ATOM     16  H   UNL     1      34.569 -23.047 -12.816  0.00  0.00    -0.084 HD
BRANCH   6  17
ATOM     17  C   UNL     1      32.883 -22.606 -14.662  0.00  0.00    -0.015 C 
ATOM     18  C   UNL     1      31.865 -23.079 -15.694  0.00  0.00    -0.002 C 
ATOM     19  C   UNL     1      32.322 -22.734 -13.250  0.00  0.00    -0.002 C 
ENDBRANCH   6  17
ENDBRANCH   2  13
BRANCH   3  20
ATOM     20  C   UNL     1      35.996 -18.855 -20.272  0.00  0.00    +0.054 C 
ATOM     21  C   UNL     1      35.463 -16.909 -21.581  0.00  0.00    +0.000 C 
ATOM     22  C   UNL     1      35.992 -17.482 -20.412  0.00  0.00    +0.005 C 
ATOM     23  C   UNL     1      34.945 -17.752 -22.593  0.00  0.00    +0.000 C 
ATOM     24  C   UNL     1      35.499 -19.696 -21.239  0.00  0.00    +0.005 C 
ATOM     25  C   UNL     1      34.970 -19.144 -22.406  0.00  0.00    +0.000 C 
ATOM     26  C   UNL     1      34.417 -17.178 -23.760  0.00  0.00    +0.003 C 
ATOM     27  C   UNL     1      35.439 -15.517 -21.767  0.00  0.00    +0.000 C 
ATOM     28  C   UNL     1      34.401 -15.794 -23.929  0.00  0.00    +0.031 C 
ATOM     29  C   UNL     1      34.911 -14.965 -22.934  0.00  0.00    +0.003 C 
BRANCH  28  32
ATOM     30  N   UNL     1      34.137 -13.904 -25.518  0.00  0.00    -0.343 N 
ATOM     31  N   UNL     1      33.056 -15.937 -25.915  0.00  0.00    -0.285 NA
ATOM     32  C   UNL     1      33.850 -15.215 -25.144  0.00  0.00    +0.117 C 
ATOM     33  H   UNL     1      33.754 -13.532 -26.346  0.00  0.00    +0.144 HD
ATOM     34  H   UNL     1      34.724 -13.349 -24.955  0.00  0.00    +0.144 HD
ATOM     35  H   UNL     1      32.682 -15.547 -26.739  0.00  0.00    +0.188 HD
ENDBRANCH  28  32
ENDBRANCH   3  20
TORSDOF 4
ENDMDL
MODEL 6
REMARK VINA RESULT:     -10.9      3.408     10.956
REMARK  Name = 447736
REMARK  4 active torsions:
REMARK  status: ('A' for Active; 'I' for Inactive)
REMARK    1  A    between atoms: N_2  and  C_13
REMARK    2  A    between atoms: C_3  and  C_20
REMARK    3  A    between atoms: C_6  and  C_17
REMARK    4  A    between atoms: C_28  and  C_32
REMARK                            x       y       z     vdW  Elec       q    Type
REMARK                         _______ _______ _______ _____ _____    ______ ____
ROOT
ATOM      1  O   UNL     1      34.892 -19.097 -21.895  0.00  0.00    -0.270 OA
ATOM      2  N   UNL     1      35.157 -17.284 -20.421  0.00  0.00    -0.280 N 
ATOM      3  C   UNL     1      35.102 -18.639 -20.777  0.00  0.00    +0.249 C 
ATOM      4  H   UNL     1      35.337 -17.094 -19.472  0.00  0.00    +0.155 HD
ENDROOT
BRANCH   2  13
ATOM      5  N   UNL     1      33.090 -11.691 -22.094  0.00  0.00    +0.388 N 
ATOM      6  C   UNL     1      33.466 -12.655 -21.041  0.00  0.00    -0.039 C 
ATOM      7  C   UNL     1      34.147 -13.908 -21.575  0.00  0.00    -0.045 C 
ATOM      8  C   UNL     1      34.674 -13.927 -22.883  0.00  0.00    -0.030 C 
ATOM      9  C   UNL     1      34.516 -12.734 -23.792  0.00  0.00    +0.003 C 
ATOM     10  C   UNL     1      34.203 -11.460 -23.013  0.00  0.00    -0.076 C 
ATOM     11  C   UNL     1      34.337 -15.036 -20.759  0.00  0.00    +0.008 C 
ATOM     12  C   UNL     1      35.314 -15.077 -23.366  0.00  0.00    -0.003 C 
ATOM     13  C   UNL     1      34.987 -16.172 -21.246  0.00  0.00    +0.050 C 
ATOM     14  C   UNL     1      35.469 -16.195 -22.551  0.00  0.00    +0.014 C 
ATOM     15  H   UNL     1      32.827 -10.807 -21.659  0.00  0.00    -0.084 HD
ATOM     16  H   UNL     1      32.307 -12.076 -22.623  0.00  0.00    -0.084 HD
BRANCH   6  17
ATOM     17  C   UNL     1      32.190 -12.952 -20.243  0.00  0.00    -0.015 C 
ATOM     18  C   UNL     1      32.500 -13.877 -19.071  0.00  0.00    -0.002 C 
ATOM     19  C   UNL     1      31.554 -11.655 -19.757  0.00  0.00    -0.002 C 
ENDBRANCH   6  17
ENDBRANCH   2  13
BRANCH   3  20
ATOM     20  C   UNL     1      35.296 -19.598 -19.659  0.00  0.00    +0.054 C 
ATOM     21  C   UNL     1      34.364 -21.180 -18.105  0.00  0.00    +0.000 C 
ATOM     22  C   UNL     1      34.198 -20.270 -19.163  0.00  0.00    +0.005 C 
ATOM     23  C   UNL     1      35.657 -21.389 -17.568  0.00  0.00    +0.000 C 
ATOM     24  C   UNL     1      36.562 -19.783 -19.155  0.00  0.00    +0.005 C 
ATOM     25  C   UNL     1      36.746 -20.682 -18.104  0.00  0.00    +0.000 C 
ATOM     26  C   UNL     1      35.823 -22.298 -16.511  0.00  0.00    +0.003 C 
ATOM     27  C   UNL     1      33.276 -21.887 -17.569  0.00  0.00    +0.000 C 
ATOM     28  C   UNL     1      34.731 -22.992 -15.991  0.00  0.00    +0.031 C 
ATOM     29  C   UNL     1      33.459 -22.787 -16.519  0.00  0.00    +0.003 C 
BRANCH  28  32
ATOM     30  N   UNL     1      34.136 -23.866 -13.744  0.00  0.00    -0.343 N 
ATOM     31  N   UNL     1      35.850 -24.863 -14.981  0.00  0.00    -0.285 NA
ATOM     32  C   UNL     1      34.919 -23.930 -14.895  0.00  0.00    +0.117 C 
ATOM     33  H   UNL     1      34.280 -24.512 -13.014  0.00  0.00    +0.144 HD
ATOM     34  H   UNL     1      33.439 -23.177 -13.660  0.00  0.00    +0.144 HD
ATOM     35  H   UNL     1      35.979 -25.499 -14.240  0.00  0.00    +0.188 HD
ENDBRANCH  28  32
ENDBRANCH   3  20
TORSDOF 4
ENDMDL
MODEL 7
REMARK VINA RESULT:     -10.9      3.698     11.924
REMARK  Name = 447736
REMARK  4 active torsions:
REMARK  status: ('A' for Active; 'I' for Inactive)
REMARK    1  A    between atoms: N_2  and  C_13
REMARK    2  A    between atoms: C_3  and  C_20
REMARK    3  A    between atoms: C_6  and  C_17
REMARK    4  A    between atoms: C_28  and  C_32
REMARK                            x       y       z     vdW  Elec       q    Type
REMARK                         _______ _______ _______ _____ _____    ______ ____
ROOT
ATOM      1  O   UNL     1      34.300 -18.319 -23.306  0.00  0.00    -0.270 OA
ATOM      2  N   UNL     1      35.074 -16.341 -22.299  0.00  0.00    -0.280 N 
ATOM      3  C   UNL     1      34.855 -17.722 -22.390  0.00  0.00    +0.249 C 
ATOM      4  H   UNL     1      35.538 -16.029 -21.488  0.00  0.00    +0.155 HD
ENDROOT
BRANCH   2  13
ATOM      5  N   UNL     1      33.464 -10.685 -24.242  0.00  0.00    +0.388 N 
ATOM      6  C   UNL     1      34.139 -11.558 -23.261  0.00  0.00    -0.039 C 
ATOM      7  C   UNL     1      34.234 -13.013 -23.702  0.00  0.00    -0.045 C 
ATOM      8  C   UNL     1      34.028 -13.360 -25.053  0.00  0.00    -0.030 C 
ATOM      9  C   UNL     1      33.652 -12.310 -26.067  0.00  0.00    +0.003 C 
ATOM     10  C   UNL     1      33.996 -10.902 -25.587  0.00  0.00    -0.076 C 
ATOM     11  C   UNL     1      34.603 -14.023 -22.799  0.00  0.00    +0.008 C 
ATOM     12  C   UNL     1      34.132 -14.698 -25.459  0.00  0.00    -0.003 C 
ATOM     13  C   UNL     1      34.715 -15.352 -23.215  0.00  0.00    +0.050 C 
ATOM     14  C   UNL     1      34.473 -15.690 -24.542  0.00  0.00    +0.014 C 
ATOM     15  H   UNL     1      33.612  -9.711 -23.979  0.00  0.00    -0.084 HD
ATOM     16  H   UNL     1      32.469 -10.908 -24.246  0.00  0.00    -0.084 HD
BRANCH   6  17
ATOM     17  C   UNL     1      33.398 -11.375 -21.930  0.00  0.00    -0.015 C 
ATOM     18  C   UNL     1      32.735 -10.003 -21.877  0.00  0.00    -0.002 C 
ATOM     19  C   UNL     1      32.369 -12.483 -21.740  0.00  0.00    -0.002 C 
ENDBRANCH   6  17
ENDBRANCH   2  13
BRANCH   3  20
ATOM     20  C   UNL     1      35.333 -18.519 -21.231  0.00  0.00    +0.054 C 
ATOM     21  C   UNL     1      34.868 -20.083 -19.463  0.00  0.00    +0.000 C 
ATOM     22  C   UNL     1      34.433 -19.323 -20.562  0.00  0.00    +0.005 C 
ATOM     23  C   UNL     1      36.223 -20.007 -19.062  0.00  0.00    +0.000 C 
ATOM     24  C   UNL     1      36.654 -18.428 -20.861  0.00  0.00    +0.005 C 
ATOM     25  C   UNL     1      37.104 -19.175 -19.772  0.00  0.00    +0.000 C 
ATOM     26  C   UNL     1      36.657 -20.766 -17.963  0.00  0.00    +0.003 C 
ATOM     27  C   UNL     1      33.987 -20.915 -18.753  0.00  0.00    +0.000 C 
ATOM     28  C   UNL     1      35.769 -21.588 -17.270  0.00  0.00    +0.031 C 
ATOM     29  C   UNL     1      34.436 -21.662 -17.665  0.00  0.00    +0.003 C 
BRANCH  28  32
ATOM     30  N   UNL     1      37.548 -22.270 -15.677  0.00  0.00    -0.343 N 
ATOM     31  N   UNL     1      35.405 -23.189 -15.515  0.00  0.00    -0.285 NA
ATOM     32  C   UNL     1      36.234 -22.367 -16.134  0.00  0.00    +0.117 C 
ATOM     33  H   UNL     1      37.841 -22.806 -14.905  0.00  0.00    +0.144 HD
ATOM     34  H   UNL     1      38.181 -21.665 -16.126  0.00  0.00    +0.144 HD
ATOM     35  H   UNL     1      35.718 -23.717 -14.746  0.00  0.00    +0.188 HD
ENDBRANCH  28  32
ENDBRANCH   3  20
TORSDOF 4
ENDMDL
MODEL 8
REMARK VINA RESULT:     -10.8      0.743      1.637
REMARK  Name = 447736
REMARK  4 active torsions:
REMARK  status: ('A' for Active; 'I' for Inactive)
REMARK    1  A    between atoms: N_2  and  C_13
REMARK    2  A    between atoms: C_3  and  C_20
REMARK    3  A    between atoms: C_6  and  C_17
REMARK    4  A    between atoms: C_28  and  C_32
REMARK                            x       y       z     vdW  Elec       q    Type
REMARK                         _______ _______ _______ _____ _____    ______ ____
ROOT
ATOM      1  O   UNL     1      34.575 -22.679 -17.753  0.00  0.00    -0.270 OA
ATOM      2  N   UNL     1      35.978 -21.418 -16.350  0.00  0.00    -0.280 N 
ATOM      3  C   UNL     1      35.291 -21.708 -17.537  0.00  0.00    +0.249 C 
ATOM      4  H   UNL     1      36.511 -20.590 -16.350  0.00  0.00    +0.155 HD
ENDROOT
BRANCH   2  13
ATOM      5  N   UNL     1      38.318 -25.176 -12.019  0.00  0.00    +0.388 N 
ATOM      6  C   UNL     1      38.514 -24.191 -13.102  0.00  0.00    -0.039 C 
ATOM      7  C   UNL     1      37.222 -23.536 -13.573  0.00  0.00    -0.045 C 
ATOM      8  C   UNL     1      36.057 -23.615 -12.781  0.00  0.00    -0.030 C 
ATOM      9  C   UNL     1      36.055 -24.397 -11.493  0.00  0.00    +0.003 C 
ATOM     10  C   UNL     1      37.468 -24.629 -10.963  0.00  0.00    -0.076 C 
ATOM     11  C   UNL     1      37.180 -22.779 -14.755  0.00  0.00    +0.008 C 
ATOM     12  C   UNL     1      34.873 -22.998 -13.210  0.00  0.00    -0.003 C 
ATOM     13  C   UNL     1      35.998 -22.158 -15.167  0.00  0.00    +0.050 C 
ATOM     14  C   UNL     1      34.845 -22.273 -14.400  0.00  0.00    +0.014 C 
ATOM     15  H   UNL     1      39.225 -25.421 -11.623  0.00  0.00    -0.084 HD
ATOM     16  H   UNL     1      37.862 -26.001 -12.409  0.00  0.00    -0.084 HD
BRANCH   6  17
ATOM     17  C   UNL     1      39.269 -24.916 -14.223  0.00  0.00    -0.015 C 
ATOM     18  C   UNL     1      40.711 -25.183 -13.805  0.00  0.00    -0.002 C 
ATOM     19  C   UNL     1      38.560 -26.217 -14.584  0.00  0.00    -0.002 C 
ENDBRANCH   6  17
ENDBRANCH   2  13
BRANCH   3  20
ATOM     20  C   UNL     1      35.491 -20.734 -18.641  0.00  0.00    +0.054 C 
ATOM     21  C   UNL     1      34.600 -19.521 -20.518  0.00  0.00    +0.000 C 
ATOM     22  C   UNL     1      34.427 -20.439 -19.468  0.00  0.00    +0.005 C 
ATOM     23  C   UNL     1      35.865 -18.915 -20.707  0.00  0.00    +0.000 C 
ATOM     24  C   UNL     1      36.730 -20.160 -18.804  0.00  0.00    +0.005 C 
ATOM     25  C   UNL     1      36.921 -19.246 -19.841  0.00  0.00    +0.000 C 
ATOM     26  C   UNL     1      36.038 -17.998 -21.755  0.00  0.00    +0.003 C 
ATOM     27  C   UNL     1      33.545 -19.191 -21.383  0.00  0.00    +0.000 C 
ATOM     28  C   UNL     1      34.978 -17.681 -22.605  0.00  0.00    +0.031 C 
ATOM     29  C   UNL     1      33.734 -18.277 -22.419  0.00  0.00    +0.003 C 
BRANCH  28  32
ATOM     30  N   UNL     1      35.779 -15.494 -23.467  0.00  0.00    -0.343 N 
ATOM     31  N   UNL     1      34.771 -17.031 -24.909  0.00  0.00    -0.285 NA
ATOM     32  C   UNL     1      35.174 -16.730 -23.688  0.00  0.00    +0.117 C 
ATOM     33  H   UNL     1      35.902 -14.865 -24.214  0.00  0.00    +0.144 HD
ATOM     34  H   UNL     1      36.084 -15.251 -22.563  0.00  0.00    +0.144 HD
ATOM     35  H   UNL     1      34.902 -16.388 -25.643  0.00  0.00    +0.188 HD
ENDBRANCH  28  32
ENDBRANCH   3  20
TORSDOF 4
ENDMDL
MODEL 9
REMARK VINA RESULT:     -10.6      7.746     12.480
REMARK  Name = 447736
REMARK  4 active torsions:
REMARK  status: ('A' for Active; 'I' for Inactive)
REMARK    1  A    between atoms: N_2  and  C_13
REMARK    2  A    between atoms: C_3  and  C_20
REMARK    3  A    between atoms: C_6  and  C_17
REMARK    4  A    between atoms: C_28  and  C_32
REMARK                            x       y       z     vdW  Elec       q    Type
REMARK                         _______ _______ _______ _____ _____    ______ ____
ROOT
ATOM      1  O   UNL     1      31.963 -12.007 -21.573  0.00  0.00    -0.270 OA
ATOM      2  N   UNL     1      34.281 -12.161 -21.938  0.00  0.00    -0.280 N 
ATOM      3  C   UNL     1      33.031 -11.526 -21.936  0.00  0.00    +0.249 C 
ATOM      4  H   UNL     1      35.038 -11.623 -22.266  0.00  0.00    +0.155 HD
ENDROOT
BRANCH   2  13
ATOM      5  N   UNL     1      35.240 -18.246 -22.570  0.00  0.00    +0.388 N 
ATOM      6  C   UNL     1      35.228 -16.886 -23.143  0.00  0.00    -0.039 C 
ATOM      7  C   UNL     1      35.032 -15.788 -22.105  0.00  0.00    -0.045 C 
ATOM      8  C   UNL     1      35.225 -16.063 -20.736  0.00  0.00    -0.030 C 
ATOM      9  C   UNL     1      35.565 -17.457 -20.273  0.00  0.00    +0.003 C 
ATOM     10  C   UNL     1      36.122 -18.315 -21.406  0.00  0.00    -0.076 C 
ATOM     11  C   UNL     1      34.736 -14.470 -22.489  0.00  0.00    +0.008 C 
ATOM     12  C   UNL     1      35.058 -15.046 -19.784  0.00  0.00    -0.003 C 
ATOM     13  C   UNL     1      34.584 -13.462 -21.535  0.00  0.00    +0.050 C 
ATOM     14  C   UNL     1      34.738 -13.751 -20.183  0.00  0.00    +0.014 C 
ATOM     15  H   UNL     1      35.570 -18.903 -23.277  0.00  0.00    -0.084 HD
ATOM     16  H   UNL     1      34.293 -18.484 -22.274  0.00  0.00    -0.084 HD
BRANCH   6  17
ATOM     17  C   UNL     1      34.155 -16.882 -24.239  0.00  0.00    -0.015 C 
ATOM     18  C   UNL     1      34.528 -15.897 -25.342  0.00  0.00    -0.002 C 
ATOM     19  C   UNL     1      33.971 -18.286 -24.805  0.00  0.00    -0.002 C 
ENDBRANCH   6  17
ENDBRANCH   2  13
BRANCH   3  20
ATOM     20  C   UNL     1      33.024 -10.134 -22.457  0.00  0.00    +0.054 C 
ATOM     21  C   UNL     1      32.269  -7.858 -22.269  0.00  0.00    +0.000 C 
ATOM     22  C   UNL     1      32.288  -9.178 -21.789  0.00  0.00    +0.005 C 
ATOM     23  C   UNL     1      33.009  -7.534 -23.433  0.00  0.00    +0.000 C 
ATOM     24  C   UNL     1      33.750  -9.846 -23.589  0.00  0.00    +0.005 C 
ATOM     25  C   UNL     1      33.744  -8.540 -24.081  0.00  0.00    +0.000 C 
ATOM     26  C   UNL     1      32.990  -6.215 -23.912  0.00  0.00    +0.003 C 
ATOM     27  C   UNL     1      31.535  -6.853 -21.621  0.00  0.00    +0.000 C 
ATOM     28  C   UNL     1      32.255  -5.229 -23.255  0.00  0.00    +0.031 C 
ATOM     29  C   UNL     1      31.528  -5.547 -22.111  0.00  0.00    +0.003 C 
BRANCH  28  32
ATOM     30  N   UNL     1      32.990  -3.508 -24.888  0.00  0.00    -0.343 N 
ATOM     31  N   UNL     1      31.522  -2.942 -23.160  0.00  0.00    -0.285 NA
ATOM     32  C   UNL     1      32.245  -3.867 -23.766  0.00  0.00    +0.117 C 
ATOM     33  H   UNL     1      32.969  -2.580 -25.217  0.00  0.00    +0.144 HD
ATOM     34  H   UNL     1      33.538  -4.182 -25.351  0.00  0.00    +0.144 HD
ATOM     35  H   UNL     1      31.514  -2.020 -23.505  0.00  0.00    +0.188 HD
ENDBRANCH  28  32
ENDBRANCH   3  20
TORSDOF 4
ENDMDL
