MODEL 1
REMARK VINA RESULT:     -12.8      0.000      0.000
REMARK  Name = 448889
REMARK  5 active torsions:
REMARK  status: ('A' for Active; 'I' for Inactive)
REMARK    1  A    between atoms: C_1  and  N_2
REMARK    2  A    between atoms: C_1  and  C_16
REMARK    3  A    between atoms: C_6  and  C_10
REMARK    4  A    between atoms: C_16  and  C_17
REMARK    5  A    between atoms: C_17  and  C_21
REMARK                            x       y       z     vdW  Elec       q    Type
REMARK                         _______ _______ _______ _____ _____    ______ ____
ROOT
ATOM      1  C   UNL     1      34.224 -22.735 -16.835  0.00  0.00    -0.076 C 
ENDROOT
BRANCH   1   2
ATOM      2  N   UNL     1      34.336 -21.534 -17.660  0.00  0.00    +0.390 N 
ATOM      3  C   UNL     1      33.416 -21.590 -18.801  0.00  0.00    -0.072 C 
ATOM      4  C   UNL     1      33.436 -20.249 -19.551  0.00  0.00    +0.003 C 
ATOM      5  C   UNL     1      35.721 -21.345 -18.118  0.00  0.00    -0.051 C 
ATOM      6  C   UNL     1      34.835 -19.751 -19.835  0.00  0.00    -0.031 C 
ATOM      7  C   UNL     1      35.879 -20.273 -19.163  0.00  0.00    -0.053 C 
ATOM      8  H   UNL     1      34.075 -20.734 -17.085  0.00  0.00    -0.079 HD
BRANCH   6  10
ATOM      9  F   UNL     1      35.496 -15.722 -23.691  0.00  0.00    -0.204 F 
ATOM     10  C   UNL     1      35.010 -18.687 -20.853  0.00  0.00    -0.004 C 
ATOM     11  C   UNL     1      35.488 -17.430 -20.478  0.00  0.00    +0.002 C 
ATOM     12  C   UNL     1      34.698 -18.940 -22.190  0.00  0.00    +0.002 C 
ATOM     13  C   UNL     1      35.653 -16.429 -21.435  0.00  0.00    +0.030 C 
ATOM     14  C   UNL     1      34.863 -17.939 -23.148  0.00  0.00    +0.030 C 
ATOM     15  C   UNL     1      35.340 -16.683 -22.771  0.00  0.00    +0.140 C 
ENDBRANCH   6  10
ENDBRANCH   1   2
BRANCH   1  16
ATOM     16  C   UNL     1      33.623 -22.385 -15.471  0.00  0.00    -0.014 C 
BRANCH  16  17
ATOM     17  C   UNL     1      33.624 -23.565 -14.513  0.00  0.00    +0.074 C 
BRANCH  17  21
ATOM     18  O   UNL     1      36.905 -26.691 -15.752  0.00  0.00    -0.209 OA
ATOM     19  N   UNL     1      35.856 -23.548 -13.494  0.00  0.00    -0.290 N 
ATOM     20  N   UNL     1      35.300 -25.169 -15.152  0.00  0.00    -0.322 NA
ATOM     21  C   UNL     1      35.010 -24.149 -14.397  0.00  0.00    +0.173 C 
ATOM     22  C   UNL     1      37.152 -24.046 -13.344  0.00  0.00    +0.058 C 
ATOM     23  C   UNL     1      37.551 -25.143 -14.120  0.00  0.00    +0.108 C 
ATOM     24  C   UNL     1      38.059 -23.478 -12.445  0.00  0.00    -0.008 C 
ATOM     25  C   UNL     1      36.564 -25.729 -15.073  0.00  0.00    +0.207 C 
ATOM     26  C   UNL     1      38.840 -25.670 -14.001  0.00  0.00    +0.014 C 
ATOM     27  C   UNL     1      39.347 -24.003 -12.324  0.00  0.00    -0.003 C 
ATOM     28  C   UNL     1      39.735 -25.096 -13.099  0.00  0.00    +0.001 C 
ATOM     29  C   UNL     1      37.686 -22.307 -11.595  0.00  0.00    +0.032 C 
ATOM     30  H   UNL     1      35.552 -22.779 -12.962  0.00  0.00    +0.154 HD
ENDBRANCH  17  21
ENDBRANCH  16  17
ENDBRANCH   1  16
TORSDOF 5
ENDMDL
MODEL 2
REMARK VINA RESULT:     -12.7      6.153     11.739
REMARK  Name = 448889
REMARK  5 active torsions:
REMARK  status: ('A' for Active; 'I' for Inactive)
REMARK    1  A    between atoms: C_1  and  N_2
REMARK    2  A    between atoms: C_1  and  C_16
REMARK    3  A    between atoms: C_6  and  C_10
REMARK    4  A    between atoms: C_16  and  C_17
REMARK    5  A    between atoms: C_17  and  C_21
REMARK                            x       y       z     vdW  Elec       q    Type
REMARK                         _______ _______ _______ _____ _____    ______ ____
ROOT
ATOM      1  C   UNL     1      34.884 -15.292 -24.241  0.00  0.00    -0.076 C 
ENDROOT
BRANCH   1   2
ATOM      2  N   UNL     1      34.680 -16.232 -23.142  0.00  0.00    +0.390 N 
ATOM      3  C   UNL     1      35.709 -16.069 -22.110  0.00  0.00    -0.072 C 
ATOM      4  C   UNL     1      35.374 -16.949 -20.896  0.00  0.00    +0.003 C 
ATOM      5  C   UNL     1      34.657 -17.617 -23.638  0.00  0.00    -0.051 C 
ATOM      6  C   UNL     1      35.018 -18.369 -21.276  0.00  0.00    -0.031 C 
ATOM      7  C   UNL     1      34.691 -18.657 -22.551  0.00  0.00    -0.053 C 
ATOM      8  H   UNL     1      33.775 -16.027 -22.718  0.00  0.00    -0.079 HD
BRANCH   6  10
ATOM      9  F   UNL     1      35.078 -22.299 -17.266  0.00  0.00    -0.204 F 
ATOM     10  C   UNL     1      35.035 -19.406 -20.217  0.00  0.00    -0.004 C 
ATOM     11  C   UNL     1      36.248 -19.836 -19.675  0.00  0.00    +0.002 C 
ATOM     12  C   UNL     1      33.836 -19.957 -19.758  0.00  0.00    +0.002 C 
ATOM     13  C   UNL     1      36.263 -20.812 -18.678  0.00  0.00    +0.030 C 
ATOM     14  C   UNL     1      33.851 -20.933 -18.761  0.00  0.00    +0.030 C 
ATOM     15  C   UNL     1      35.064 -21.361 -18.222  0.00  0.00    +0.140 C 
ENDBRANCH   6  10
ENDBRANCH   1   2
BRANCH   1  16
ATOM     16  C   UNL     1      33.743 -14.271 -24.282  0.00  0.00    -0.014 C 
BRANCH  16  17
ATOM     17  C   UNL     1      34.170 -12.899 -23.785  0.00  0.00    +0.074 C 
BRANCH  17  21
ATOM     18  O   UNL     1      32.794 -14.197 -19.485  0.00  0.00    -0.209 OA
ATOM     19  N   UNL     1      33.072 -11.319 -22.262  0.00  0.00    -0.290 N 
ATOM     20  N   UNL     1      33.467 -13.570 -21.584  0.00  0.00    -0.322 NA
ATOM     21  C   UNL     1      33.533 -12.601 -22.450  0.00  0.00    +0.173 C 
ATOM     22  C   UNL     1      32.474 -10.985 -21.045  0.00  0.00    +0.058 C 
ATOM     23  C   UNL     1      32.362 -11.969 -20.053  0.00  0.00    +0.108 C 
ATOM     24  C   UNL     1      31.988  -9.700 -20.793  0.00  0.00    -0.008 C 
ATOM     25  C   UNL     1      32.891 -13.331 -20.348  0.00  0.00    +0.207 C 
ATOM     26  C   UNL     1      31.771 -11.675 -18.821  0.00  0.00    +0.014 C 
ATOM     27  C   UNL     1      31.396  -9.403 -19.563  0.00  0.00    -0.003 C 
ATOM     28  C   UNL     1      31.288 -10.388 -18.581  0.00  0.00    +0.001 C 
ATOM     29  C   UNL     1      32.082  -8.615 -21.816  0.00  0.00    +0.032 C 
ATOM     30  H   UNL     1      33.163 -10.647 -22.975  0.00  0.00    +0.154 HD
ENDBRANCH  17  21
ENDBRANCH  16  17
ENDBRANCH   1  16
TORSDOF 5
ENDMDL
MODEL 3
REMARK VINA RESULT:     -12.5      6.748     12.103
REMARK  Name = 448889
REMARK  5 active torsions:
REMARK  status: ('A' for Active; 'I' for Inactive)
REMARK    1  A    between atoms: C_1  and  N_2
REMARK    2  A    between atoms: C_1  and  C_16
REMARK    3  A    between atoms: C_6  and  C_10
REMARK    4  A    between atoms: C_16  and  C_17
REMARK    5  A    between atoms: C_17  and  C_21
REMARK                            x       y       z     vdW  Elec       q    Type
REMARK                         _______ _______ _______ _____ _____    ______ ____
ROOT
ATOM      1  C   UNL     1      35.315 -15.203 -24.190  0.00  0.00    -0.076 C 
ENDROOT
BRANCH   1   2
ATOM      2  N   UNL     1      35.502 -16.313 -23.258  0.00  0.00    +0.390 N 
ATOM      3  C   UNL     1      34.568 -17.406 -23.544  0.00  0.00    -0.072 C 
ATOM      4  C   UNL     1      34.900 -18.619 -22.661  0.00  0.00    +0.003 C 
ATOM      5  C   UNL     1      35.357 -15.855 -21.867  0.00  0.00    -0.051 C 
ATOM      6  C   UNL     1      35.090 -18.256 -21.205  0.00  0.00    -0.031 C 
ATOM      7  C   UNL     1      35.297 -16.971 -20.859  0.00  0.00    -0.053 C 
ATOM      8  H   UNL     1      36.450 -16.669 -23.382  0.00  0.00    -0.079 HD
BRANCH   6  10
ATOM      9  F   UNL     1      34.928 -22.370 -17.387  0.00  0.00    -0.204 F 
ATOM     10  C   UNL     1      35.046 -19.342 -20.197  0.00  0.00    -0.004 C 
ATOM     11  C   UNL     1      33.820 -19.864 -19.781  0.00  0.00    +0.002 C 
ATOM     12  C   UNL     1      36.233 -19.848 -19.662  0.00  0.00    +0.002 C 
ATOM     13  C   UNL     1      33.779 -20.886 -18.832  0.00  0.00    +0.030 C 
ATOM     14  C   UNL     1      36.192 -20.870 -18.714  0.00  0.00    +0.030 C 
ATOM     15  C   UNL     1      34.966 -21.389 -18.298  0.00  0.00    +0.140 C 
ENDBRANCH   6  10
ENDBRANCH   1   2
BRANCH   1  16
ATOM     16  C   UNL     1      34.118 -14.350 -23.763  0.00  0.00    -0.014 C 
BRANCH  16  17
ATOM     17  C   UNL     1      34.248 -12.901 -24.205  0.00  0.00    +0.074 C 
BRANCH  17  21
ATOM     18  O   UNL     1      32.851  -8.645 -22.789  0.00  0.00    -0.209 OA
ATOM     19  N   UNL     1      33.208 -12.561 -22.008  0.00  0.00    -0.290 N 
ATOM     20  N   UNL     1      33.535 -10.718 -23.485  0.00  0.00    -0.322 NA
ATOM     21  C   UNL     1      33.627 -11.981 -23.183  0.00  0.00    +0.173 C 
ATOM     22  C   UNL     1      32.625 -11.758 -21.025  0.00  0.00    +0.058 C 
ATOM     23  C   UNL     1      32.485 -10.385 -21.268  0.00  0.00    +0.108 C 
ATOM     24  C   UNL     1      32.178 -12.288 -19.812  0.00  0.00    -0.008 C 
ATOM     25  C   UNL     1      32.969  -9.846 -22.572  0.00  0.00    +0.207 C 
ATOM     26  C   UNL     1      31.906  -9.547 -20.311  0.00  0.00    +0.014 C 
ATOM     27  C   UNL     1      31.600 -11.453 -18.854  0.00  0.00    -0.003 C 
ATOM     28  C   UNL     1      31.465 -10.087 -19.103  0.00  0.00    +0.001 C 
ATOM     29  C   UNL     1      32.304 -13.744 -19.503  0.00  0.00    +0.032 C 
ATOM     30  H   UNL     1      33.318 -13.527 -21.862  0.00  0.00    +0.154 HD
ENDBRANCH  17  21
ENDBRANCH  16  17
ENDBRANCH   1  16
TORSDOF 5
ENDMDL
MODEL 4
REMARK VINA RESULT:     -12.4      1.703      2.714
REMARK  Name = 448889
REMARK  5 active torsions:
REMARK  status: ('A' for Active; 'I' for Inactive)
REMARK    1  A    between atoms: C_1  and  N_2
REMARK    2  A    between atoms: C_1  and  C_16
REMARK    3  A    between atoms: C_6  and  C_10
REMARK    4  A    between atoms: C_16  and  C_17
REMARK    5  A    between atoms: C_17  and  C_21
REMARK                            x       y       z     vdW  Elec       q    Type
REMARK                         _______ _______ _______ _____ _____    ______ ____
ROOT
ATOM      1  C   UNL     1      34.011 -23.321 -15.305  0.00  0.00    -0.076 C 
ENDROOT
BRANCH   1   2
ATOM      2  N   UNL     1      34.237 -22.247 -16.268  0.00  0.00    +0.390 N 
ATOM      3  C   UNL     1      33.521 -22.501 -17.522  0.00  0.00    -0.072 C 
ATOM      4  C   UNL     1      33.641 -21.281 -18.448  0.00  0.00    +0.003 C 
ATOM      5  C   UNL     1      35.676 -22.066 -16.519  0.00  0.00    -0.051 C 
ATOM      6  C   UNL     1      35.059 -20.770 -18.572  0.00  0.00    -0.031 C 
ATOM      7  C   UNL     1      35.986 -21.147 -17.671  0.00  0.00    -0.053 C 
ATOM      8  H   UNL     1      33.870 -21.384 -15.867  0.00  0.00    -0.079 HD
BRANCH   6  10
ATOM      9  F   UNL     1      36.284 -17.304 -22.816  0.00  0.00    -0.204 F 
ATOM     10  C   UNL     1      35.381 -19.855 -19.693  0.00  0.00    -0.004 C 
ATOM     11  C   UNL     1      34.409 -19.542 -20.645  0.00  0.00    +0.002 C 
ATOM     12  C   UNL     1      36.659 -19.302 -19.798  0.00  0.00    +0.002 C 
ATOM     13  C   UNL     1      34.713 -18.681 -21.700  0.00  0.00    +0.030 C 
ATOM     14  C   UNL     1      36.963 -18.440 -20.853  0.00  0.00    +0.030 C 
ATOM     15  C   UNL     1      35.991 -18.130 -21.804  0.00  0.00    +0.140 C 
ENDBRANCH   6  10
ENDBRANCH   1   2
BRANCH   1  16
ATOM     16  C   UNL     1      33.285 -22.781 -14.071  0.00  0.00    -0.014 C 
BRANCH  16  17
ATOM     17  C   UNL     1      33.653 -23.533 -12.802  0.00  0.00    +0.074 C 
BRANCH  17  21
ATOM     18  O   UNL     1      37.687 -22.177 -10.809  0.00  0.00    -0.209 OA
ATOM     19  N   UNL     1      35.802 -24.514 -13.467  0.00  0.00    -0.290 N 
ATOM     20  N   UNL     1      35.716 -22.834 -11.778  0.00  0.00    -0.322 NA
ATOM     21  C   UNL     1      35.152 -23.614 -12.654  0.00  0.00    +0.173 C 
ATOM     22  C   UNL     1      37.190 -24.633 -13.374  0.00  0.00    +0.058 C 
ATOM     23  C   UNL     1      37.879 -23.831 -12.454  0.00  0.00    +0.108 C 
ATOM     24  C   UNL     1      37.907 -25.530 -14.171  0.00  0.00    -0.008 C 
ATOM     25  C   UNL     1      37.089 -22.884 -11.615  0.00  0.00    +0.207 C 
ATOM     26  C   UNL     1      39.268 -23.921 -12.329  0.00  0.00    +0.014 C 
ATOM     27  C   UNL     1      39.294 -25.622 -14.049  0.00  0.00    -0.003 C 
ATOM     28  C   UNL     1      39.972 -24.819 -13.131  0.00  0.00    +0.001 C 
ATOM     29  C   UNL     1      37.221 -26.408 -15.167  0.00  0.00    +0.032 C 
ATOM     30  H   UNL     1      35.295 -25.065 -14.105  0.00  0.00    +0.154 HD
ENDBRANCH  17  21
ENDBRANCH  16  17
ENDBRANCH   1  16
TORSDOF 5
ENDMDL
MODEL 5
REMARK VINA RESULT:     -12.4      2.113      3.113
REMARK  Name = 448889
REMARK  5 active torsions:
REMARK  status: ('A' for Active; 'I' for Inactive)
REMARK    1  A    between atoms: C_1  and  N_2
REMARK    2  A    between atoms: C_1  and  C_16
REMARK    3  A    between atoms: C_6  and  C_10
REMARK    4  A    between atoms: C_16  and  C_17
REMARK    5  A    between atoms: C_17  and  C_21
REMARK                            x       y       z     vdW  Elec       q    Type
REMARK                         _______ _______ _______ _____ _____    ______ ____
ROOT
ATOM      1  C   UNL     1      36.537 -20.993 -19.020  0.00  0.00    -0.076 C 
ENDROOT
BRANCH   1   2
ATOM      2  N   UNL     1      36.146 -19.674 -19.510  0.00  0.00    +0.390 N 
ATOM      3  C   UNL     1      34.918 -19.749 -20.309  0.00  0.00    -0.072 C 
ATOM      4  C   UNL     1      34.442 -18.333 -20.667  0.00  0.00    +0.003 C 
ATOM      5  C   UNL     1      37.235 -19.063 -20.288  0.00  0.00    -0.051 C 
ATOM      6  C   UNL     1      35.549 -17.457 -21.211  0.00  0.00    -0.031 C 
ATOM      7  C   UNL     1      36.834 -17.814 -21.027  0.00  0.00    -0.053 C 
ATOM      8  H   UNL     1      35.958 -19.082 -18.701  0.00  0.00    -0.079 HD
BRANCH   6  10
ATOM      9  F   UNL     1      34.131 -12.760 -23.941  0.00  0.00    -0.204 F 
ATOM     10  C   UNL     1      35.175 -16.216 -21.931  0.00  0.00    -0.004 C 
ATOM     11  C   UNL     1      35.026 -15.017 -21.231  0.00  0.00    +0.002 C 
ATOM     12  C   UNL     1      34.970 -16.244 -23.312  0.00  0.00    +0.002 C 
ATOM     13  C   UNL     1      34.675 -13.849 -21.909  0.00  0.00    +0.030 C 
ATOM     14  C   UNL     1      34.619 -15.076 -23.990  0.00  0.00    +0.030 C 
ATOM     15  C   UNL     1      34.470 -13.879 -23.289  0.00  0.00    +0.140 C 
ENDBRANCH   6  10
ENDBRANCH   1   2
BRANCH   1  16
ATOM     16  C   UNL     1      36.078 -21.177 -17.572  0.00  0.00    -0.014 C 
BRANCH  16  17
ATOM     17  C   UNL     1      37.217 -21.028 -16.576  0.00  0.00    +0.074 C 
BRANCH  17  21
ATOM     18  O   UNL     1      34.701 -23.008 -13.137  0.00  0.00    -0.209 OA
ATOM     19  N   UNL     1      38.148 -22.814 -15.175  0.00  0.00    -0.290 N 
ATOM     20  N   UNL     1      35.923 -22.038 -14.816  0.00  0.00    -0.322 NA
ATOM     21  C   UNL     1      37.062 -22.016 -15.446  0.00  0.00    +0.173 C 
ATOM     22  C   UNL     1      38.063 -23.748 -14.140  0.00  0.00    +0.058 C 
ATOM     23  C   UNL     1      36.870 -23.841 -13.409  0.00  0.00    +0.108 C 
ATOM     24  C   UNL     1      39.131 -24.589 -13.818  0.00  0.00    -0.008 C 
ATOM     25  C   UNL     1      35.746 -22.933 -13.775  0.00  0.00    +0.207 C 
ATOM     26  C   UNL     1      36.743 -24.763 -12.366  0.00  0.00    +0.014 C 
ATOM     27  C   UNL     1      39.007 -25.511 -12.776  0.00  0.00    -0.003 C 
ATOM     28  C   UNL     1      37.817 -25.596 -12.053  0.00  0.00    +0.001 C 
ATOM     29  C   UNL     1      40.423 -24.531 -14.566  0.00  0.00    +0.032 C 
ATOM     30  H   UNL     1      38.974 -22.729 -15.703  0.00  0.00    +0.154 HD
ENDBRANCH  17  21
ENDBRANCH  16  17
ENDBRANCH   1  16
TORSDOF 5
ENDMDL
MODEL 6
REMARK VINA RESULT:     -12.1      6.893     13.142
REMARK  Name = 448889
REMARK  5 active torsions:
REMARK  status: ('A' for Active; 'I' for Inactive)
REMARK    1  A    between atoms: C_1  and  N_2
REMARK    2  A    between atoms: C_1  and  C_16
REMARK    3  A    between atoms: C_6  and  C_10
REMARK    4  A    between atoms: C_16  and  C_17
REMARK    5  A    between atoms: C_17  and  C_21
REMARK                            x       y       z     vdW  Elec       q    Type
REMARK                         _______ _______ _______ _____ _____    ______ ____
ROOT
ATOM      1  C   UNL     1      34.934 -15.285 -24.244  0.00  0.00    -0.076 C 
ENDROOT
BRANCH   1   2
ATOM      2  N   UNL     1      34.699 -16.219 -23.146  0.00  0.00    +0.390 N 
ATOM      3  C   UNL     1      35.750 -16.115 -22.129  0.00  0.00    -0.072 C 
ATOM      4  C   UNL     1      35.389 -16.983 -20.915  0.00  0.00    +0.003 C 
ATOM      5  C   UNL     1      34.597 -17.598 -23.648  0.00  0.00    -0.051 C 
ATOM      6  C   UNL     1      34.954 -18.381 -21.296  0.00  0.00    -0.031 C 
ATOM      7  C   UNL     1      34.594 -18.645 -22.567  0.00  0.00    -0.053 C 
ATOM      8  H   UNL     1      33.812 -15.971 -22.708  0.00  0.00    -0.079 HD
BRANCH   6  10
ATOM      9  F   UNL     1      34.878 -22.328 -17.303  0.00  0.00    -0.204 F 
ATOM     10  C   UNL     1      34.933 -19.423 -20.242  0.00  0.00    -0.004 C 
ATOM     11  C   UNL     1      33.717 -19.925 -19.775  0.00  0.00    +0.002 C 
ATOM     12  C   UNL     1      36.132 -19.907 -19.713  0.00  0.00    +0.002 C 
ATOM     13  C   UNL     1      33.697 -20.906 -18.784  0.00  0.00    +0.030 C 
ATOM     14  C   UNL     1      36.113 -20.889 -18.722  0.00  0.00    +0.030 C 
ATOM     15  C   UNL     1      34.896 -21.387 -18.256  0.00  0.00    +0.140 C 
ENDBRANCH   6  10
ENDBRANCH   1   2
BRANCH   1  16
ATOM     16  C   UNL     1      34.108 -14.012 -24.042  0.00  0.00    -0.014 C 
BRANCH  16  17
ATOM     17  C   UNL     1      34.201 -13.477 -22.622  0.00  0.00    +0.074 C 
BRANCH  17  21
ATOM     18  O   UNL     1      31.466  -9.988 -21.066  0.00  0.00    -0.209 OA
ATOM     19  N   UNL     1      34.542 -11.160 -23.354  0.00  0.00    -0.290 N 
ATOM     20  N   UNL     1      32.796 -11.694 -21.821  0.00  0.00    -0.322 NA
ATOM     21  C   UNL     1      33.802 -12.022 -22.579  0.00  0.00    +0.173 C 
ATOM     22  C   UNL     1      34.219  -9.801 -23.355  0.00  0.00    +0.058 C 
ATOM     23  C   UNL     1      33.149  -9.359 -22.564  0.00  0.00    +0.108 C 
ATOM     24  C   UNL     1      34.934  -8.875 -24.119  0.00  0.00    -0.008 C 
ATOM     25  C   UNL     1      32.405 -10.368 -21.758  0.00  0.00    +0.207 C 
ATOM     26  C   UNL     1      32.794  -8.007 -22.536  0.00  0.00    +0.014 C 
ATOM     27  C   UNL     1      34.582  -7.524 -24.093  0.00  0.00    -0.003 C 
ATOM     28  C   UNL     1      33.515  -7.093 -23.304  0.00  0.00    +0.001 C 
ATOM     29  C   UNL     1      36.083  -9.293 -24.978  0.00  0.00    +0.032 C 
ATOM     30  H   UNL     1      35.288 -11.495 -23.900  0.00  0.00    +0.154 HD
ENDBRANCH  17  21
ENDBRANCH  16  17
ENDBRANCH   1  16
TORSDOF 5
ENDMDL
MODEL 7
REMARK VINA RESULT:     -12.1      3.801      6.222
REMARK  Name = 448889
REMARK  5 active torsions:
REMARK  status: ('A' for Active; 'I' for Inactive)
REMARK    1  A    between atoms: C_1  and  N_2
REMARK    2  A    between atoms: C_1  and  C_16
REMARK    3  A    between atoms: C_6  and  C_10
REMARK    4  A    between atoms: C_16  and  C_17
REMARK    5  A    between atoms: C_17  and  C_21
REMARK                            x       y       z     vdW  Elec       q    Type
REMARK                         _______ _______ _______ _____ _____    ______ ____
ROOT
ATOM      1  C   UNL     1      36.715 -17.749 -21.627  0.00  0.00    -0.076 C 
ENDROOT
BRANCH   1   2
ATOM      2  N   UNL     1      36.149 -16.408 -21.500  0.00  0.00    +0.390 N 
ATOM      3  C   UNL     1      35.274 -16.311 -20.327  0.00  0.00    -0.072 C 
ATOM      4  C   UNL     1      34.831 -14.854 -20.126  0.00  0.00    +0.003 C 
ATOM      5  C   UNL     1      35.422 -16.032 -22.722  0.00  0.00    -0.051 C 
ATOM      6  C   UNL     1      34.328 -14.208 -21.398  0.00  0.00    -0.031 C 
ATOM      7  C   UNL     1      34.611 -14.771 -22.589  0.00  0.00    -0.053 C 
ATOM      8  H   UNL     1      36.921 -15.754 -21.371  0.00  0.00    -0.079 HD
BRANCH   6  10
ATOM      9  F   UNL     1      31.333  -9.477 -20.986  0.00  0.00    -0.204 F 
ATOM     10  C   UNL     1      33.538 -12.960 -21.288  0.00  0.00    -0.004 C 
ATOM     11  C   UNL     1      32.662 -12.776 -20.216  0.00  0.00    +0.002 C 
ATOM     12  C   UNL     1      33.667 -11.962 -22.258  0.00  0.00    +0.002 C 
ATOM     13  C   UNL     1      31.918 -11.600 -20.113  0.00  0.00    +0.030 C 
ATOM     14  C   UNL     1      32.923 -10.787 -22.154  0.00  0.00    +0.030 C 
ATOM     15  C   UNL     1      32.048 -10.606 -21.083  0.00  0.00    +0.140 C 
ENDBRANCH   6  10
ENDBRANCH   1   2
BRANCH   1  16
ATOM     16  C   UNL     1      35.902 -18.746 -20.797  0.00  0.00    -0.014 C 
BRANCH  16  17
ATOM     17  C   UNL     1      36.777 -19.612 -19.905  0.00  0.00    +0.074 C 
BRANCH  17  21
ATOM     18  O   UNL     1      32.727 -21.702 -18.760  0.00  0.00    -0.209 OA
ATOM     19  N   UNL     1      36.522 -20.841 -17.796  0.00  0.00    -0.290 N 
ATOM     20  N   UNL     1      34.700 -20.680 -19.324  0.00  0.00    -0.322 NA
ATOM     21  C   UNL     1      35.925 -20.429 -18.965  0.00  0.00    +0.173 C 
ATOM     22  C   UNL     1      35.783 -21.600 -16.887  0.00  0.00    +0.058 C 
ATOM     23  C   UNL     1      34.453 -21.919 -17.195  0.00  0.00    +0.108 C 
ATOM     24  C   UNL     1      36.333 -22.049 -15.684  0.00  0.00    -0.008 C 
ATOM     25  C   UNL     1      33.891 -21.428 -18.486  0.00  0.00    +0.207 C 
ATOM     26  C   UNL     1      33.679 -22.678 -16.313  0.00  0.00    +0.014 C 
ATOM     27  C   UNL     1      35.562 -22.807 -14.800  0.00  0.00    -0.003 C 
ATOM     28  C   UNL     1      34.239 -23.119 -15.114  0.00  0.00    +0.001 C 
ATOM     29  C   UNL     1      37.745 -21.738 -15.307  0.00  0.00    +0.032 C 
ATOM     30  H   UNL     1      37.458 -20.603 -17.603  0.00  0.00    +0.154 HD
ENDBRANCH  17  21
ENDBRANCH  16  17
ENDBRANCH   1  16
TORSDOF 5
ENDMDL
MODEL 8
REMARK VINA RESULT:     -12.0      5.097     10.919
REMARK  Name = 448889
REMARK  5 active torsions:
REMARK  status: ('A' for Active; 'I' for Inactive)
REMARK    1  A    between atoms: C_1  and  N_2
REMARK    2  A    between atoms: C_1  and  C_16
REMARK    3  A    between atoms: C_6  and  C_10
REMARK    4  A    between atoms: C_16  and  C_17
REMARK    5  A    between atoms: C_17  and  C_21
REMARK                            x       y       z     vdW  Elec       q    Type
REMARK                         _______ _______ _______ _____ _____    ______ ____
ROOT
ATOM      1  C   UNL     1      35.908 -19.676 -20.337  0.00  0.00    -0.076 C 
ENDROOT
BRANCH   1   2
ATOM      2  N   UNL     1      35.306 -20.175 -19.103  0.00  0.00    +0.390 N 
ATOM      3  C   UNL     1      36.182 -21.148 -18.442  0.00  0.00    -0.072 C 
ATOM      4  C   UNL     1      35.601 -21.526 -17.071  0.00  0.00    +0.003 C 
ATOM      5  C   UNL     1      33.984 -20.764 -19.370  0.00  0.00    -0.051 C 
ATOM      6  C   UNL     1      34.129 -21.872 -17.128  0.00  0.00    -0.031 C 
ATOM      7  C   UNL     1      33.400 -21.512 -18.202  0.00  0.00    -0.053 C 
ATOM      8  H   UNL     1      35.183 -19.383 -18.472  0.00  0.00    -0.079 HD
BRANCH   6  10
ATOM      9  F   UNL     1      31.866 -24.625 -12.789  0.00  0.00    -0.204 F 
ATOM     10  C   UNL     1      33.533 -22.598 -15.982  0.00  0.00    -0.004 C 
ATOM     11  C   UNL     1      34.353 -23.129 -14.985  0.00  0.00    +0.002 C 
ATOM     12  C   UNL     1      32.147 -22.753 -15.897  0.00  0.00    +0.002 C 
ATOM     13  C   UNL     1      33.791 -23.813 -13.906  0.00  0.00    +0.030 C 
ATOM     14  C   UNL     1      31.585 -23.437 -14.818  0.00  0.00    +0.030 C 
ATOM     15  C   UNL     1      32.406 -23.967 -13.824  0.00  0.00    +0.140 C 
ENDBRANCH   6  10
ENDBRANCH   1   2
BRANCH   1  16
ATOM     16  C   UNL     1      34.892 -18.844 -21.123  0.00  0.00    -0.014 C 
BRANCH  16  17
ATOM     17  C   UNL     1      35.303 -18.639 -22.572  0.00  0.00    +0.074 C 
BRANCH  17  21
ATOM     18  O   UNL     1      33.773 -15.702 -25.905  0.00  0.00    -0.209 OA
ATOM     19  N   UNL     1      34.969 -16.251 -22.118  0.00  0.00    -0.290 N 
ATOM     20  N   UNL     1      34.519 -17.140 -24.284  0.00  0.00    -0.322 NA
ATOM     21  C   UNL     1      34.899 -17.264 -23.045  0.00  0.00    +0.173 C 
ATOM     22  C   UNL     1      34.608 -14.957 -22.499  0.00  0.00    +0.058 C 
ATOM     23  C   UNL     1      34.184 -14.732 -23.816  0.00  0.00    +0.108 C 
ATOM     24  C   UNL     1      34.656 -13.885 -21.603  0.00  0.00    -0.008 C 
ATOM     25  C   UNL     1      34.141 -15.893 -24.751  0.00  0.00    +0.207 C 
ATOM     26  C   UNL     1      33.812 -13.452 -24.237  0.00  0.00    +0.014 C 
ATOM     27  C   UNL     1      34.286 -12.606 -22.021  0.00  0.00    -0.003 C 
ATOM     28  C   UNL     1      33.866 -12.390 -23.334  0.00  0.00    +0.001 C 
ATOM     29  C   UNL     1      35.100 -14.071 -20.189  0.00  0.00    +0.032 C 
ATOM     30  H   UNL     1      35.270 -16.435 -21.200  0.00  0.00    +0.154 HD
ENDBRANCH  17  21
ENDBRANCH  16  17
ENDBRANCH   1  16
TORSDOF 5
ENDMDL
MODEL 9
REMARK VINA RESULT:     -11.8      2.401      3.994
REMARK  Name = 448889
REMARK  5 active torsions:
REMARK  status: ('A' for Active; 'I' for Inactive)
REMARK    1  A    between atoms: C_1  and  N_2
REMARK    2  A    between atoms: C_1  and  C_16
REMARK    3  A    between atoms: C_6  and  C_10
REMARK    4  A    between atoms: C_16  and  C_17
REMARK    5  A    between atoms: C_17  and  C_21
REMARK                            x       y       z     vdW  Elec       q    Type
REMARK                         _______ _______ _______ _____ _____    ______ ____
ROOT
ATOM      1  C   UNL     1      36.377 -21.288 -17.712  0.00  0.00    -0.076 C 
ENDROOT
BRANCH   1   2
ATOM      2  N   UNL     1      36.016 -20.203 -18.621  0.00  0.00    +0.390 N 
ATOM      3  C   UNL     1      34.894 -20.586 -19.483  0.00  0.00    -0.072 C 
ATOM      4  C   UNL     1      34.431 -19.374 -20.306  0.00  0.00    +0.003 C 
ATOM      5  C   UNL     1      37.175 -19.793 -19.429  0.00  0.00    -0.051 C 
ATOM      6  C   UNL     1      35.574 -18.641 -20.972  0.00  0.00    -0.031 C 
ATOM      7  C   UNL     1      36.836 -18.851 -20.553  0.00  0.00    -0.053 C 
ATOM      8  H   UNL     1      35.721 -19.406 -18.056  0.00  0.00    -0.079 HD
BRANCH   6  10
ATOM      9  F   UNL     1      34.380 -15.076 -25.143  0.00  0.00    -0.204 F 
ATOM     10  C   UNL     1      35.259 -17.699 -22.072  0.00  0.00    -0.004 C 
ATOM     11  C   UNL     1      35.544 -16.339 -21.935  0.00  0.00    +0.002 C 
ATOM     12  C   UNL     1      34.677 -18.170 -23.251  0.00  0.00    +0.002 C 
ATOM     13  C   UNL     1      35.248 -15.453 -22.971  0.00  0.00    +0.030 C 
ATOM     14  C   UNL     1      34.381 -17.285 -24.288  0.00  0.00    +0.030 C 
ATOM     15  C   UNL     1      34.665 -15.926 -24.148  0.00  0.00    +0.140 C 
ENDBRANCH   6  10
ENDBRANCH   1   2
BRANCH   1  16
ATOM     16  C   UNL     1      37.162 -20.739 -16.517  0.00  0.00    -0.014 C 
BRANCH  16  17
ATOM     17  C   UNL     1      37.538 -21.822 -15.519  0.00  0.00    +0.074 C 
BRANCH  17  21
ATOM     18  O   UNL     1      35.391 -23.841 -11.861  0.00  0.00    -0.209 OA
ATOM     19  N   UNL     1      35.130 -22.291 -15.549  0.00  0.00    -0.290 N 
ATOM     20  N   UNL     1      36.444 -22.857 -13.643  0.00  0.00    -0.322 NA
ATOM     21  C   UNL     1      36.305 -22.363 -14.839  0.00  0.00    +0.173 C 
ATOM     22  C   UNL     1      33.956 -22.777 -14.970  0.00  0.00    +0.058 C 
ATOM     23  C   UNL     1      34.013 -23.324 -13.681  0.00  0.00    +0.108 C 
ATOM     24  C   UNL     1      32.730 -22.729 -15.639  0.00  0.00    -0.008 C 
ATOM     25  C   UNL     1      35.333 -23.361 -12.988  0.00  0.00    +0.207 C 
ATOM     26  C   UNL     1      32.861 -23.820 -13.065  0.00  0.00    +0.014 C 
ATOM     27  C   UNL     1      31.577 -23.224 -15.027  0.00  0.00    -0.003 C 
ATOM     28  C   UNL     1      31.644 -23.769 -13.744  0.00  0.00    +0.001 C 
ATOM     29  C   UNL     1      32.614 -22.155 -17.014  0.00  0.00    +0.032 C 
ATOM     30  H   UNL     1      35.116 -21.901 -16.453  0.00  0.00    +0.154 HD
ENDBRANCH  17  21
ENDBRANCH  16  17
ENDBRANCH   1  16
TORSDOF 5
ENDMDL
