MODEL 1
REMARK VINA RESULT:     -12.7      0.000      0.000
REMARK  Name = 24880024
REMARK  5 active torsions:
REMARK  status: ('A' for Active; 'I' for Inactive)
REMARK    1  A    between atoms: N_5  and  C_12
REMARK    2  A    between atoms: C_6  and  C_22
REMARK    3  A    between atoms: C_13  and  C_21
REMARK    4  A    between atoms: C_22  and  C_23
REMARK    5  A    between atoms: C_23  and  N_25
REMARK                            x       y       z     vdW  Elec       q    Type
REMARK                         _______ _______ _______ _____ _____    ______ ____
ROOT
ATOM      1  S   UNL     1      36.753 -19.847 -19.453  0.00  0.00    -0.056 S 
ATOM      2  O   UNL     1      35.500 -22.595 -15.893  0.00  0.00    -0.252 OA
ATOM      3  N   UNL     1      34.752 -21.068 -18.364  0.00  0.00    -0.223 NA
ATOM      4  N   UNL     1      36.891 -21.307 -17.281  0.00  0.00    -0.248 N 
ATOM      5  N   UNL     1      37.779 -22.387 -15.411  0.00  0.00    -0.268 N 
ATOM      6  C   UNL     1      35.218 -19.699 -20.203  0.00  0.00    +0.031 C 
ATOM      7  C   UNL     1      34.281 -20.412 -19.484  0.00  0.00    +0.103 C 
ATOM      8  C   UNL     1      36.042 -20.841 -18.249  0.00  0.00    +0.166 C 
ATOM      9  C   UNL     1      36.612 -22.150 -16.156  0.00  0.00    +0.310 C 
ATOM     10  H   UNL     1      37.829 -21.022 -17.371  0.00  0.00    +0.158 HD
ATOM     11  H   UNL     1      38.600 -21.960 -15.748  0.00  0.00    +0.156 HD
ENDROOT
BRANCH   5  12
ATOM     12  C   UNL     1      37.920 -23.164 -14.238  0.00  0.00    +0.052 C 
ATOM     13  C   UNL     1      37.185 -23.744 -12.011  0.00  0.00    +0.073 C 
ATOM     14  C   UNL     1      37.046 -22.977 -13.167  0.00  0.00    +0.019 C 
ATOM     15  C   UNL     1      38.933 -24.120 -14.152  0.00  0.00    +0.015 C 
ATOM     16  C   UNL     1      38.198 -24.700 -11.925  0.00  0.00    +0.004 C 
ATOM     17  C   UNL     1      39.072 -24.888 -12.996  0.00  0.00    +0.001 C 
BRANCH  13  21
ATOM     18  F   UNL     1      35.787 -24.710 -10.327  0.00  0.00    -0.166 F 
ATOM     19  F   UNL     1      36.809 -22.866  -9.818  0.00  0.00    -0.166 F 
ATOM     20  F   UNL     1      35.140 -22.833 -11.212  0.00  0.00    -0.166 F 
ATOM     21  C   UNL     1      36.251 -23.544 -10.865  0.00  0.00    +0.419 C 
ENDBRANCH  13  21
ENDBRANCH   5  12
BRANCH   6  22
ATOM     22  C   UNL     1      35.053 -18.879 -21.460  0.00  0.00    +0.056 C 
BRANCH  22  23
ATOM     23  C   UNL     1      36.156 -17.838 -21.646  0.00  0.00    +0.093 C 
BRANCH  23  25
ATOM     24  S   UNL     1      34.493 -13.534 -21.168  0.00  0.00    -0.101 S 
ATOM     25  N   UNL     1      35.627 -16.511 -21.565  0.00  0.00    -0.320 N 
ATOM     26  N   UNL     1      35.049 -16.447 -23.873  0.00  0.00    -0.233 NA
ATOM     27  N   UNL     1      34.009 -14.516 -24.895  0.00  0.00    -0.247 NA
ATOM     28  C   UNL     1      35.083 -15.835 -22.673  0.00  0.00    +0.118 C 
ATOM     29  C   UNL     1      34.580 -14.545 -22.553  0.00  0.00    +0.145 C 
ATOM     30  C   UNL     1      34.051 -13.913 -23.677  0.00  0.00    +0.073 C 
ATOM     31  C   UNL     1      33.580 -12.599 -23.378  0.00  0.00    +0.022 C 
ATOM     32  C   UNL     1      33.760 -12.269 -22.054  0.00  0.00    +0.033 C 
ATOM     33  C   UNL     1      34.519 -15.758 -24.901  0.00  0.00    +0.251 C 
ATOM     34  H   UNL     1      35.646 -16.049 -20.696  0.00  0.00    +0.148 HD
ENDBRANCH  23  25
ENDBRANCH  22  23
ENDBRANCH   6  22
TORSDOF 5
ENDMDL
MODEL 2
REMARK VINA RESULT:     -12.5      1.166      1.559
REMARK  Name = 24880024
REMARK  5 active torsions:
REMARK  status: ('A' for Active; 'I' for Inactive)
REMARK    1  A    between atoms: N_5  and  C_12
REMARK    2  A    between atoms: C_6  and  C_22
REMARK    3  A    between atoms: C_13  and  C_21
REMARK    4  A    between atoms: C_22  and  C_23
REMARK    5  A    between atoms: C_23  and  N_25
REMARK                            x       y       z     vdW  Elec       q    Type
REMARK                         _______ _______ _______ _____ _____    ______ ____
ROOT
ATOM      1  S   UNL     1      36.591 -19.935 -19.525  0.00  0.00    -0.056 S 
ATOM      2  O   UNL     1      35.452 -22.597 -15.862  0.00  0.00    -0.252 OA
ATOM      3  N   UNL     1      34.624 -21.122 -18.339  0.00  0.00    -0.223 NA
ATOM      4  N   UNL     1      36.798 -21.347 -17.326  0.00  0.00    -0.248 N 
ATOM      5  N   UNL     1      37.747 -22.389 -15.465  0.00  0.00    -0.268 N 
ATOM      6  C   UNL     1      35.031 -19.797 -20.224  0.00  0.00    +0.031 C 
ATOM      7  C   UNL     1      34.118 -20.489 -19.457  0.00  0.00    +0.103 C 
ATOM      8  C   UNL     1      35.918 -20.899 -18.274  0.00  0.00    +0.166 C 
ATOM      9  C   UNL     1      36.556 -22.163 -16.173  0.00  0.00    +0.310 C 
ATOM     10  H   UNL     1      37.734 -21.069 -17.455  0.00  0.00    +0.158 HD
ATOM     11  H   UNL     1      38.558 -21.974 -15.839  0.00  0.00    +0.156 HD
ENDROOT
BRANCH   5  12
ATOM     12  C   UNL     1      37.926 -23.141 -14.279  0.00  0.00    +0.052 C 
ATOM     13  C   UNL     1      37.231 -23.707 -12.036  0.00  0.00    +0.073 C 
ATOM     14  C   UNL     1      37.056 -22.965 -13.204  0.00  0.00    +0.019 C 
ATOM     15  C   UNL     1      38.972 -24.058 -14.187  0.00  0.00    +0.015 C 
ATOM     16  C   UNL     1      38.278 -24.625 -11.944  0.00  0.00    +0.004 C 
ATOM     17  C   UNL     1      39.148 -24.801 -13.020  0.00  0.00    +0.001 C 
BRANCH  13  21
ATOM     18  F   UNL     1      35.869 -24.691 -10.334  0.00  0.00    -0.166 F 
ATOM     19  F   UNL     1      36.850 -22.819  -9.848  0.00  0.00    -0.166 F 
ATOM     20  F   UNL     1      35.171 -22.838 -11.229  0.00  0.00    -0.166 F 
ATOM     21  C   UNL     1      36.301 -23.520 -10.885  0.00  0.00    +0.419 C 
ENDBRANCH  13  21
ENDBRANCH   5  12
BRANCH   6  22
ATOM     22  C   UNL     1      34.826 -19.005 -21.492  0.00  0.00    +0.056 C 
BRANCH  22  23
ATOM     23  C   UNL     1      35.815 -17.849 -21.644  0.00  0.00    +0.093 C 
BRANCH  23  25
ATOM     24  S   UNL     1      34.240 -14.841 -24.805  0.00  0.00    -0.101 S 
ATOM     25  N   UNL     1      35.324 -16.874 -22.570  0.00  0.00    -0.320 N 
ATOM     26  N   UNL     1      35.133 -15.182 -20.907  0.00  0.00    -0.233 NA
ATOM     27  N   UNL     1      34.337 -12.953 -21.412  0.00  0.00    -0.247 NA
ATOM     28  C   UNL     1      34.991 -15.560 -22.193  0.00  0.00    +0.118 C 
ATOM     29  C   UNL     1      34.518 -14.642 -23.123  0.00  0.00    +0.145 C 
ATOM     30  C   UNL     1      34.199 -13.350 -22.705  0.00  0.00    +0.073 C 
ATOM     31  C   UNL     1      33.730 -12.542 -23.783  0.00  0.00    +0.022 C 
ATOM     32  C   UNL     1      33.702 -13.227 -24.976  0.00  0.00    +0.033 C 
ATOM     33  C   UNL     1      34.801 -13.915 -20.598  0.00  0.00    +0.251 C 
ATOM     34  H   UNL     1      35.214 -17.134 -23.513  0.00  0.00    +0.148 HD
ENDBRANCH  23  25
ENDBRANCH  22  23
ENDBRANCH   6  22
TORSDOF 5
ENDMDL
MODEL 3
REMARK VINA RESULT:     -12.3      2.351      3.032
REMARK  Name = 24880024
REMARK  5 active torsions:
REMARK  status: ('A' for Active; 'I' for Inactive)
REMARK    1  A    between atoms: N_5  and  C_12
REMARK    2  A    between atoms: C_6  and  C_22
REMARK    3  A    between atoms: C_13  and  C_21
REMARK    4  A    between atoms: C_22  and  C_23
REMARK    5  A    between atoms: C_23  and  N_25
REMARK                            x       y       z     vdW  Elec       q    Type
REMARK                         _______ _______ _______ _____ _____    ______ ____
ROOT
ATOM      1  S   UNL     1      36.664 -18.538 -20.354  0.00  0.00    -0.056 S 
ATOM      2  O   UNL     1      35.292 -21.816 -17.325  0.00  0.00    -0.252 OA
ATOM      3  N   UNL     1      34.716 -20.120 -19.731  0.00  0.00    -0.223 NA
ATOM      4  N   UNL     1      36.678 -20.211 -18.336  0.00  0.00    -0.248 N 
ATOM      5  N   UNL     1      37.419 -21.378 -16.455  0.00  0.00    -0.268 N 
ATOM      6  C   UNL     1      35.255 -18.500 -21.331  0.00  0.00    +0.031 C 
ATOM      7  C   UNL     1      34.332 -19.403 -20.847  0.00  0.00    +0.103 C 
ATOM      8  C   UNL     1      35.928 -19.747 -19.383  0.00  0.00    +0.166 C 
ATOM      9  C   UNL     1      36.356 -21.206 -17.356  0.00  0.00    +0.310 C 
ATOM     10  H   UNL     1      37.569 -19.801 -18.241  0.00  0.00    +0.158 HD
ATOM     11  H   UNL     1      38.212 -20.816 -16.608  0.00  0.00    +0.156 HD
ENDROOT
BRANCH   5  12
ATOM     12  C   UNL     1      37.490 -22.263 -15.352  0.00  0.00    +0.052 C 
ATOM     13  C   UNL     1      38.684 -23.939 -14.088  0.00  0.00    +0.073 C 
ATOM     14  C   UNL     1      38.614 -23.068 -15.175  0.00  0.00    +0.019 C 
ATOM     15  C   UNL     1      36.435 -22.328 -14.442  0.00  0.00    +0.015 C 
ATOM     16  C   UNL     1      37.629 -24.004 -13.178  0.00  0.00    +0.004 C 
ATOM     17  C   UNL     1      36.505 -23.198 -13.354  0.00  0.00    +0.001 C 
BRANCH  13  21
ATOM     18  F   UNL     1      40.814 -24.269 -13.051  0.00  0.00    -0.166 F 
ATOM     19  F   UNL     1      39.598 -26.034 -13.382  0.00  0.00    -0.166 F 
ATOM     20  F   UNL     1      40.551 -25.041 -15.066  0.00  0.00    -0.166 F 
ATOM     21  C   UNL     1      39.886 -24.802 -13.898  0.00  0.00    +0.419 C 
ENDBRANCH  13  21
ENDBRANCH   5  12
BRANCH   6  22
ATOM     22  C   UNL     1      35.167 -17.567 -22.514  0.00  0.00    +0.056 C 
BRANCH  22  23
ATOM     23  C   UNL     1      35.724 -16.174 -22.223  0.00  0.00    +0.093 C 
BRANCH  23  25
ATOM     24  S   UNL     1      32.697 -13.825 -19.606  0.00  0.00    -0.101 S 
ATOM     25  N   UNL     1      34.791 -15.399 -21.462  0.00  0.00    -0.320 N 
ATOM     26  N   UNL     1      34.797 -13.599 -23.019  0.00  0.00    -0.233 NA
ATOM     27  N   UNL     1      33.468 -11.603 -22.697  0.00  0.00    -0.247 NA
ATOM     28  C   UNL     1      34.342 -14.128 -21.866  0.00  0.00    +0.118 C 
ATOM     29  C   UNL     1      33.436 -13.407 -21.098  0.00  0.00    +0.145 C 
ATOM     30  C   UNL     1      33.019 -12.151 -21.537  0.00  0.00    +0.073 C 
ATOM     31  C   UNL     1      32.092 -11.551 -20.632  0.00  0.00    +0.022 C 
ATOM     32  C   UNL     1      31.832 -12.353 -19.544  0.00  0.00    +0.033 C 
ATOM     33  C   UNL     1      34.338 -12.381 -23.361  0.00  0.00    +0.251 C 
ATOM     34  H   UNL     1      34.450 -15.771 -20.617  0.00  0.00    +0.148 HD
ENDBRANCH  23  25
ENDBRANCH  22  23
ENDBRANCH   6  22
TORSDOF 5
ENDMDL
MODEL 4
REMARK VINA RESULT:     -12.3      5.900     11.865
REMARK  Name = 24880024
REMARK  5 active torsions:
REMARK  status: ('A' for Active; 'I' for Inactive)
REMARK    1  A    between atoms: N_5  and  C_12
REMARK    2  A    between atoms: C_6  and  C_22
REMARK    3  A    between atoms: C_13  and  C_21
REMARK    4  A    between atoms: C_22  and  C_23
REMARK    5  A    between atoms: C_23  and  N_25
REMARK                            x       y       z     vdW  Elec       q    Type
REMARK                         _______ _______ _______ _____ _____    ______ ____
ROOT
ATOM      1  S   UNL     1      33.901 -22.801 -16.138  0.00  0.00    -0.056 S 
ATOM      2  O   UNL     1      32.616 -19.785 -19.463  0.00  0.00    -0.252 OA
ATOM      3  N   UNL     1      31.861 -21.680 -17.264  0.00  0.00    -0.223 NA
ATOM      4  N   UNL     1      34.036 -21.076 -18.107  0.00  0.00    -0.248 N 
ATOM      5  N   UNL     1      34.935 -19.681 -19.749  0.00  0.00    -0.268 N 
ATOM      6  C   UNL     1      32.339 -23.208 -15.558  0.00  0.00    +0.031 C 
ATOM      7  C   UNL     1      31.385 -22.518 -16.275  0.00  0.00    +0.103 C 
ATOM      8  C   UNL     1      33.174 -21.749 -17.283  0.00  0.00    +0.166 C 
ATOM      9  C   UNL     1      33.749 -20.136 -19.150  0.00  0.00    +0.310 C 
ATOM     10  H   UNL     1      34.992 -21.265 -17.962  0.00  0.00    +0.158 HD
ATOM     11  H   UNL     1      35.772 -20.054 -19.388  0.00  0.00    +0.156 HD
ENDROOT
BRANCH   5  12
ATOM     12  C   UNL     1      35.075 -18.753 -20.808  0.00  0.00    +0.052 C 
ATOM     13  C   UNL     1      34.729 -18.149 -23.121  0.00  0.00    +0.073 C 
ATOM     14  C   UNL     1      34.591 -19.064 -22.078  0.00  0.00    +0.019 C 
ATOM     15  C   UNL     1      35.697 -17.525 -20.580  0.00  0.00    +0.015 C 
ATOM     16  C   UNL     1      35.350 -16.921 -22.893  0.00  0.00    +0.004 C 
ATOM     17  C   UNL     1      35.834 -16.609 -21.623  0.00  0.00    +0.001 C 
BRANCH  13  21
ATOM     18  F   UNL     1      34.710 -19.647 -24.985  0.00  0.00    -0.166 F 
ATOM     19  F   UNL     1      32.854 -18.623 -24.528  0.00  0.00    -0.166 F 
ATOM     20  F   UNL     1      34.512 -17.523 -25.404  0.00  0.00    -0.166 F 
ATOM     21  C   UNL     1      34.212 -18.481 -24.480  0.00  0.00    +0.419 C 
ENDBRANCH  13  21
ENDBRANCH   5  12
BRANCH   6  22
ATOM     22  C   UNL     1      32.174 -24.191 -14.424  0.00  0.00    +0.056 C 
BRANCH  22  23
ATOM     23  C   UNL     1      33.046 -23.862 -13.213  0.00  0.00    +0.093 C 
BRANCH  23  25
ATOM     24  S   UNL     1      37.477 -24.617 -14.366  0.00  0.00    -0.101 S 
ATOM     25  N   UNL     1      34.431 -24.083 -13.504  0.00  0.00    -0.320 N 
ATOM     26  N   UNL     1      35.117 -23.658 -11.265  0.00  0.00    -0.233 NA
ATOM     27  N   UNL     1      37.434 -23.763 -10.578  0.00  0.00    -0.247 NA
ATOM     28  C   UNL     1      35.443 -23.978 -12.532  0.00  0.00    +0.118 C 
ATOM     29  C   UNL     1      36.777 -24.201 -12.855  0.00  0.00    +0.145 C 
ATOM     30  C   UNL     1      37.747 -24.086 -11.861  0.00  0.00    +0.073 C 
ATOM     31  C   UNL     1      39.058 -24.345 -12.362  0.00  0.00    +0.022 C 
ATOM     32  C   UNL     1      39.052 -24.645 -13.705  0.00  0.00    +0.033 C 
ATOM     33  C   UNL     1      36.121 -23.571 -10.373  0.00  0.00    +0.251 C 
ATOM     34  H   UNL     1      34.686 -24.317 -14.425  0.00  0.00    +0.148 HD
ENDBRANCH  23  25
ENDBRANCH  22  23
ENDBRANCH   6  22
TORSDOF 5
ENDMDL
MODEL 5
REMARK VINA RESULT:     -12.0      2.091      2.523
REMARK  Name = 24880024
REMARK  5 active torsions:
REMARK  status: ('A' for Active; 'I' for Inactive)
REMARK    1  A    between atoms: N_5  and  C_12
REMARK    2  A    between atoms: C_6  and  C_22
REMARK    3  A    between atoms: C_13  and  C_21
REMARK    4  A    between atoms: C_22  and  C_23
REMARK    5  A    between atoms: C_23  and  N_25
REMARK                            x       y       z     vdW  Elec       q    Type
REMARK                         _______ _______ _______ _____ _____    ______ ____
ROOT
ATOM      1  S   UNL     1      34.467 -20.394 -19.788  0.00  0.00    -0.056 S 
ATOM      2  O   UNL     1      37.722 -20.950 -16.487  0.00  0.00    -0.252 OA
ATOM      3  N   UNL     1      36.815 -19.630 -19.022  0.00  0.00    -0.223 NA
ATOM      4  N   UNL     1      35.698 -21.257 -17.641  0.00  0.00    -0.248 N 
ATOM      5  N   UNL     1      36.114 -22.442 -15.673  0.00  0.00    -0.268 N 
ATOM      6  C   UNL     1      35.286 -19.233 -20.749  0.00  0.00    +0.031 C 
ATOM      7  C   UNL     1      36.514 -18.953 -20.188  0.00  0.00    +0.103 C 
ATOM      8  C   UNL     1      35.808 -20.418 -18.717  0.00  0.00    +0.166 C 
ATOM      9  C   UNL     1      36.629 -21.500 -16.578  0.00  0.00    +0.310 C 
ATOM     10  H   UNL     1      34.858 -21.768 -17.588  0.00  0.00    +0.158 HD
ATOM     11  H   UNL     1      35.220 -22.796 -15.880  0.00  0.00    +0.156 HD
ENDROOT
BRANCH   5  12
ATOM     12  C   UNL     1      36.724 -22.944 -14.499  0.00  0.00    +0.052 C 
ATOM     13  C   UNL     1      38.567 -24.069 -13.415  0.00  0.00    +0.073 C 
ATOM     14  C   UNL     1      37.966 -23.575 -14.573  0.00  0.00    +0.019 C 
ATOM     15  C   UNL     1      36.084 -22.807 -13.268  0.00  0.00    +0.015 C 
ATOM     16  C   UNL     1      37.927 -23.932 -12.184  0.00  0.00    +0.004 C 
ATOM     17  C   UNL     1      36.685 -23.301 -12.110  0.00  0.00    +0.001 C 
BRANCH  13  21
ATOM     18  F   UNL     1      40.425 -24.768 -14.751  0.00  0.00    -0.166 F 
ATOM     19  F   UNL     1      40.853 -24.157 -12.715  0.00  0.00    -0.166 F 
ATOM     20  F   UNL     1      39.845 -26.048 -13.092  0.00  0.00    -0.166 F 
ATOM     21  C   UNL     1      39.895 -24.744 -13.493  0.00  0.00    +0.419 C 
ENDBRANCH  13  21
ENDBRANCH   5  12
BRANCH   6  22
ATOM     22  C   UNL     1      34.645 -18.683 -21.999  0.00  0.00    +0.056 C 
BRANCH  22  23
ATOM     23  C   UNL     1      35.530 -17.675 -22.733  0.00  0.00    +0.093 C 
BRANCH  23  25
ATOM     24  S   UNL     1      34.521 -13.373 -21.319  0.00  0.00    -0.101 S 
ATOM     25  N   UNL     1      35.197 -16.334 -22.360  0.00  0.00    -0.320 N 
ATOM     26  N   UNL     1      34.433 -15.765 -24.541  0.00  0.00    -0.233 NA
ATOM     27  N   UNL     1      33.582 -13.565 -25.083  0.00  0.00    -0.247 NA
ATOM     28  C   UNL     1      34.656 -15.400 -23.263  0.00  0.00    +0.118 C 
ATOM     29  C   UNL     1      34.346 -14.106 -22.861  0.00  0.00    +0.145 C 
ATOM     30  C   UNL     1      33.813 -13.213 -23.790  0.00  0.00    +0.073 C 
ATOM     31  C   UNL     1      33.554 -11.934 -23.213  0.00  0.00    +0.022 C 
ATOM     32  C   UNL     1      33.893 -11.886 -21.880  0.00  0.00    +0.033 C 
ATOM     33  C   UNL     1      33.915 -14.835 -25.365  0.00  0.00    +0.251 C 
ATOM     34  H   UNL     1      35.354 -16.052 -21.431  0.00  0.00    +0.148 HD
ENDBRANCH  23  25
ENDBRANCH  22  23
ENDBRANCH   6  22
TORSDOF 5
ENDMDL
MODEL 6
REMARK VINA RESULT:     -11.8      2.035      2.729
REMARK  Name = 24880024
REMARK  5 active torsions:
REMARK  status: ('A' for Active; 'I' for Inactive)
REMARK    1  A    between atoms: N_5  and  C_12
REMARK    2  A    between atoms: C_6  and  C_22
REMARK    3  A    between atoms: C_13  and  C_21
REMARK    4  A    between atoms: C_22  and  C_23
REMARK    5  A    between atoms: C_23  and  N_25
REMARK                            x       y       z     vdW  Elec       q    Type
REMARK                         _______ _______ _______ _____ _____    ______ ____
ROOT
ATOM      1  S   UNL     1      34.342 -20.386 -19.816  0.00  0.00    -0.056 S 
ATOM      2  O   UNL     1      37.180 -21.295 -16.222  0.00  0.00    -0.252 OA
ATOM      3  N   UNL     1      36.689 -19.915 -18.839  0.00  0.00    -0.223 NA
ATOM      4  N   UNL     1      35.249 -21.361 -17.558  0.00  0.00    -0.248 N 
ATOM      5  N   UNL     1      35.326 -22.554 -15.553  0.00  0.00    -0.268 N 
ATOM      6  C   UNL     1      35.389 -19.357 -20.703  0.00  0.00    +0.031 C 
ATOM      7  C   UNL     1      36.586 -19.226 -20.031  0.00  0.00    +0.103 C 
ATOM      8  C   UNL     1      35.565 -20.562 -18.624  0.00  0.00    +0.166 C 
ATOM      9  C   UNL     1      36.039 -21.702 -16.412  0.00  0.00    +0.310 C 
ATOM     10  H   UNL     1      34.349 -21.759 -17.581  0.00  0.00    +0.158 HD
ATOM     11  H   UNL     1      34.416 -22.795 -15.840  0.00  0.00    +0.156 HD
ENDROOT
BRANCH   5  12
ATOM     12  C   UNL     1      35.756 -23.109 -14.324  0.00  0.00    +0.052 C 
ATOM     13  C   UNL     1      37.508 -24.046 -12.950  0.00  0.00    +0.073 C 
ATOM     14  C   UNL     1      37.084 -23.500 -14.161  0.00  0.00    +0.019 C 
ATOM     15  C   UNL     1      34.850 -23.265 -13.275  0.00  0.00    +0.015 C 
ATOM     16  C   UNL     1      36.602 -24.202 -11.901  0.00  0.00    +0.004 C 
ATOM     17  C   UNL     1      35.272 -23.811 -12.063  0.00  0.00    +0.001 C 
BRANCH  13  21
ATOM     18  F   UNL     1      39.072 -25.759 -12.365  0.00  0.00    -0.166 F 
ATOM     19  F   UNL     1      39.671 -24.369 -13.918  0.00  0.00    -0.166 F 
ATOM     20  F   UNL     1      39.587 -23.711 -11.847  0.00  0.00    -0.166 F 
ATOM     21  C   UNL     1      38.929 -24.465 -12.775  0.00  0.00    +0.419 C 
ENDBRANCH  13  21
ENDBRANCH   5  12
BRANCH   6  22
ATOM     22  C   UNL     1      34.943 -18.752 -22.011  0.00  0.00    +0.056 C 
BRANCH  22  23
ATOM     23  C   UNL     1      36.002 -17.853 -22.648  0.00  0.00    +0.093 C 
BRANCH  23  25
ATOM     24  S   UNL     1      34.145 -13.933 -24.296  0.00  0.00    -0.101 S 
ATOM     25  N   UNL     1      35.427 -16.619 -23.092  0.00  0.00    -0.320 N 
ATOM     26  N   UNL     1      35.299 -15.720 -20.892  0.00  0.00    -0.233 NA
ATOM     27  N   UNL     1      34.413 -13.514 -20.444  0.00  0.00    -0.247 NA
ATOM     28  C   UNL     1      35.084 -15.574 -22.214  0.00  0.00    +0.118 C 
ATOM     29  C   UNL     1      34.527 -14.391 -22.687  0.00  0.00    +0.145 C 
ATOM     30  C   UNL     1      34.202 -13.382 -21.781  0.00  0.00    +0.073 C 
ATOM     31  C   UNL     1      33.642 -12.242 -22.431  0.00  0.00    +0.022 C 
ATOM     32  C   UNL     1      33.556 -12.410 -23.794  0.00  0.00    +0.033 C 
ATOM     33  C   UNL     1      34.954 -14.692 -20.095  0.00  0.00    +0.251 C 
ATOM     34  H   UNL     1      35.262 -16.498 -24.055  0.00  0.00    +0.148 HD
ENDBRANCH  23  25
ENDBRANCH  22  23
ENDBRANCH   6  22
TORSDOF 5
ENDMDL
MODEL 7
REMARK VINA RESULT:     -11.4      2.102      2.798
REMARK  Name = 24880024
REMARK  5 active torsions:
REMARK  status: ('A' for Active; 'I' for Inactive)
REMARK    1  A    between atoms: N_5  and  C_12
REMARK    2  A    between atoms: C_6  and  C_22
REMARK    3  A    between atoms: C_13  and  C_21
REMARK    4  A    between atoms: C_22  and  C_23
REMARK    5  A    between atoms: C_23  and  N_25
REMARK                            x       y       z     vdW  Elec       q    Type
REMARK                         _______ _______ _______ _____ _____    ______ ____
ROOT
ATOM      1  S   UNL     1      37.122 -18.644 -20.243  0.00  0.00    -0.056 S 
ATOM      2  O   UNL     1      35.177 -21.792 -17.396  0.00  0.00    -0.252 OA
ATOM      3  N   UNL     1      35.029 -20.117 -19.880  0.00  0.00    -0.223 NA
ATOM      4  N   UNL     1      36.770 -20.276 -18.222  0.00  0.00    -0.248 N 
ATOM      5  N   UNL     1      37.181 -21.442 -16.242  0.00  0.00    -0.268 N 
ATOM      6  C   UNL     1      35.867 -18.556 -21.408  0.00  0.00    +0.031 C 
ATOM      7  C   UNL     1      34.841 -19.404 -21.047  0.00  0.00    +0.103 C 
ATOM      8  C   UNL     1      36.198 -19.797 -19.370  0.00  0.00    +0.166 C 
ATOM      9  C   UNL     1      36.264 -21.236 -17.286  0.00  0.00    +0.310 C 
ATOM     10  H   UNL     1      37.659 -19.909 -18.009  0.00  0.00    +0.158 HD
ATOM     11  H   UNL     1      38.015 -20.922 -16.290  0.00  0.00    +0.156 HD
ENDROOT
BRANCH   5  12
ATOM     12  C   UNL     1      37.052 -22.308 -15.130  0.00  0.00    +0.052 C 
ATOM     13  C   UNL     1      37.974 -24.013 -13.688  0.00  0.00    +0.073 C 
ATOM     14  C   UNL     1      38.100 -23.161 -14.785  0.00  0.00    +0.019 C 
ATOM     15  C   UNL     1      35.878 -22.307 -14.378  0.00  0.00    +0.015 C 
ATOM     16  C   UNL     1      36.799 -24.012 -12.936  0.00  0.00    +0.004 C 
ATOM     17  C   UNL     1      35.751 -23.159 -13.281  0.00  0.00    +0.001 C 
BRANCH  13  21
ATOM     18  F   UNL     1      39.622 -25.603 -14.380  0.00  0.00    -0.166 F 
ATOM     19  F   UNL     1      40.154 -24.285 -12.742  0.00  0.00    -0.166 F 
ATOM     20  F   UNL     1      38.716 -25.885 -12.424  0.00  0.00    -0.166 F 
ATOM     21  C   UNL     1      39.094 -24.926 -13.319  0.00  0.00    +0.419 C 
ENDBRANCH  13  21
ENDBRANCH   5  12
BRANCH   6  22
ATOM     22  C   UNL     1      35.992 -17.643 -22.603  0.00  0.00    +0.056 C 
BRANCH  22  23
ATOM     23  C   UNL     1      34.699 -17.530 -23.410  0.00  0.00    +0.093 C 
BRANCH  23  25
ATOM     24  S   UNL     1      33.945 -13.235 -24.994  0.00  0.00    -0.101 S 
ATOM     25  N   UNL     1      34.476 -16.181 -23.835  0.00  0.00    -0.320 N 
ATOM     26  N   UNL     1      34.799 -15.288 -21.652  0.00  0.00    -0.233 NA
ATOM     27  N   UNL     1      34.638 -12.920 -21.185  0.00  0.00    -0.247 NA
ATOM     28  C   UNL     1      34.528 -15.083 -22.956  0.00  0.00    +0.118 C 
ATOM     29  C   UNL     1      34.306 -13.788 -23.409  0.00  0.00    +0.145 C 
ATOM     30  C   UNL     1      34.366 -12.730 -22.503  0.00  0.00    +0.073 C 
ATOM     31  C   UNL     1      34.114 -11.474 -23.133  0.00  0.00    +0.022 C 
ATOM     32  C   UNL     1      33.871 -11.606 -24.481  0.00  0.00    +0.033 C 
ATOM     33  C   UNL     1      34.838 -14.205 -20.854  0.00  0.00    +0.251 C 
ATOM     34  H   UNL     1      34.276 -16.015 -24.784  0.00  0.00    +0.148 HD
ENDBRANCH  23  25
ENDBRANCH  22  23
ENDBRANCH   6  22
TORSDOF 5
ENDMDL
MODEL 8
REMARK VINA RESULT:     -11.1      5.475      8.710
REMARK  Name = 24880024
REMARK  5 active torsions:
REMARK  status: ('A' for Active; 'I' for Inactive)
REMARK    1  A    between atoms: N_5  and  C_12
REMARK    2  A    between atoms: C_6  and  C_22
REMARK    3  A    between atoms: C_13  and  C_21
REMARK    4  A    between atoms: C_22  and  C_23
REMARK    5  A    between atoms: C_23  and  N_25
REMARK                            x       y       z     vdW  Elec       q    Type
REMARK                         _______ _______ _______ _____ _____    ______ ____
ROOT
ATOM      1  S   UNL     1      34.262 -13.052 -23.876  0.00  0.00    -0.056 S 
ATOM      2  O   UNL     1      35.038 -15.502 -19.978  0.00  0.00    -0.252 OA
ATOM      3  N   UNL     1      34.361 -12.895 -21.297  0.00  0.00    -0.223 NA
ATOM      4  N   UNL     1      34.816 -15.051 -22.273  0.00  0.00    -0.248 N 
ATOM      5  N   UNL     1      35.356 -17.204 -21.551  0.00  0.00    -0.268 N 
ATOM      6  C   UNL     1      33.939 -11.532 -23.152  0.00  0.00    +0.031 C 
ATOM      7  C   UNL     1      34.039 -11.642 -21.781  0.00  0.00    +0.103 C 
ATOM      8  C   UNL     1      34.502 -13.718 -22.313  0.00  0.00    +0.166 C 
ATOM      9  C   UNL     1      35.070 -15.892 -21.141  0.00  0.00    +0.310 C 
ATOM     10  H   UNL     1      34.875 -15.496 -23.150  0.00  0.00    +0.158 HD
ATOM     11  H   UNL     1      35.343 -17.366 -22.522  0.00  0.00    +0.156 HD
ENDROOT
BRANCH   5  12
ATOM     12  C   UNL     1      35.657 -18.323 -20.740  0.00  0.00    +0.052 C 
ATOM     13  C   UNL     1      34.941 -20.302 -19.553  0.00  0.00    +0.073 C 
ATOM     14  C   UNL     1      34.643 -19.199 -20.353  0.00  0.00    +0.019 C 
ATOM     15  C   UNL     1      36.970 -18.552 -20.327  0.00  0.00    +0.015 C 
ATOM     16  C   UNL     1      36.254 -20.530 -19.141  0.00  0.00    +0.004 C 
ATOM     17  C   UNL     1      37.269 -19.655 -19.528  0.00  0.00    +0.001 C 
BRANCH  13  21
ATOM     18  F   UNL     1      34.198 -22.556 -19.249  0.00  0.00    -0.166 F 
ATOM     19  F   UNL     1      33.465 -21.080 -17.839  0.00  0.00    -0.166 F 
ATOM     20  F   UNL     1      32.722 -21.091 -19.883  0.00  0.00    -0.166 F 
ATOM     21  C   UNL     1      33.857 -21.239 -19.139  0.00  0.00    +0.419 C 
ENDBRANCH  13  21
ENDBRANCH   5  12
BRANCH   6  22
ATOM     22  C   UNL     1      33.608 -10.330 -24.003  0.00  0.00    +0.056 C 
BRANCH  22  23
ATOM     23  C   UNL     1      34.503  -9.126 -23.715  0.00  0.00    +0.093 C 
BRANCH  23  25
ATOM     24  S   UNL     1      33.073  -6.898 -19.905  0.00  0.00    -0.101 S 
ATOM     25  N   UNL     1      34.028  -8.395 -22.579  0.00  0.00    -0.320 N 
ATOM     26  N   UNL     1      32.830  -6.827 -23.910  0.00  0.00    -0.233 NA
ATOM     27  N   UNL     1      31.562  -5.008 -22.942  0.00  0.00    -0.247 NA
ATOM     28  C   UNL     1      33.202  -7.260 -22.690  0.00  0.00    +0.118 C 
ATOM     29  C   UNL     1      32.762  -6.578 -21.562  0.00  0.00    +0.145 C 
ATOM     30  C   UNL     1      31.946  -5.458 -21.719  0.00  0.00    +0.073 C 
ATOM     31  C   UNL     1      31.587  -4.880 -20.464  0.00  0.00    +0.022 C 
ATOM     32  C   UNL     1      32.132  -5.563 -19.401  0.00  0.00    +0.033 C 
ATOM     33  C   UNL     1      32.040  -5.738 -23.962  0.00  0.00    +0.251 C 
ATOM     34  H   UNL     1      34.292  -8.698 -21.681  0.00  0.00    +0.148 HD
ENDBRANCH  23  25
ENDBRANCH  22  23
ENDBRANCH   6  22
TORSDOF 5
ENDMDL
MODEL 9
REMARK VINA RESULT:     -11.1      3.805      4.439
REMARK  Name = 24880024
REMARK  5 active torsions:
REMARK  status: ('A' for Active; 'I' for Inactive)
REMARK    1  A    between atoms: N_5  and  C_12
REMARK    2  A    between atoms: C_6  and  C_22
REMARK    3  A    between atoms: C_13  and  C_21
REMARK    4  A    between atoms: C_22  and  C_23
REMARK    5  A    between atoms: C_23  and  N_25
REMARK                            x       y       z     vdW  Elec       q    Type
REMARK                         _______ _______ _______ _____ _____    ______ ____
ROOT
ATOM      1  S   UNL     1      36.327 -20.110 -19.480  0.00  0.00    -0.056 S 
ATOM      2  O   UNL     1      32.267 -21.548 -17.677  0.00  0.00    -0.252 OA
ATOM      3  N   UNL     1      33.761 -20.027 -19.786  0.00  0.00    -0.223 NA
ATOM      4  N   UNL     1      34.590 -21.276 -17.900  0.00  0.00    -0.248 N 
ATOM      5  N   UNL     1      33.724 -22.531 -16.133  0.00  0.00    -0.268 N 
ATOM      6  C   UNL     1      35.706 -19.232 -20.816  0.00  0.00    +0.031 C 
ATOM      7  C   UNL     1      34.328 -19.300 -20.814  0.00  0.00    +0.103 C 
ATOM      8  C   UNL     1      34.720 -20.501 -19.022  0.00  0.00    +0.166 C 
ATOM      9  C   UNL     1      33.403 -21.770 -17.268  0.00  0.00    +0.310 C 
ATOM     10  H   UNL     1      35.436 -21.531 -17.464  0.00  0.00    +0.158 HD
ATOM     11  H   UNL     1      34.683 -22.621 -15.930  0.00  0.00    +0.156 HD
ENDROOT
BRANCH   5  12
ATOM     12  C   UNL     1      32.838 -23.186 -15.245  0.00  0.00    +0.052 C 
ATOM     13  C   UNL     1      30.598 -23.862 -14.643  0.00  0.00    +0.073 C 
ATOM     14  C   UNL     1      31.471 -23.216 -15.518  0.00  0.00    +0.019 C 
ATOM     15  C   UNL     1      33.333 -23.804 -14.096  0.00  0.00    +0.015 C 
ATOM     16  C   UNL     1      31.093 -24.479 -13.495  0.00  0.00    +0.004 C 
ATOM     17  C   UNL     1      32.460 -24.451 -13.221  0.00  0.00    +0.001 C 
BRANCH  13  21
ATOM     18  F   UNL     1      28.840 -24.256 -16.217  0.00  0.00    -0.166 F 
ATOM     19  F   UNL     1      28.441 -24.767 -14.148  0.00  0.00    -0.166 F 
ATOM     20  F   UNL     1      28.538 -22.680 -14.751  0.00  0.00    -0.166 F 
ATOM     21  C   UNL     1      29.136 -23.893 -14.935  0.00  0.00    +0.419 C 
ENDBRANCH  13  21
ENDBRANCH   5  12
BRANCH   6  22
ATOM     22  C   UNL     1      36.638 -18.535 -21.776  0.00  0.00    +0.056 C 
BRANCH  22  23
ATOM     23  C   UNL     1      35.903 -17.757 -22.867  0.00  0.00    +0.093 C 
BRANCH  23  25
ATOM     24  S   UNL     1      34.447 -13.741 -21.056  0.00  0.00    -0.101 S 
ATOM     25  N   UNL     1      35.430 -16.500 -22.370  0.00  0.00    -0.320 N 
ATOM     26  N   UNL     1      34.572 -15.824 -24.485  0.00  0.00    -0.233 NA
ATOM     27  N   UNL     1      33.473 -13.694 -24.816  0.00  0.00    -0.247 NA
ATOM     28  C   UNL     1      34.774 -15.555 -23.180  0.00  0.00    +0.118 C 
ATOM     29  C   UNL     1      34.329 -14.345 -22.658  0.00  0.00    +0.145 C 
ATOM     30  C   UNL     1      33.685 -13.438 -23.498  0.00  0.00    +0.073 C 
ATOM     31  C   UNL     1      33.295 -12.253 -22.803  0.00  0.00    +0.022 C 
ATOM     32  C   UNL     1      33.649 -12.289 -21.474  0.00  0.00    +0.033 C 
ATOM     33  C   UNL     1      33.940 -14.888 -25.216  0.00  0.00    +0.251 C 
ATOM     34  H   UNL     1      35.571 -16.288 -21.420  0.00  0.00    +0.148 HD
ENDBRANCH  23  25
ENDBRANCH  22  23
ENDBRANCH   6  22
TORSDOF 5
ENDMDL
