MODEL 1
REMARK VINA RESULT:     -12.9      0.000      0.000
REMARK  Name = 5287728
REMARK  9 active torsions:
REMARK  status: ('A' for Active; 'I' for Inactive)
REMARK    1  A    between atoms: S_1  and  N_4
REMARK    2  A    between atoms: S_1  and  N_22
REMARK    3  A    between atoms: C_5  and  N_10
REMARK    4  A    between atoms: N_10  and  C_13
REMARK    5  A    between atoms: C_13  and  C_14
REMARK    6  A    between atoms: C_15  and  O_20
REMARK    7  A    between atoms: N_22  and  C_24
REMARK    8  A    between atoms: C_27  and  O_30
REMARK    9  A    between atoms: O_30  and  C_32
REMARK                            x       y       z     vdW  Elec       q    Type
REMARK                         _______ _______ _______ _____ _____    ______ ____
ROOT
ATOM      1  S   UNL     1      33.965 -22.054 -18.364  0.00  0.00    +0.113 S 
ATOM      2  O   UNL     1      32.646 -21.574 -17.992  0.00  0.00    -0.138 OA
ATOM      3  O   UNL     1      34.115 -23.347 -19.005  0.00  0.00    -0.138 OA
ENDROOT
BRANCH   1   4
ATOM      4  N   UNL     1      34.702 -20.865 -19.357  0.00  0.00    -0.143 NA
ATOM      5  C   UNL     1      35.809 -18.438 -20.515  0.00  0.00    -0.059 C 
ATOM      6  C   UNL     1      34.469 -19.020 -20.978  0.00  0.00    -0.002 C 
ATOM      7  C   UNL     1      36.702 -19.549 -19.950  0.00  0.00    -0.002 C 
ATOM      8  C   UNL     1      33.789 -19.793 -19.850  0.00  0.00    +0.095 C 
ATOM      9  C   UNL     1      35.989 -20.313 -18.839  0.00  0.00    +0.095 C 
BRANCH   5  10
ATOM     10  N   UNL     1      36.479 -17.775 -21.631  0.00  0.00    +0.388 N 
ATOM     11  H   UNL     1      37.361 -18.250 -21.822  0.00  0.00    -0.084 HD
ATOM     12  H   UNL     1      36.647 -16.801 -21.380  0.00  0.00    -0.084 HD
BRANCH  10  13
ATOM     13  C   UNL     1      35.649 -17.812 -22.826  0.00  0.00    -0.051 C 
BRANCH  13  14
ATOM     14  C   UNL     1      35.110 -16.451 -23.176  0.00  0.00    -0.010 C 
ATOM     15  C   UNL     1      34.407 -16.257 -24.358  0.00  0.00    +0.128 C 
ATOM     16  C   UNL     1      35.328 -15.398 -22.296  0.00  0.00    -0.003 C 
ATOM     17  C   UNL     1      33.915 -14.990 -24.667  0.00  0.00    +0.036 C 
ATOM     18  C   UNL     1      34.836 -14.129 -22.606  0.00  0.00    -0.000 C 
ATOM     19  C   UNL     1      34.129 -13.926 -23.791  0.00  0.00    +0.003 C 
BRANCH  15  20
ATOM     20  O   UNL     1      34.189 -17.286 -25.225  0.00  0.00    -0.506 OA
ATOM     21  H   UNL     1      33.527 -17.923 -25.040  0.00  0.00    +0.292 HD
ENDBRANCH  15  20
ENDBRANCH  13  14
ENDBRANCH  10  13
ENDBRANCH   5  10
ENDBRANCH   1   4
BRANCH   1  22
ATOM     22  N   UNL     1      34.967 -21.967 -16.962  0.00  0.00    -0.205 N 
ATOM     23  H   UNL     1      35.849 -21.529 -16.984  0.00  0.00    +0.175 HD
BRANCH  22  24
ATOM     24  C   UNL     1      34.453 -22.566 -15.758  0.00  0.00    +0.069 C 
ATOM     25  C   UNL     1      35.318 -22.845 -14.707  0.00  0.00    +0.053 C 
ATOM     26  C   UNL     1      33.098 -22.858 -15.661  0.00  0.00    +0.016 C 
ATOM     27  C   UNL     1      34.819 -23.426 -13.541  0.00  0.00    +0.147 C 
ATOM     28  C   UNL     1      32.600 -23.439 -14.495  0.00  0.00    +0.004 C 
ATOM     29  C   UNL     1      33.460 -23.722 -13.435  0.00  0.00    +0.038 C 
BRANCH  27  30
ATOM     30  O   UNL     1      35.659 -23.704 -12.507  0.00  0.00    -0.453 OA
BRANCH  30  32
ATOM     31  F   UNL     1      40.568 -25.850 -13.711  0.00  0.00    -0.204 F 
ATOM     32  C   UNL     1      36.898 -24.246 -12.811  0.00  0.00    +0.145 C 
ATOM     33  C   UNL     1      36.960 -25.401 -13.569  0.00  0.00    +0.040 C 
ATOM     34  C   UNL     1      38.039 -23.617 -12.349  0.00  0.00    +0.040 C 
ATOM     35  C   UNL     1      38.207 -25.946 -13.875  0.00  0.00    +0.033 C 
ATOM     36  C   UNL     1      39.286 -24.162 -12.654  0.00  0.00    +0.033 C 
ATOM     37  C   UNL     1      39.370 -25.327 -13.417  0.00  0.00    +0.140 C 
ENDBRANCH  30  32
ENDBRANCH  27  30
ENDBRANCH  22  24
ENDBRANCH   1  22
TORSDOF 9
ENDMDL
MODEL 2
REMARK VINA RESULT:     -12.6      4.739     11.233
REMARK  Name = 5287728
REMARK  9 active torsions:
REMARK  status: ('A' for Active; 'I' for Inactive)
REMARK    1  A    between atoms: S_1  and  N_4
REMARK    2  A    between atoms: S_1  and  N_22
REMARK    3  A    between atoms: C_5  and  N_10
REMARK    4  A    between atoms: N_10  and  C_13
REMARK    5  A    between atoms: C_13  and  C_14
REMARK    6  A    between atoms: C_15  and  O_20
REMARK    7  A    between atoms: N_22  and  C_24
REMARK    8  A    between atoms: C_27  and  O_30
REMARK    9  A    between atoms: O_30  and  C_32
REMARK                            x       y       z     vdW  Elec       q    Type
REMARK                         _______ _______ _______ _____ _____    ______ ____
ROOT
ATOM      1  S   UNL     1      36.193 -18.047 -20.598  0.00  0.00    +0.113 S 
ATOM      2  O   UNL     1      35.723 -16.771 -20.090  0.00  0.00    -0.138 OA
ATOM      3  O   UNL     1      37.617 -18.312 -20.694  0.00  0.00    -0.138 OA
ENDROOT
BRANCH   1   4
ATOM      4  N   UNL     1      35.469 -19.290 -19.665  0.00  0.00    -0.143 NA
ATOM      5  C   UNL     1      34.347 -21.771 -18.644  0.00  0.00    -0.059 C 
ATOM      6  C   UNL     1      33.462 -20.596 -19.072  0.00  0.00    -0.002 C 
ATOM      7  C   UNL     1      35.726 -21.265 -18.208  0.00  0.00    -0.002 C 
ATOM      8  C   UNL     1      34.142 -19.765 -20.157  0.00  0.00    +0.095 C 
ATOM      9  C   UNL     1      36.373 -20.423 -19.304  0.00  0.00    +0.095 C 
BRANCH   5  10
ATOM     10  N   UNL     1      33.713 -22.504 -17.551  0.00  0.00    +0.388 N 
ATOM     11  H   UNL     1      34.323 -22.479 -16.733  0.00  0.00    -0.084 HD
ATOM     12  H   UNL     1      33.557 -23.467 -17.849  0.00  0.00    -0.084 HD
BRANCH  10  13
ATOM     13  C   UNL     1      32.431 -21.907 -17.207  0.00  0.00    -0.051 C 
BRANCH  13  14
ATOM     14  C   UNL     1      31.929 -22.389 -15.872  0.00  0.00    -0.010 C 
ATOM     15  C   UNL     1      30.568 -22.401 -15.596  0.00  0.00    +0.128 C 
ATOM     16  C   UNL     1      32.851 -22.820 -14.926  0.00  0.00    -0.003 C 
ATOM     17  C   UNL     1      30.121 -22.851 -14.354  0.00  0.00    +0.036 C 
ATOM     18  C   UNL     1      32.403 -23.269 -13.683  0.00  0.00    -0.000 C 
ATOM     19  C   UNL     1      31.039 -23.285 -13.398  0.00  0.00    +0.003 C 
BRANCH  15  20
ATOM     20  O   UNL     1      29.658 -21.981 -16.519  0.00  0.00    -0.506 OA
ATOM     21  H   UNL     1      28.765 -22.258 -16.458  0.00  0.00    +0.292 HD
ENDBRANCH  15  20
ENDBRANCH  13  14
ENDBRANCH  10  13
ENDBRANCH   5  10
ENDBRANCH   1   4
BRANCH   1  22
ATOM     22  N   UNL     1      35.437 -18.311 -22.127  0.00  0.00    -0.205 N 
ATOM     23  H   UNL     1      35.280 -19.219 -22.475  0.00  0.00    +0.175 HD
BRANCH  22  24
ATOM     24  C   UNL     1      35.046 -17.141 -22.869  0.00  0.00    +0.069 C 
ATOM     25  C   UNL     1      35.242 -15.881 -22.317  0.00  0.00    +0.053 C 
ATOM     26  C   UNL     1      34.478 -17.286 -24.129  0.00  0.00    +0.016 C 
ATOM     27  C   UNL     1      34.862 -14.748 -23.037  0.00  0.00    +0.147 C 
ATOM     28  C   UNL     1      34.099 -16.153 -24.847  0.00  0.00    +0.004 C 
ATOM     29  C   UNL     1      34.292 -14.884 -24.302  0.00  0.00    +0.038 C 
BRANCH  27  30
ATOM     30  O   UNL     1      35.049 -13.510 -22.503  0.00  0.00    -0.453 OA
BRANCH  30  32
ATOM     31  F   UNL     1      30.887 -11.286 -19.695  0.00  0.00    -0.204 F 
ATOM     32  C   UNL     1      33.999 -12.949 -21.795  0.00  0.00    +0.145 C 
ATOM     33  C   UNL     1      33.403 -11.796 -22.273  0.00  0.00    +0.040 C 
ATOM     34  C   UNL     1      33.572 -13.557 -20.628  0.00  0.00    +0.040 C 
ATOM     35  C   UNL     1      32.346 -11.231 -21.560  0.00  0.00    +0.033 C 
ATOM     36  C   UNL     1      32.516 -12.992 -19.914  0.00  0.00    +0.033 C 
ATOM     37  C   UNL     1      31.903 -11.829 -20.380  0.00  0.00    +0.140 C 
ENDBRANCH  30  32
ENDBRANCH  27  30
ENDBRANCH  22  24
ENDBRANCH   1  22
TORSDOF 9
ENDMDL
MODEL 3
REMARK VINA RESULT:     -12.6      3.377     10.941
REMARK  Name = 5287728
REMARK  9 active torsions:
REMARK  status: ('A' for Active; 'I' for Inactive)
REMARK    1  A    between atoms: S_1  and  N_4
REMARK    2  A    between atoms: S_1  and  N_22
REMARK    3  A    between atoms: C_5  and  N_10
REMARK    4  A    between atoms: N_10  and  C_13
REMARK    5  A    between atoms: C_13  and  C_14
REMARK    6  A    between atoms: C_15  and  O_20
REMARK    7  A    between atoms: N_22  and  C_24
REMARK    8  A    between atoms: C_27  and  O_30
REMARK    9  A    between atoms: O_30  and  C_32
REMARK                            x       y       z     vdW  Elec       q    Type
REMARK                         _______ _______ _______ _____ _____    ______ ____
ROOT
ATOM      1  S   UNL     1      33.666 -22.406 -17.238  0.00  0.00    +0.113 S 
ATOM      2  O   UNL     1      33.793 -23.712 -17.859  0.00  0.00    -0.138 OA
ATOM      3  O   UNL     1      32.387 -21.719 -17.242  0.00  0.00    -0.138 OA
ENDROOT
BRANCH   1   4
ATOM      4  N   UNL     1      34.211 -22.532 -15.617  0.00  0.00    -0.143 NA
ATOM      5  C   UNL     1      35.342 -23.364 -13.070  0.00  0.00    -0.059 C 
ATOM      6  C   UNL     1      33.830 -23.322 -13.311  0.00  0.00    -0.002 C 
ATOM      7  C   UNL     1      36.053 -22.359 -13.984  0.00  0.00    -0.002 C 
ATOM      8  C   UNL     1      33.503 -23.550 -14.785  0.00  0.00    +0.095 C 
ATOM      9  C   UNL     1      35.693 -22.600 -15.447  0.00  0.00    +0.095 C 
BRANCH   5  10
ATOM     10  N   UNL     1      35.635 -23.064 -11.671  0.00  0.00    +0.388 N 
ATOM     11  H   UNL     1      34.758 -22.942 -11.164  0.00  0.00    -0.084 HD
ATOM     12  H   UNL     1      36.192 -22.210 -11.628  0.00  0.00    -0.084 HD
BRANCH  10  13
ATOM     13  C   UNL     1      36.393 -24.146 -11.059  0.00  0.00    -0.051 C 
BRANCH  13  14
ATOM     14  C   UNL     1      37.580 -24.541 -11.897  0.00  0.00    -0.010 C 
ATOM     15  C   UNL     1      38.718 -23.744 -11.921  0.00  0.00    +0.128 C 
ATOM     16  C   UNL     1      37.515 -25.712 -12.640  0.00  0.00    -0.003 C 
ATOM     17  C   UNL     1      39.809 -24.125 -12.702  0.00  0.00    +0.036 C 
ATOM     18  C   UNL     1      38.607 -26.092 -13.422  0.00  0.00    -0.000 C 
ATOM     19  C   UNL     1      39.752 -25.299 -13.453  0.00  0.00    +0.003 C 
BRANCH  15  20
ATOM     20  O   UNL     1      38.789 -22.594 -11.194  0.00  0.00    -0.506 OA
ATOM     21  H   UNL     1      39.495 -21.993 -11.334  0.00  0.00    +0.292 HD
ENDBRANCH  15  20
ENDBRANCH  13  14
ENDBRANCH  10  13
ENDBRANCH   5  10
ENDBRANCH   1   4
BRANCH   1  22
ATOM     22  N   UNL     1      34.888 -21.387 -17.908  0.00  0.00    -0.205 N 
ATOM     23  H   UNL     1      35.808 -21.386 -17.558  0.00  0.00    +0.175 HD
BRANCH  22  24
ATOM     24  C   UNL     1      34.497 -20.539 -19.004  0.00  0.00    +0.069 C 
ATOM     25  C   UNL     1      35.430 -19.681 -19.573  0.00  0.00    +0.053 C 
ATOM     26  C   UNL     1      33.192 -20.588 -19.478  0.00  0.00    +0.016 C 
ATOM     27  C   UNL     1      35.050 -18.859 -20.635  0.00  0.00    +0.147 C 
ATOM     28  C   UNL     1      32.814 -19.766 -20.539  0.00  0.00    +0.004 C 
ATOM     29  C   UNL     1      33.743 -18.902 -21.117  0.00  0.00    +0.038 C 
BRANCH  27  30
ATOM     30  O   UNL     1      35.957 -18.015 -21.198  0.00  0.00    -0.453 OA
BRANCH  30  32
ATOM     31  F   UNL     1      34.464 -12.781 -21.922  0.00  0.00    -0.204 F 
ATOM     32  C   UNL     1      35.581 -16.694 -21.381  0.00  0.00    +0.145 C 
ATOM     33  C   UNL     1      35.249 -15.929 -20.277  0.00  0.00    +0.040 C 
ATOM     34  C   UNL     1      35.546 -16.175 -22.662  0.00  0.00    +0.040 C 
ATOM     35  C   UNL     1      34.870 -14.600 -20.461  0.00  0.00    +0.033 C 
ATOM     36  C   UNL     1      35.165 -14.846 -22.846  0.00  0.00    +0.033 C 
ATOM     37  C   UNL     1      34.828 -14.058 -21.745  0.00  0.00    +0.140 C 
ENDBRANCH  30  32
ENDBRANCH  27  30
ENDBRANCH  22  24
ENDBRANCH   1  22
TORSDOF 9
ENDMDL
MODEL 4
REMARK VINA RESULT:     -12.4      1.333      2.019
REMARK  Name = 5287728
REMARK  9 active torsions:
REMARK  status: ('A' for Active; 'I' for Inactive)
REMARK    1  A    between atoms: S_1  and  N_4
REMARK    2  A    between atoms: S_1  and  N_22
REMARK    3  A    between atoms: C_5  and  N_10
REMARK    4  A    between atoms: N_10  and  C_13
REMARK    5  A    between atoms: C_13  and  C_14
REMARK    6  A    between atoms: C_15  and  O_20
REMARK    7  A    between atoms: N_22  and  C_24
REMARK    8  A    between atoms: C_27  and  O_30
REMARK    9  A    between atoms: O_30  and  C_32
REMARK                            x       y       z     vdW  Elec       q    Type
REMARK                         _______ _______ _______ _____ _____    ______ ____
ROOT
ATOM      1  S   UNL     1      33.701 -22.103 -17.679  0.00  0.00    +0.113 S 
ATOM      2  O   UNL     1      32.363 -21.642 -17.353  0.00  0.00    -0.138 OA
ATOM      3  O   UNL     1      33.893 -23.405 -18.290  0.00  0.00    -0.138 OA
ENDROOT
BRANCH   1   4
ATOM      4  N   UNL     1      34.443 -20.919 -18.673  0.00  0.00    -0.143 NA
ATOM      5  C   UNL     1      35.690 -19.410 -20.823  0.00  0.00    -0.059 C 
ATOM      6  C   UNL     1      36.497 -19.953 -19.639  0.00  0.00    -0.002 C 
ATOM      7  C   UNL     1      34.232 -19.180 -20.410  0.00  0.00    -0.002 C 
ATOM      8  C   UNL     1      35.852 -21.214 -19.068  0.00  0.00    +0.095 C 
ATOM      9  C   UNL     1      33.621 -20.451 -19.827  0.00  0.00    +0.095 C 
BRANCH   5  10
ATOM     10  N   UNL     1      36.279 -18.161 -21.300  0.00  0.00    +0.388 N 
ATOM     11  H   UNL     1      36.093 -18.063 -22.298  0.00  0.00    -0.084 HD
ATOM     12  H   UNL     1      37.284 -18.186 -21.127  0.00  0.00    -0.084 HD
BRANCH  10  13
ATOM     13  C   UNL     1      35.712 -17.021 -20.595  0.00  0.00    -0.051 C 
BRANCH  13  14
ATOM     14  C   UNL     1      35.269 -15.940 -21.543  0.00  0.00    -0.010 C 
ATOM     15  C   UNL     1      34.976 -14.667 -21.069  0.00  0.00    +0.128 C 
ATOM     16  C   UNL     1      35.158 -16.239 -22.896  0.00  0.00    -0.003 C 
ATOM     17  C   UNL     1      34.567 -13.677 -21.962  0.00  0.00    +0.036 C 
ATOM     18  C   UNL     1      34.748 -15.248 -23.788  0.00  0.00    -0.000 C 
ATOM     19  C   UNL     1      34.453 -13.968 -23.322  0.00  0.00    +0.003 C 
BRANCH  15  20
ATOM     20  O   UNL     1      35.083 -14.367 -19.744  0.00  0.00    -0.506 OA
ATOM     21  H   UNL     1      35.796 -14.710 -19.242  0.00  0.00    +0.292 HD
ENDBRANCH  15  20
ENDBRANCH  13  14
ENDBRANCH  10  13
ENDBRANCH   5  10
ENDBRANCH   1   4
BRANCH   1  22
ATOM     22  N   UNL     1      34.660 -21.970 -16.251  0.00  0.00    -0.205 N 
ATOM     23  H   UNL     1      35.486 -21.435 -16.231  0.00  0.00    +0.175 HD
BRANCH  22  24
ATOM     24  C   UNL     1      34.196 -22.681 -15.088  0.00  0.00    +0.069 C 
ATOM     25  C   UNL     1      35.090 -22.989 -14.069  0.00  0.00    +0.053 C 
ATOM     26  C   UNL     1      32.860 -23.052 -14.998  0.00  0.00    +0.016 C 
ATOM     27  C   UNL     1      34.639 -23.678 -12.944  0.00  0.00    +0.147 C 
ATOM     28  C   UNL     1      32.411 -23.741 -13.872  0.00  0.00    +0.004 C 
ATOM     29  C   UNL     1      33.300 -24.054 -12.845  0.00  0.00    +0.038 C 
BRANCH  27  30
ATOM     30  O   UNL     1      35.508 -23.985 -11.942  0.00  0.00    -0.453 OA
BRANCH  30  32
ATOM     31  F   UNL     1      40.646 -25.325 -13.340  0.00  0.00    -0.204 F 
ATOM     32  C   UNL     1      36.804 -24.323 -12.294  0.00  0.00    +0.145 C 
ATOM     33  C   UNL     1      37.847 -23.508 -11.891  0.00  0.00    +0.040 C 
ATOM     34  C   UNL     1      37.023 -25.467 -13.040  0.00  0.00    +0.040 C 
ATOM     35  C   UNL     1      39.151 -23.849 -12.246  0.00  0.00    +0.033 C 
ATOM     36  C   UNL     1      38.327 -25.808 -13.396  0.00  0.00    +0.033 C 
ATOM     37  C   UNL     1      39.392 -24.998 -12.999  0.00  0.00    +0.140 C 
ENDBRANCH  30  32
ENDBRANCH  27  30
ENDBRANCH  22  24
ENDBRANCH   1  22
TORSDOF 9
ENDMDL
MODEL 5
REMARK VINA RESULT:     -12.3      3.970     11.434
REMARK  Name = 5287728
REMARK  9 active torsions:
REMARK  status: ('A' for Active; 'I' for Inactive)
REMARK    1  A    between atoms: S_1  and  N_4
REMARK    2  A    between atoms: S_1  and  N_22
REMARK    3  A    between atoms: C_5  and  N_10
REMARK    4  A    between atoms: N_10  and  C_13
REMARK    5  A    between atoms: C_13  and  C_14
REMARK    6  A    between atoms: C_15  and  O_20
REMARK    7  A    between atoms: N_22  and  C_24
REMARK    8  A    between atoms: C_27  and  O_30
REMARK    9  A    between atoms: O_30  and  C_32
REMARK                            x       y       z     vdW  Elec       q    Type
REMARK                         _______ _______ _______ _____ _____    ______ ____
ROOT
ATOM      1  S   UNL     1      36.490 -19.897 -19.383  0.00  0.00    +0.113 S 
ATOM      2  O   UNL     1      37.394 -18.820 -19.024  0.00  0.00    -0.138 OA
ATOM      3  O   UNL     1      36.899 -20.899 -20.352  0.00  0.00    -0.138 OA
ENDROOT
BRANCH   1   4
ATOM      4  N   UNL     1      36.015 -20.696 -17.942  0.00  0.00    -0.143 NA
ATOM      5  C   UNL     1      35.499 -22.588 -15.795  0.00  0.00    -0.059 C 
ATOM      6  C   UNL     1      34.393 -22.119 -16.746  0.00  0.00    -0.002 C 
ATOM      7  C   UNL     1      36.596 -21.523 -15.691  0.00  0.00    -0.002 C 
ATOM      8  C   UNL     1      34.966 -21.744 -18.111  0.00  0.00    +0.095 C 
ATOM      9  C   UNL     1      37.136 -21.157 -17.071  0.00  0.00    +0.095 C 
BRANCH   5  10
ATOM     10  N   UNL     1      34.940 -22.863 -14.474  0.00  0.00    +0.388 N 
ATOM     11  H   UNL     1      33.945 -22.638 -14.478  0.00  0.00    -0.084 HD
ATOM     12  H   UNL     1      35.431 -22.293 -13.785  0.00  0.00    -0.084 HD
BRANCH  10  13
ATOM     13  C   UNL     1      35.109 -24.266 -14.125  0.00  0.00    -0.051 C 
BRANCH  13  14
ATOM     14  C   UNL     1      36.523 -24.573 -13.709  0.00  0.00    -0.010 C 
ATOM     15  C   UNL     1      37.264 -25.529 -14.393  0.00  0.00    +0.128 C 
ATOM     16  C   UNL     1      37.069 -23.885 -12.633  0.00  0.00    -0.003 C 
ATOM     17  C   UNL     1      38.572 -25.801 -13.994  0.00  0.00    +0.036 C 
ATOM     18  C   UNL     1      38.378 -24.158 -12.234  0.00  0.00    -0.000 C 
ATOM     19  C   UNL     1      39.129 -25.115 -12.915  0.00  0.00    +0.003 C 
BRANCH  15  20
ATOM     20  O   UNL     1      36.735 -26.208 -15.449  0.00  0.00    -0.506 OA
ATOM     21  H   UNL     1      37.237 -26.321 -16.232  0.00  0.00    +0.292 HD
ENDBRANCH  15  20
ENDBRANCH  13  14
ENDBRANCH  10  13
ENDBRANCH   5  10
ENDBRANCH   1   4
BRANCH   1  22
ATOM     22  N   UNL     1      34.993 -19.185 -19.864  0.00  0.00    -0.205 N 
ATOM     23  H   UNL     1      34.156 -19.364 -19.376  0.00  0.00    +0.175 HD
BRANCH  22  24
ATOM     24  C   UNL     1      35.026 -18.317 -21.012  0.00  0.00    +0.069 C 
ATOM     25  C   UNL     1      35.334 -16.972 -20.846  0.00  0.00    +0.053 C 
ATOM     26  C   UNL     1      34.749 -18.834 -22.271  0.00  0.00    +0.016 C 
ATOM     27  C   UNL     1      35.364 -16.132 -21.959  0.00  0.00    +0.147 C 
ATOM     28  C   UNL     1      34.780 -17.993 -23.383  0.00  0.00    +0.004 C 
ATOM     29  C   UNL     1      35.088 -16.642 -23.227  0.00  0.00    +0.038 C 
BRANCH  27  30
ATOM     30  O   UNL     1      35.663 -14.812 -21.807  0.00  0.00    -0.453 OA
BRANCH  30  32
ATOM     31  F   UNL     1      31.485 -11.301 -21.211  0.00  0.00    -0.204 F 
ATOM     32  C   UNL     1      34.609 -13.926 -21.656  0.00  0.00    +0.145 C 
ATOM     33  C   UNL     1      33.882 -13.938 -20.479  0.00  0.00    +0.040 C 
ATOM     34  C   UNL     1      34.311 -13.054 -22.687  0.00  0.00    +0.040 C 
ATOM     35  C   UNL     1      32.822 -13.045 -20.328  0.00  0.00    +0.033 C 
ATOM     36  C   UNL     1      33.249 -12.162 -22.536  0.00  0.00    +0.033 C 
ATOM     37  C   UNL     1      32.505 -12.158 -21.356  0.00  0.00    +0.140 C 
ENDBRANCH  30  32
ENDBRANCH  27  30
ENDBRANCH  22  24
ENDBRANCH   1  22
TORSDOF 9
ENDMDL
MODEL 6
REMARK VINA RESULT:     -12.3      6.691     13.668
REMARK  Name = 5287728
REMARK  9 active torsions:
REMARK  status: ('A' for Active; 'I' for Inactive)
REMARK    1  A    between atoms: S_1  and  N_4
REMARK    2  A    between atoms: S_1  and  N_22
REMARK    3  A    between atoms: C_5  and  N_10
REMARK    4  A    between atoms: N_10  and  C_13
REMARK    5  A    between atoms: C_13  and  C_14
REMARK    6  A    between atoms: C_15  and  O_20
REMARK    7  A    between atoms: N_22  and  C_24
REMARK    8  A    between atoms: C_27  and  O_30
REMARK    9  A    between atoms: O_30  and  C_32
REMARK                            x       y       z     vdW  Elec       q    Type
REMARK                         _______ _______ _______ _____ _____    ______ ____
ROOT
ATOM      1  S   UNL     1      33.425 -13.127 -23.341  0.00  0.00    +0.113 S 
ATOM      2  O   UNL     1      33.426 -13.190 -24.791  0.00  0.00    -0.138 OA
ATOM      3  O   UNL     1      32.179 -12.939 -22.621  0.00  0.00    -0.138 OA
ENDROOT
BRANCH   1   4
ATOM      4  N   UNL     1      34.189 -14.543 -22.748  0.00  0.00    -0.143 NA
ATOM      5  C   UNL     1      36.055 -16.597 -21.878  0.00  0.00    -0.059 C 
ATOM      6  C   UNL     1      35.292 -16.703 -23.203  0.00  0.00    -0.002 C 
ATOM      7  C   UNL     1      35.269 -15.741 -20.880  0.00  0.00    -0.002 C 
ATOM      8  C   UNL     1      34.966 -15.319 -23.759  0.00  0.00    +0.095 C 
ATOM      9  C   UNL     1      34.943 -14.372 -21.470  0.00  0.00    +0.095 C 
BRANCH   5  10
ATOM     10  N   UNL     1      36.284 -17.930 -21.325  0.00  0.00    +0.388 N 
ATOM     11  H   UNL     1      36.658 -17.840 -20.380  0.00  0.00    -0.084 HD
ATOM     12  H   UNL     1      36.945 -18.424 -21.923  0.00  0.00    -0.084 HD
BRANCH  10  13
ATOM     13  C   UNL     1      35.042 -18.687 -21.275  0.00  0.00    -0.051 C 
BRANCH  13  14
ATOM     14  C   UNL     1      35.024 -19.658 -20.124  0.00  0.00    -0.010 C 
ATOM     15  C   UNL     1      33.822 -20.185 -19.670  0.00  0.00    +0.128 C 
ATOM     16  C   UNL     1      36.228 -20.013 -19.529  0.00  0.00    -0.003 C 
ATOM     17  C   UNL     1      33.823 -21.082 -18.603  0.00  0.00    +0.036 C 
ATOM     18  C   UNL     1      36.228 -20.911 -18.460  0.00  0.00    -0.000 C 
ATOM     19  C   UNL     1      35.027 -21.445 -17.998  0.00  0.00    +0.003 C 
BRANCH  15  20
ATOM     20  O   UNL     1      32.637 -19.840 -20.250  0.00  0.00    -0.506 OA
ATOM     21  H   UNL     1      32.627 -19.473 -21.112  0.00  0.00    +0.292 HD
ENDBRANCH  15  20
ENDBRANCH  13  14
ENDBRANCH  10  13
ENDBRANCH   5  10
ENDBRANCH   1   4
BRANCH   1  22
ATOM     22  N   UNL     1      34.569 -11.924 -22.870  0.00  0.00    -0.205 N 
ATOM     23  H   UNL     1      35.416 -12.162 -22.428  0.00  0.00    +0.175 HD
BRANCH  22  24
ATOM     24  C   UNL     1      34.226 -10.555 -23.153  0.00  0.00    +0.069 C 
ATOM     25  C   UNL     1      33.129  -9.979 -22.524  0.00  0.00    +0.053 C 
ATOM     26  C   UNL     1      34.995  -9.826 -24.051  0.00  0.00    +0.016 C 
ATOM     27  C   UNL     1      32.796  -8.652 -22.799  0.00  0.00    +0.147 C 
ATOM     28  C   UNL     1      34.661  -8.501 -24.326  0.00  0.00    +0.004 C 
ATOM     29  C   UNL     1      33.563  -7.913 -23.700  0.00  0.00    +0.038 C 
BRANCH  27  30
ATOM     30  O   UNL     1      31.722  -8.080 -22.189  0.00  0.00    -0.453 OA
BRANCH  30  32
ATOM     31  F   UNL     1      32.697  -4.393 -18.239  0.00  0.00    -0.204 F 
ATOM     32  C   UNL     1      31.968  -7.150 -21.193  0.00  0.00    +0.145 C 
ATOM     33  C   UNL     1      31.567  -5.839 -21.381  0.00  0.00    +0.040 C 
ATOM     34  C   UNL     1      32.607  -7.556 -20.036  0.00  0.00    +0.040 C 
ATOM     35  C   UNL     1      31.814  -4.903 -20.377  0.00  0.00    +0.033 C 
ATOM     36  C   UNL     1      32.856  -6.619 -19.033  0.00  0.00    +0.033 C 
ATOM     37  C   UNL     1      32.459  -5.293 -19.203  0.00  0.00    +0.140 C 
ENDBRANCH  30  32
ENDBRANCH  27  30
ENDBRANCH  22  24
ENDBRANCH   1  22
TORSDOF 9
ENDMDL
MODEL 7
REMARK VINA RESULT:     -12.3      1.492      2.230
REMARK  Name = 5287728
REMARK  9 active torsions:
REMARK  status: ('A' for Active; 'I' for Inactive)
REMARK    1  A    between atoms: S_1  and  N_4
REMARK    2  A    between atoms: S_1  and  N_22
REMARK    3  A    between atoms: C_5  and  N_10
REMARK    4  A    between atoms: N_10  and  C_13
REMARK    5  A    between atoms: C_13  and  C_14
REMARK    6  A    between atoms: C_15  and  O_20
REMARK    7  A    between atoms: N_22  and  C_24
REMARK    8  A    between atoms: C_27  and  O_30
REMARK    9  A    between atoms: O_30  and  C_32
REMARK                            x       y       z     vdW  Elec       q    Type
REMARK                         _______ _______ _______ _____ _____    ______ ____
ROOT
ATOM      1  S   UNL     1      34.206 -22.517 -17.461  0.00  0.00    +0.113 S 
ATOM      2  O   UNL     1      33.836 -23.619 -18.331  0.00  0.00    -0.138 OA
ATOM      3  O   UNL     1      35.308 -22.666 -16.528  0.00  0.00    -0.138 OA
ENDROOT
BRANCH   1   4
ATOM      4  N   UNL     1      34.505 -21.143 -18.442  0.00  0.00    -0.143 NA
ATOM      5  C   UNL     1      35.055 -19.275 -20.602  0.00  0.00    -0.059 C 
ATOM      6  C   UNL     1      36.120 -19.656 -19.568  0.00  0.00    -0.002 C 
ATOM      7  C   UNL     1      33.653 -19.431 -20.002  0.00  0.00    -0.002 C 
ATOM      8  C   UNL     1      35.877 -21.062 -19.024  0.00  0.00    +0.095 C 
ATOM      9  C   UNL     1      33.447 -20.839 -19.451  0.00  0.00    +0.095 C 
BRANCH   5  10
ATOM     10  N   UNL     1      35.259 -17.899 -21.048  0.00  0.00    +0.388 N 
ATOM     11  H   UNL     1      35.861 -17.417 -20.380  0.00  0.00    -0.084 HD
ATOM     12  H   UNL     1      34.352 -17.436 -21.108  0.00  0.00    -0.084 HD
BRANCH  10  13
ATOM     13  C   UNL     1      35.885 -17.870 -22.362  0.00  0.00    -0.051 C 
BRANCH  13  14
ATOM     14  C   UNL     1      35.014 -17.190 -23.383  0.00  0.00    -0.010 C 
ATOM     15  C   UNL     1      35.048 -15.809 -23.526  0.00  0.00    +0.128 C 
ATOM     16  C   UNL     1      34.179 -17.968 -24.175  0.00  0.00    -0.003 C 
ATOM     17  C   UNL     1      34.234 -15.195 -24.477  0.00  0.00    +0.036 C 
ATOM     18  C   UNL     1      33.363 -17.353 -25.126  0.00  0.00    -0.000 C 
ATOM     19  C   UNL     1      33.392 -15.968 -25.277  0.00  0.00    +0.003 C 
BRANCH  15  20
ATOM     20  O   UNL     1      35.865 -15.040 -22.753  0.00  0.00    -0.506 OA
ATOM     21  H   UNL     1      35.497 -14.434 -22.140  0.00  0.00    +0.292 HD
ENDBRANCH  15  20
ENDBRANCH  13  14
ENDBRANCH  10  13
ENDBRANCH   5  10
ENDBRANCH   1   4
BRANCH   1  22
ATOM     22  N   UNL     1      32.784 -22.011 -16.624  0.00  0.00    -0.205 N 
ATOM     23  H   UNL     1      32.233 -21.262 -16.948  0.00  0.00    +0.175 HD
BRANCH  22  24
ATOM     24  C   UNL     1      32.442 -22.737 -15.429  0.00  0.00    +0.069 C 
ATOM     25  C   UNL     1      33.275 -22.663 -14.319  0.00  0.00    +0.053 C 
ATOM     26  C   UNL     1      31.282 -23.502 -15.400  0.00  0.00    +0.016 C 
ATOM     27  C   UNL     1      32.942 -23.368 -13.162  0.00  0.00    +0.147 C 
ATOM     28  C   UNL     1      30.951 -24.205 -14.242  0.00  0.00    +0.004 C 
ATOM     29  C   UNL     1      31.780 -24.138 -13.123  0.00  0.00    +0.038 C 
BRANCH  27  30
ATOM     30  O   UNL     1      33.753 -23.303 -12.070  0.00  0.00    -0.453 OA
BRANCH  30  32
ATOM     31  F   UNL     1      39.087 -24.392 -12.783  0.00  0.00    -0.204 F 
ATOM     32  C   UNL     1      35.098 -23.577 -12.250  0.00  0.00    +0.145 C 
ATOM     33  C   UNL     1      35.497 -24.291 -13.366  0.00  0.00    +0.040 C 
ATOM     34  C   UNL     1      36.008 -23.131 -11.310  0.00  0.00    +0.040 C 
ATOM     35  C   UNL     1      36.852 -24.567 -13.547  0.00  0.00    +0.033 C 
ATOM     36  C   UNL     1      37.363 -23.408 -11.490  0.00  0.00    +0.033 C 
ATOM     37  C   UNL     1      37.785 -24.126 -12.609  0.00  0.00    +0.140 C 
ENDBRANCH  30  32
ENDBRANCH  27  30
ENDBRANCH  22  24
ENDBRANCH   1  22
TORSDOF 9
ENDMDL
MODEL 8
REMARK VINA RESULT:     -12.2      1.519      2.112
REMARK  Name = 5287728
REMARK  9 active torsions:
REMARK  status: ('A' for Active; 'I' for Inactive)
REMARK    1  A    between atoms: S_1  and  N_4
REMARK    2  A    between atoms: S_1  and  N_22
REMARK    3  A    between atoms: C_5  and  N_10
REMARK    4  A    between atoms: N_10  and  C_13
REMARK    5  A    between atoms: C_13  and  C_14
REMARK    6  A    between atoms: C_15  and  O_20
REMARK    7  A    between atoms: N_22  and  C_24
REMARK    8  A    between atoms: C_27  and  O_30
REMARK    9  A    between atoms: O_30  and  C_32
REMARK                            x       y       z     vdW  Elec       q    Type
REMARK                         _______ _______ _______ _____ _____    ______ ____
ROOT
ATOM      1  S   UNL     1      34.094 -22.483 -17.781  0.00  0.00    +0.113 S 
ATOM      2  O   UNL     1      33.851 -23.741 -18.463  0.00  0.00    -0.138 OA
ATOM      3  O   UNL     1      35.131 -22.391 -16.769  0.00  0.00    -0.138 OA
ENDROOT
BRANCH   1   4
ATOM      4  N   UNL     1      34.384 -21.281 -18.969  0.00  0.00    -0.143 NA
ATOM      5  C   UNL     1      34.864 -18.823 -20.448  0.00  0.00    -0.059 C 
ATOM      6  C   UNL     1      33.505 -19.532 -20.470  0.00  0.00    -0.002 C 
ATOM      7  C   UNL     1      35.983 -19.832 -20.167  0.00  0.00    -0.002 C 
ATOM      8  C   UNL     1      33.271 -20.309 -19.176  0.00  0.00    +0.095 C 
ATOM      9  C   UNL     1      35.712 -20.605 -18.879  0.00  0.00    +0.095 C 
BRANCH   5  10
ATOM     10  N   UNL     1      35.101 -18.155 -21.725  0.00  0.00    +0.388 N 
ATOM     11  H   UNL     1      34.219 -17.776 -22.073  0.00  0.00    -0.084 HD
ATOM     12  H   UNL     1      35.481 -18.833 -22.385  0.00  0.00    -0.084 HD
BRANCH  10  13
ATOM     13  C   UNL     1      36.057 -17.069 -21.569  0.00  0.00    -0.051 C 
BRANCH  13  14
ATOM     14  C   UNL     1      35.389 -15.721 -21.628  0.00  0.00    -0.010 C 
ATOM     15  C   UNL     1      35.157 -15.107 -22.852  0.00  0.00    +0.128 C 
ATOM     16  C   UNL     1      35.011 -15.108 -20.441  0.00  0.00    -0.003 C 
ATOM     17  C   UNL     1      34.537 -13.858 -22.890  0.00  0.00    +0.036 C 
ATOM     18  C   UNL     1      34.391 -13.858 -20.478  0.00  0.00    -0.000 C 
ATOM     19  C   UNL     1      34.154 -13.234 -21.702  0.00  0.00    +0.003 C 
BRANCH  15  20
ATOM     20  O   UNL     1      35.525 -15.703 -24.021  0.00  0.00    -0.506 OA
ATOM     21  H   UNL     1      35.688 -15.181 -24.783  0.00  0.00    +0.292 HD
ENDBRANCH  15  20
ENDBRANCH  13  14
ENDBRANCH  10  13
ENDBRANCH   5  10
ENDBRANCH   1   4
BRANCH   1  22
ATOM     22  N   UNL     1      32.588 -21.939 -17.137  0.00  0.00    -0.205 N 
ATOM     23  H   UNL     1      32.013 -21.309 -17.629  0.00  0.00    +0.175 HD
BRANCH  22  24
ATOM     24  C   UNL     1      32.212 -22.450 -15.844  0.00  0.00    +0.069 C 
ATOM     25  C   UNL     1      33.199 -22.804 -14.932  0.00  0.00    +0.053 C 
ATOM     26  C   UNL     1      30.867 -22.584 -15.524  0.00  0.00    +0.016 C 
ATOM     27  C   UNL     1      32.834 -23.300 -13.681  0.00  0.00    +0.147 C 
ATOM     28  C   UNL     1      30.502 -23.081 -14.273  0.00  0.00    +0.004 C 
ATOM     29  C   UNL     1      31.485 -23.438 -13.352  0.00  0.00    +0.038 C 
BRANCH  27  30
ATOM     30  O   UNL     1      33.794 -23.650 -12.782  0.00  0.00    -0.453 OA
BRANCH  30  32
ATOM     31  F   UNL     1      38.986 -23.876 -14.552  0.00  0.00    -0.204 F 
ATOM     32  C   UNL     1      35.104 -23.707 -13.228  0.00  0.00    +0.145 C 
ATOM     33  C   UNL     1      36.007 -22.757 -12.788  0.00  0.00    +0.040 C 
ATOM     34  C   UNL     1      35.474 -24.713 -14.102  0.00  0.00    +0.040 C 
ATOM     35  C   UNL     1      37.326 -22.815 -13.238  0.00  0.00    +0.033 C 
ATOM     36  C   UNL     1      36.793 -24.771 -14.552  0.00  0.00    +0.033 C 
ATOM     37  C   UNL     1      37.719 -23.821 -14.120  0.00  0.00    +0.140 C 
ENDBRANCH  30  32
ENDBRANCH  27  30
ENDBRANCH  22  24
ENDBRANCH   1  22
TORSDOF 9
ENDMDL
MODEL 9
REMARK VINA RESULT:     -12.2      6.484     13.096
REMARK  Name = 5287728
REMARK  9 active torsions:
REMARK  status: ('A' for Active; 'I' for Inactive)
REMARK    1  A    between atoms: S_1  and  N_4
REMARK    2  A    between atoms: S_1  and  N_22
REMARK    3  A    between atoms: C_5  and  N_10
REMARK    4  A    between atoms: N_10  and  C_13
REMARK    5  A    between atoms: C_13  and  C_14
REMARK    6  A    between atoms: C_15  and  O_20
REMARK    7  A    between atoms: N_22  and  C_24
REMARK    8  A    between atoms: C_27  and  O_30
REMARK    9  A    between atoms: O_30  and  C_32
REMARK                            x       y       z     vdW  Elec       q    Type
REMARK                         _______ _______ _______ _____ _____    ______ ____
ROOT
ATOM      1  S   UNL     1      33.586 -12.887 -22.843  0.00  0.00    +0.113 S 
ATOM      2  O   UNL     1      34.418 -11.761 -22.458  0.00  0.00    -0.138 OA
ATOM      3  O   UNL     1      33.357 -13.176 -24.247  0.00  0.00    -0.138 OA
ENDROOT
BRANCH   1   4
ATOM      4  N   UNL     1      34.215 -14.295 -22.092  0.00  0.00    -0.143 NA
ATOM      5  C   UNL     1      35.876 -16.356 -20.889  0.00  0.00    -0.059 C 
ATOM      6  C   UNL     1      35.300 -16.500 -22.301  0.00  0.00    -0.002 C 
ATOM      7  C   UNL     1      34.987 -15.435 -20.045  0.00  0.00    -0.002 C 
ATOM      8  C   UNL     1      35.099 -15.134 -22.953  0.00  0.00    +0.095 C 
ATOM      9  C   UNL     1      34.790 -14.086 -20.730  0.00  0.00    +0.095 C 
BRANCH   5  10
ATOM     10  N   UNL     1      35.984 -17.668 -20.255  0.00  0.00    +0.388 N 
ATOM     11  H   UNL     1      35.738 -17.584 -19.269  0.00  0.00    -0.084 HD
ATOM     12  H   UNL     1      36.942 -18.003 -20.355  0.00  0.00    -0.084 HD
BRANCH  10  13
ATOM     13  C   UNL     1      35.087 -18.622 -20.891  0.00  0.00    -0.051 C 
BRANCH  13  14
ATOM     14  C   UNL     1      34.629 -19.686 -19.930  0.00  0.00    -0.010 C 
ATOM     15  C   UNL     1      35.557 -20.492 -19.281  0.00  0.00    +0.128 C 
ATOM     16  C   UNL     1      33.267 -19.846 -19.706  0.00  0.00    -0.003 C 
ATOM     17  C   UNL     1      35.115 -21.473 -18.394  0.00  0.00    +0.036 C 
ATOM     18  C   UNL     1      32.826 -20.828 -18.819  0.00  0.00    -0.000 C 
ATOM     19  C   UNL     1      33.750 -21.641 -18.163  0.00  0.00    +0.003 C 
BRANCH  15  20
ATOM     20  O   UNL     1      36.894 -20.340 -19.496  0.00  0.00    -0.506 OA
ATOM     21  H   UNL     1      37.497 -20.978 -19.167  0.00  0.00    +0.292 HD
ENDBRANCH  15  20
ENDBRANCH  13  14
ENDBRANCH  10  13
ENDBRANCH   5  10
ENDBRANCH   1   4
BRANCH   1  22
ATOM     22  N   UNL     1      32.079 -12.730 -22.017  0.00  0.00    -0.205 N 
ATOM     23  H   UNL     1      31.318 -13.323 -22.214  0.00  0.00    +0.175 HD
BRANCH  22  24
ATOM     24  C   UNL     1      31.986 -11.689 -21.027  0.00  0.00    +0.069 C 
ATOM     25  C   UNL     1      31.860 -10.366 -21.432  0.00  0.00    +0.053 C 
ATOM     26  C   UNL     1      32.025 -12.020 -19.678  0.00  0.00    +0.016 C 
ATOM     27  C   UNL     1      31.772  -9.358 -20.471  0.00  0.00    +0.147 C 
ATOM     28  C   UNL     1      31.937 -11.012 -18.719  0.00  0.00    +0.004 C 
ATOM     29  C   UNL     1      31.810  -9.681 -19.115  0.00  0.00    +0.038 C 
BRANCH  27  30
ATOM     30  O   UNL     1      31.650  -8.059 -20.859  0.00  0.00    -0.453 OA
BRANCH  30  32
ATOM     31  F   UNL     1      34.826  -6.313 -24.983  0.00  0.00    -0.204 F 
ATOM     32  C   UNL     1      32.451  -7.619 -21.899  0.00  0.00    +0.145 C 
ATOM     33  C   UNL     1      33.821  -7.785 -21.811  0.00  0.00    +0.040 C 
ATOM     34  C   UNL     1      31.860  -7.024 -22.999  0.00  0.00    +0.040 C 
ATOM     35  C   UNL     1      34.628  -7.342 -22.858  0.00  0.00    +0.033 C 
ATOM     36  C   UNL     1      32.667  -6.580 -24.046  0.00  0.00    +0.033 C 
ATOM     37  C   UNL     1      34.051  -6.739 -23.976  0.00  0.00    +0.140 C 
ENDBRANCH  30  32
ENDBRANCH  27  30
ENDBRANCH  22  24
ENDBRANCH   1  22
TORSDOF 9
ENDMDL
