MODEL 1
REMARK VINA RESULT:     -13.7      0.000      0.000
REMARK  Name = 21081761
REMARK  5 active torsions:
REMARK  status: ('A' for Active; 'I' for Inactive)
REMARK    1  A    between atoms: N_2  and  C_6
REMARK    2  A    between atoms: C_3  and  C_25
REMARK    3  A    between atoms: C_7  and  O_12
REMARK    4  A    between atoms: O_12  and  C_16
REMARK    5  A    between atoms: N_24  and  C_31
REMARK                            x       y       z     vdW  Elec       q    Type
REMARK                         _______ _______ _______ _____ _____    ______ ____
ROOT
ATOM      1  O   UNL     1      32.784 -21.596 -19.387  0.00  0.00    -0.270 OA
ATOM      2  N   UNL     1      34.713 -20.436 -18.679  0.00  0.00    -0.280 N 
ATOM      3  C   UNL     1      33.644 -21.326 -18.557  0.00  0.00    +0.254 C 
ATOM      4  H   UNL     1      35.301 -20.355 -17.894  0.00  0.00    +0.155 HD
ENDROOT
BRANCH   2   6
ATOM      5  F   UNL     1      37.944 -17.928 -21.157  0.00  0.00    -0.201 F 
ATOM      6  C   UNL     1      35.050 -19.647 -19.779  0.00  0.00    +0.053 C 
ATOM      7  C   UNL     1      35.722 -18.068 -21.979  0.00  0.00    +0.173 C 
ATOM      8  C   UNL     1      36.353 -19.171 -19.924  0.00  0.00    +0.047 C 
ATOM      9  C   UNL     1      34.083 -19.335 -20.735  0.00  0.00    +0.018 C 
ATOM     10  C   UNL     1      36.690 -18.381 -21.024  0.00  0.00    +0.176 C 
ATOM     11  C   UNL     1      34.419 -18.544 -21.834  0.00  0.00    +0.041 C 
BRANCH   7  12
ATOM     12  O   UNL     1      36.055 -17.284 -23.068  0.00  0.00    -0.451 OA
BRANCH  12  16
ATOM     13  N   UNL     1      33.863 -13.397 -21.739  0.00  0.00    -0.297 N 
ATOM     14  N   UNL     1      33.511 -14.054 -24.029  0.00  0.00    -0.229 NA
ATOM     15  C   UNL     1      34.901 -15.258 -22.407  0.00  0.00    +0.067 C 
ATOM     16  C   UNL     1      35.233 -16.233 -23.362  0.00  0.00    +0.150 C 
ATOM     17  C   UNL     1      34.057 -14.229 -22.811  0.00  0.00    +0.135 C 
ATOM     18  C   UNL     1      35.215 -15.022 -21.042  0.00  0.00    +0.022 C 
ATOM     19  C   UNL     1      34.563 -13.871 -20.658  0.00  0.00    +0.063 C 
ATOM     20  C   UNL     1      34.696 -16.100 -24.642  0.00  0.00    +0.058 C 
ATOM     21  C   UNL     1      33.864 -15.021 -24.908  0.00  0.00    +0.103 C 
ATOM     22  H   UNL     1      33.308 -12.584 -21.742  0.00  0.00    +0.154 HD
ENDBRANCH  12  16
ENDBRANCH   7  12
ENDBRANCH   2   6
BRANCH   3  25
ATOM     23  O   UNL     1      35.934 -22.191 -17.056  0.00  0.00    -0.269 OA
ATOM     24  N   UNL     1      34.659 -22.953 -15.215  0.00  0.00    -0.233 N 
ATOM     25  C   UNL     1      33.609 -21.983 -17.246  0.00  0.00    +0.108 C 
ATOM     26  C   UNL     1      34.852 -22.368 -16.495  0.00  0.00    +0.261 C 
ATOM     27  C   UNL     1      33.366 -23.207 -14.757  0.00  0.00    +0.072 C 
ATOM     28  C   UNL     1      32.401 -22.252 -16.736  0.00  0.00    +0.010 C 
ATOM     29  C   UNL     1      32.274 -22.890 -15.459  0.00  0.00    +0.017 C 
BRANCH  24  31
ATOM     30  F   UNL     1      39.079 -24.307 -12.092  0.00  0.00    -0.204 F 
ATOM     31  C   UNL     1      35.808 -23.305 -14.403  0.00  0.00    +0.059 C 
ATOM     32  C   UNL     1      36.374 -24.576 -14.509  0.00  0.00    +0.018 C 
ATOM     33  C   UNL     1      36.348 -22.373 -13.516  0.00  0.00    +0.018 C 
ATOM     34  C   UNL     1      37.480 -24.914 -13.729  0.00  0.00    +0.031 C 
ATOM     35  C   UNL     1      37.453 -22.711 -12.736  0.00  0.00    +0.031 C 
ATOM     36  C   UNL     1      38.019 -23.981 -12.842  0.00  0.00    +0.140 C 
ENDBRANCH  24  31
ENDBRANCH   3  25
TORSDOF 5
ENDMDL
MODEL 2
REMARK VINA RESULT:     -13.0      4.980     12.134
REMARK  Name = 21081761
REMARK  5 active torsions:
REMARK  status: ('A' for Active; 'I' for Inactive)
REMARK    1  A    between atoms: N_2  and  C_6
REMARK    2  A    between atoms: C_3  and  C_25
REMARK    3  A    between atoms: C_7  and  O_12
REMARK    4  A    between atoms: O_12  and  C_16
REMARK    5  A    between atoms: N_24  and  C_31
REMARK                            x       y       z     vdW  Elec       q    Type
REMARK                         _______ _______ _______ _____ _____    ______ ____
ROOT
ATOM      1  O   UNL     1      32.502 -13.151 -21.656  0.00  0.00    -0.270 OA
ATOM      2  N   UNL     1      34.648 -13.494 -22.573  0.00  0.00    -0.280 N 
ATOM      3  C   UNL     1      33.497 -12.769 -22.260  0.00  0.00    +0.254 C 
ATOM      4  H   UNL     1      35.345 -13.007 -23.070  0.00  0.00    +0.155 HD
ENDROOT
BRANCH   2   6
ATOM      5  F   UNL     1      35.158 -18.049 -23.939  0.00  0.00    -0.201 F 
ATOM      6  C   UNL     1      34.932 -14.825 -22.269  0.00  0.00    +0.053 C 
ATOM      7  C   UNL     1      35.497 -17.488 -21.659  0.00  0.00    +0.173 C 
ATOM      8  C   UNL     1      34.903 -15.793 -23.273  0.00  0.00    +0.047 C 
ATOM      9  C   UNL     1      35.244 -15.190 -20.959  0.00  0.00    +0.018 C 
ATOM     10  C   UNL     1      35.186 -17.125 -22.969  0.00  0.00    +0.176 C 
ATOM     11  C   UNL     1      35.526 -16.522 -20.653  0.00  0.00    +0.041 C 
BRANCH   7  12
ATOM     12  O   UNL     1      35.776 -18.808 -21.356  0.00  0.00    -0.451 OA
BRANCH  12  16
ATOM     13  N   UNL     1      35.124 -21.462 -17.587  0.00  0.00    -0.297 N 
ATOM     14  N   UNL     1      33.118 -20.777 -18.730  0.00  0.00    -0.229 NA
ATOM     15  C   UNL     1      35.403 -20.188 -19.399  0.00  0.00    +0.067 C 
ATOM     16  C   UNL     1      34.929 -19.450 -20.496  0.00  0.00    +0.150 C 
ATOM     17  C   UNL     1      34.456 -20.804 -18.586  0.00  0.00    +0.135 C 
ATOM     18  C   UNL     1      36.677 -20.498 -18.854  0.00  0.00    +0.022 C 
ATOM     19  C   UNL     1      36.474 -21.283 -17.740  0.00  0.00    +0.063 C 
ATOM     20  C   UNL     1      33.550 -19.389 -20.693  0.00  0.00    +0.058 C 
ATOM     21  C   UNL     1      32.719 -20.054 -19.802  0.00  0.00    +0.103 C 
ATOM     22  H   UNL     1      34.699 -21.984 -16.867  0.00  0.00    +0.154 HD
ENDBRANCH  12  16
ENDBRANCH   7  12
ENDBRANCH   2   6
BRANCH   3  25
ATOM     23  O   UNL     1      32.340 -10.487 -20.956  0.00  0.00    -0.269 OA
ATOM     24  N   UNL     1      33.144  -8.944 -22.557  0.00  0.00    -0.233 N 
ATOM     25  C   UNL     1      33.556 -11.386 -22.745  0.00  0.00    +0.108 C 
ATOM     26  C   UNL     1      32.966 -10.232 -21.985  0.00  0.00    +0.261 C 
ATOM     27  C   UNL     1      33.772  -8.817 -23.797  0.00  0.00    +0.072 C 
ATOM     28  C   UNL     1      34.152 -11.183 -23.926  0.00  0.00    +0.010 C 
ATOM     29  C   UNL     1      34.256  -9.863 -24.473  0.00  0.00    +0.017 C 
BRANCH  24  31
ATOM     30  F   UNL     1      31.247  -4.432 -19.880  0.00  0.00    -0.204 F 
ATOM     31  C   UNL     1      32.652  -7.771 -21.861  0.00  0.00    +0.059 C 
ATOM     32  C   UNL     1      31.680  -6.965 -22.455  0.00  0.00    +0.018 C 
ATOM     33  C   UNL     1      33.149  -7.449 -20.598  0.00  0.00    +0.018 C 
ATOM     34  C   UNL     1      31.205  -5.837 -21.785  0.00  0.00    +0.031 C 
ATOM     35  C   UNL     1      32.674  -6.321 -19.928  0.00  0.00    +0.031 C 
ATOM     36  C   UNL     1      31.702  -5.515 -20.522  0.00  0.00    +0.140 C 
ENDBRANCH  24  31
ENDBRANCH   3  25
TORSDOF 5
ENDMDL
MODEL 3
REMARK VINA RESULT:     -12.9      5.584      8.903
REMARK  Name = 21081761
REMARK  5 active torsions:
REMARK  status: ('A' for Active; 'I' for Inactive)
REMARK    1  A    between atoms: N_2  and  C_6
REMARK    2  A    between atoms: C_3  and  C_25
REMARK    3  A    between atoms: C_7  and  O_12
REMARK    4  A    between atoms: O_12  and  C_16
REMARK    5  A    between atoms: N_24  and  C_31
REMARK                            x       y       z     vdW  Elec       q    Type
REMARK                         _______ _______ _______ _____ _____    ______ ____
ROOT
ATOM      1  O   UNL     1      35.343 -13.336 -20.641  0.00  0.00    -0.270 OA
ATOM      2  N   UNL     1      33.659 -13.294 -22.293  0.00  0.00    -0.280 N 
ATOM      3  C   UNL     1      34.681 -13.861 -21.528  0.00  0.00    +0.254 C 
ATOM      4  H   UNL     1      33.243 -13.883 -22.964  0.00  0.00    +0.155 HD
ENDROOT
BRANCH   2   6
ATOM      5  F   UNL     1      33.864  -8.687 -23.558  0.00  0.00    -0.201 F 
ATOM      6  C   UNL     1      33.155 -11.996 -22.223  0.00  0.00    +0.053 C 
ATOM      7  C   UNL     1      32.149  -9.398 -22.080  0.00  0.00    +0.173 C 
ATOM      8  C   UNL     1      33.771 -10.968 -22.938  0.00  0.00    +0.047 C 
ATOM      9  C   UNL     1      32.035 -11.723 -21.437  0.00  0.00    +0.018 C 
ATOM     10  C   UNL     1      33.268  -9.669 -22.867  0.00  0.00    +0.176 C 
ATOM     11  C   UNL     1      31.533 -10.424 -21.365  0.00  0.00    +0.041 C 
BRANCH   7  12
ATOM     12  O   UNL     1      31.650  -8.110 -22.008  0.00  0.00    -0.451 OA
BRANCH  12  16
ATOM     13  N   UNL     1      32.437  -3.926 -20.124  0.00  0.00    -0.297 N 
ATOM     14  N   UNL     1      32.799  -5.806 -18.661  0.00  0.00    -0.229 NA
ATOM     15  C   UNL     1      32.068  -5.948 -20.998  0.00  0.00    +0.067 C 
ATOM     16  C   UNL     1      32.020  -7.350 -20.935  0.00  0.00    +0.150 C 
ATOM     17  C   UNL     1      32.457  -5.268 -19.848  0.00  0.00    +0.135 C 
ATOM     18  C   UNL     1      31.809  -4.964 -21.989  0.00  0.00    +0.022 C 
ATOM     19  C   UNL     1      32.045  -3.730 -21.423  0.00  0.00    +0.063 C 
ATOM     20  C   UNL     1      32.363  -7.959 -19.729  0.00  0.00    +0.058 C 
ATOM     21  C   UNL     1      32.735  -7.157 -18.658  0.00  0.00    +0.103 C 
ATOM     22  H   UNL     1      32.668  -3.211 -19.487  0.00  0.00    +0.154 HD
ENDBRANCH  12  16
ENDBRANCH   7  12
ENDBRANCH   2   6
BRANCH   3  25
ATOM     23  O   UNL     1      35.075 -16.016 -19.672  0.00  0.00    -0.269 OA
ATOM     24  N   UNL     1      35.287 -17.662 -21.356  0.00  0.00    -0.233 N 
ATOM     25  C   UNL     1      34.939 -15.260 -21.884  0.00  0.00    +0.108 C 
ATOM     26  C   UNL     1      35.090 -16.347 -20.858  0.00  0.00    +0.261 C 
ATOM     27  C   UNL     1      35.405 -17.871 -22.731  0.00  0.00    +0.072 C 
ATOM     28  C   UNL     1      35.055 -15.541 -23.188  0.00  0.00    +0.010 C 
ATOM     29  C   UNL     1      35.305 -16.883 -23.625  0.00  0.00    +0.017 C 
BRANCH  24  31
ATOM     30  F   UNL     1      35.681 -21.947 -17.806  0.00  0.00    -0.204 F 
ATOM     31  C   UNL     1      35.390 -18.775 -20.433  0.00  0.00    +0.059 C 
ATOM     32  C   UNL     1      34.242 -19.468 -20.046  0.00  0.00    +0.018 C 
ATOM     33  C   UNL     1      36.636 -19.155 -19.933  0.00  0.00    +0.018 C 
ATOM     34  C   UNL     1      34.341 -20.539 -19.158  0.00  0.00    +0.031 C 
ATOM     35  C   UNL     1      36.735 -20.227 -19.046  0.00  0.00    +0.031 C 
ATOM     36  C   UNL     1      35.587 -20.919 -18.659  0.00  0.00    +0.140 C 
ENDBRANCH  24  31
ENDBRANCH   3  25
TORSDOF 5
ENDMDL
MODEL 4
REMARK VINA RESULT:     -12.9      0.806      1.920
REMARK  Name = 21081761
REMARK  5 active torsions:
REMARK  status: ('A' for Active; 'I' for Inactive)
REMARK    1  A    between atoms: N_2  and  C_6
REMARK    2  A    between atoms: C_3  and  C_25
REMARK    3  A    between atoms: C_7  and  O_12
REMARK    4  A    between atoms: O_12  and  C_16
REMARK    5  A    between atoms: N_24  and  C_31
REMARK                            x       y       z     vdW  Elec       q    Type
REMARK                         _______ _______ _______ _____ _____    ______ ____
ROOT
ATOM      1  O   UNL     1      32.418 -21.669 -18.559  0.00  0.00    -0.270 OA
ATOM      2  N   UNL     1      34.612 -20.942 -18.088  0.00  0.00    -0.280 N 
ATOM      3  C   UNL     1      33.417 -21.626 -17.853  0.00  0.00    +0.254 C 
ATOM      4  H   UNL     1      35.306 -21.030 -17.395  0.00  0.00    +0.155 HD
ENDROOT
BRANCH   2   6
ATOM      5  F   UNL     1      37.871 -18.592 -20.682  0.00  0.00    -0.201 F 
ATOM      6  C   UNL     1      34.943 -20.149 -19.187  0.00  0.00    +0.053 C 
ATOM      7  C   UNL     1      35.604 -18.561 -21.383  0.00  0.00    +0.173 C 
ATOM      8  C   UNL     1      36.266 -19.757 -19.393  0.00  0.00    +0.047 C 
ATOM      9  C   UNL     1      33.951 -19.747 -20.081  0.00  0.00    +0.018 C 
ATOM     10  C   UNL     1      36.597 -18.963 -20.491  0.00  0.00    +0.176 C 
ATOM     11  C   UNL     1      34.281 -18.952 -21.179  0.00  0.00    +0.041 C 
BRANCH   7  12
ATOM     12  O   UNL     1      35.931 -17.773 -22.471  0.00  0.00    -0.451 OA
BRANCH  12  16
ATOM     13  N   UNL     1      33.416 -14.586 -24.749  0.00  0.00    -0.297 N 
ATOM     14  N   UNL     1      34.268 -13.894 -22.605  0.00  0.00    -0.229 NA
ATOM     15  C   UNL     1      34.627 -16.092 -23.631  0.00  0.00    +0.067 C 
ATOM     16  C   UNL     1      35.386 -16.521 -22.530  0.00  0.00    +0.150 C 
ATOM     17  C   UNL     1      34.117 -14.798 -23.591  0.00  0.00    +0.135 C 
ATOM     18  C   UNL     1      34.209 -16.662 -24.863  0.00  0.00    +0.022 C 
ATOM     19  C   UNL     1      33.466 -15.712 -25.530  0.00  0.00    +0.063 C 
ATOM     20  C   UNL     1      35.573 -15.624 -21.480  0.00  0.00    +0.058 C 
ATOM     21  C   UNL     1      35.007 -14.360 -21.572  0.00  0.00    +0.103 C 
ATOM     22  H   UNL     1      32.948 -13.752 -24.986  0.00  0.00    +0.154 HD
ENDBRANCH  12  16
ENDBRANCH   7  12
ENDBRANCH   2   6
BRANCH   3  25
ATOM     23  O   UNL     1      35.768 -22.407 -16.400  0.00  0.00    -0.269 OA
ATOM     24  N   UNL     1      34.557 -23.371 -14.612  0.00  0.00    -0.233 N 
ATOM     25  C   UNL     1      33.433 -22.362 -16.583  0.00  0.00    +0.108 C 
ATOM     26  C   UNL     1      34.703 -22.698 -15.854  0.00  0.00    +0.261 C 
ATOM     27  C   UNL     1      33.287 -23.748 -14.173  0.00  0.00    +0.072 C 
ATOM     28  C   UNL     1      32.250 -22.749 -16.094  0.00  0.00    +0.010 C 
ATOM     29  C   UNL     1      32.173 -23.471 -14.858  0.00  0.00    +0.017 C 
BRANCH  24  31
ATOM     30  F   UNL     1      39.070 -24.579 -11.562  0.00  0.00    -0.204 F 
ATOM     31  C   UNL     1      35.730 -23.685 -13.820  0.00  0.00    +0.059 C 
ATOM     32  C   UNL     1      36.148 -22.811 -12.816  0.00  0.00    +0.018 C 
ATOM     33  C   UNL     1      36.441 -24.861 -14.061  0.00  0.00    +0.018 C 
ATOM     34  C   UNL     1      37.276 -23.113 -12.053  0.00  0.00    +0.031 C 
ATOM     35  C   UNL     1      37.569 -25.164 -13.298  0.00  0.00    +0.031 C 
ATOM     36  C   UNL     1      37.986 -24.290 -12.294  0.00  0.00    +0.140 C 
ENDBRANCH  24  31
ENDBRANCH   3  25
TORSDOF 5
ENDMDL
MODEL 5
REMARK VINA RESULT:     -12.8      4.848     11.987
REMARK  Name = 21081761
REMARK  5 active torsions:
REMARK  status: ('A' for Active; 'I' for Inactive)
REMARK    1  A    between atoms: N_2  and  C_6
REMARK    2  A    between atoms: C_3  and  C_25
REMARK    3  A    between atoms: C_7  and  O_12
REMARK    4  A    between atoms: O_12  and  C_16
REMARK    5  A    between atoms: N_24  and  C_31
REMARK                            x       y       z     vdW  Elec       q    Type
REMARK                         _______ _______ _______ _____ _____    ______ ____
ROOT
ATOM      1  O   UNL     1      31.782 -13.535 -19.902  0.00  0.00    -0.270 OA
ATOM      2  N   UNL     1      33.960 -13.056 -20.670  0.00  0.00    -0.280 N 
ATOM      3  C   UNL     1      32.675 -12.757 -20.211  0.00  0.00    +0.254 C 
ATOM      4  H   UNL     1      34.539 -12.285 -20.869  0.00  0.00    +0.155 HD
ENDROOT
BRANCH   2   6
ATOM      5  F   UNL     1      35.527 -16.458 -23.643  0.00  0.00    -0.201 F 
ATOM      6  C   UNL     1      34.523 -14.315 -20.881  0.00  0.00    +0.053 C 
ATOM      7  C   UNL     1      35.648 -16.833 -21.304  0.00  0.00    +0.173 C 
ATOM      8  C   UNL     1      34.750 -14.769 -22.181  0.00  0.00    +0.047 C 
ATOM      9  C   UNL     1      34.861 -15.120 -19.793  0.00  0.00    +0.018 C 
ATOM     10  C   UNL     1      35.311 -16.028 -22.393  0.00  0.00    +0.176 C 
ATOM     11  C   UNL     1      35.422 -16.379 -20.004  0.00  0.00    +0.041 C 
BRANCH   7  12
ATOM     12  O   UNL     1      36.203 -18.081 -21.512  0.00  0.00    -0.451 OA
BRANCH  12  16
ATOM     13  N   UNL     1      33.387 -20.869 -19.069  0.00  0.00    -0.297 N 
ATOM     14  N   UNL     1      35.720 -20.983 -18.483  0.00  0.00    -0.229 NA
ATOM     15  C   UNL     1      34.764 -19.543 -20.223  0.00  0.00    +0.067 C 
ATOM     16  C   UNL     1      36.030 -19.020 -20.535  0.00  0.00    +0.150 C 
ATOM     17  C   UNL     1      34.698 -20.496 -19.211  0.00  0.00    +0.135 C 
ATOM     18  C   UNL     1      33.438 -19.350 -20.694  0.00  0.00    +0.022 C 
ATOM     19  C   UNL     1      32.613 -20.178 -19.966  0.00  0.00    +0.063 C 
ATOM     20  C   UNL     1      37.125 -19.490 -19.812  0.00  0.00    +0.058 C 
ATOM     21  C   UNL     1      36.914 -20.444 -18.825  0.00  0.00    +0.103 C 
ATOM     22  H   UNL     1      33.051 -21.532 -18.423  0.00  0.00    +0.154 HD
ENDBRANCH  12  16
ENDBRANCH   7  12
ENDBRANCH   2   6
BRANCH   3  25
ATOM     23  O   UNL     1      33.188 -10.830 -22.278  0.00  0.00    -0.269 OA
ATOM     24  N   UNL     1      32.363  -9.004 -21.023  0.00  0.00    -0.233 N 
ATOM     25  C   UNL     1      32.437 -11.313 -20.112  0.00  0.00    +0.108 C 
ATOM     26  C   UNL     1      32.686 -10.367 -21.253  0.00  0.00    +0.261 C 
ATOM     27  C   UNL     1      31.914  -8.601 -19.765  0.00  0.00    +0.072 C 
ATOM     28  C   UNL     1      31.997 -10.852 -18.936  0.00  0.00    +0.010 C 
ATOM     29  C   UNL     1      31.736  -9.455 -18.752  0.00  0.00    +0.017 C 
BRANCH  24  31
ATOM     30  F   UNL     1      32.981  -5.276 -25.127  0.00  0.00    -0.204 F 
ATOM     31  C   UNL     1      32.523  -8.034 -22.090  0.00  0.00    +0.059 C 
ATOM     32  C   UNL     1      33.798  -7.592 -22.444  0.00  0.00    +0.018 C 
ATOM     33  C   UNL     1      31.403  -7.545 -22.763  0.00  0.00    +0.018 C 
ATOM     34  C   UNL     1      33.953  -6.660 -23.470  0.00  0.00    +0.031 C 
ATOM     35  C   UNL     1      31.558  -6.614 -23.789  0.00  0.00    +0.031 C 
ATOM     36  C   UNL     1      32.832  -6.171 -24.143  0.00  0.00    +0.140 C 
ENDBRANCH  24  31
ENDBRANCH   3  25
TORSDOF 5
ENDMDL
MODEL 6
REMARK VINA RESULT:     -12.7      2.668     10.800
REMARK  Name = 21081761
REMARK  5 active torsions:
REMARK  status: ('A' for Active; 'I' for Inactive)
REMARK    1  A    between atoms: N_2  and  C_6
REMARK    2  A    between atoms: C_3  and  C_25
REMARK    3  A    between atoms: C_7  and  O_12
REMARK    4  A    between atoms: O_12  and  C_16
REMARK    5  A    between atoms: N_24  and  C_31
REMARK                            x       y       z     vdW  Elec       q    Type
REMARK                         _______ _______ _______ _____ _____    ______ ____
ROOT
ATOM      1  O   UNL     1      36.763 -17.517 -21.643  0.00  0.00    -0.270 OA
ATOM      2  N   UNL     1      34.526 -18.150 -21.242  0.00  0.00    -0.280 N 
ATOM      3  C   UNL     1      35.555 -17.400 -21.814  0.00  0.00    +0.254 C 
ATOM      4  H   UNL     1      33.610 -17.900 -21.505  0.00  0.00    +0.155 HD
ENDROOT
BRANCH   2   6
ATOM      5  F   UNL     1      37.211 -21.043 -18.542  0.00  0.00    -0.201 F 
ATOM      6  C   UNL     1      34.636 -19.210 -20.341  0.00  0.00    +0.053 C 
ATOM      7  C   UNL     1      34.856 -21.331 -18.543  0.00  0.00    +0.173 C 
ATOM      8  C   UNL     1      35.891 -19.607 -19.880  0.00  0.00    +0.047 C 
ATOM      9  C   UNL     1      33.490 -19.873 -19.901  0.00  0.00    +0.018 C 
ATOM     10  C   UNL     1      36.002 -20.668 -18.981  0.00  0.00    +0.176 C 
ATOM     11  C   UNL     1      33.600 -20.934 -19.003  0.00  0.00    +0.041 C 
BRANCH   7  12
ATOM     12  O   UNL     1      34.964 -22.383 -17.653  0.00  0.00    -0.451 OA
BRANCH  12  16
ATOM     13  N   UNL     1      34.014 -22.937 -13.129  0.00  0.00    -0.297 N 
ATOM     14  N   UNL     1      32.105 -22.574 -14.551  0.00  0.00    -0.229 NA
ATOM     15  C   UNL     1      34.436 -22.667 -15.305  0.00  0.00    +0.067 C 
ATOM     16  C   UNL     1      34.052 -22.447 -16.637  0.00  0.00    +0.150 C 
ATOM     17  C   UNL     1      33.428 -22.715 -14.347  0.00  0.00    +0.135 C 
ATOM     18  C   UNL     1      35.664 -22.869 -14.620  0.00  0.00    +0.022 C 
ATOM     19  C   UNL     1      35.374 -23.032 -13.283  0.00  0.00    +0.063 C 
ATOM     20  C   UNL     1      32.692 -22.293 -16.905  0.00  0.00    +0.058 C 
ATOM     21  C   UNL     1      31.792 -22.365 -15.851  0.00  0.00    +0.103 C 
ATOM     22  H   UNL     1      33.534 -23.015 -12.272  0.00  0.00    +0.154 HD
ENDBRANCH  12  16
ENDBRANCH   7  12
ENDBRANCH   2   6
BRANCH   3  25
ATOM     23  O   UNL     1      34.548 -14.830 -21.023  0.00  0.00    -0.269 OA
ATOM     24  N   UNL     1      34.174 -14.098 -23.240  0.00  0.00    -0.233 N 
ATOM     25  C   UNL     1      35.055 -16.361 -22.721  0.00  0.00    +0.108 C 
ATOM     26  C   UNL     1      34.585 -15.018 -22.239  0.00  0.00    +0.261 C 
ATOM     27  C   UNL     1      34.154 -14.493 -24.578  0.00  0.00    +0.072 C 
ATOM     28  C   UNL     1      35.014 -16.664 -24.024  0.00  0.00    +0.010 C 
ATOM     29  C   UNL     1      34.541 -15.707 -24.980  0.00  0.00    +0.017 C 
BRANCH  24  31
ATOM     30  F   UNL     1      32.565  -8.956 -21.791  0.00  0.00    -0.204 F 
ATOM     31  C   UNL     1      33.756 -12.761 -22.863  0.00  0.00    +0.059 C 
ATOM     32  C   UNL     1      34.292 -11.652 -23.519  0.00  0.00    +0.018 C 
ATOM     33  C   UNL     1      32.818 -12.585 -21.846  0.00  0.00    +0.018 C 
ATOM     34  C   UNL     1      33.889 -10.367 -23.157  0.00  0.00    +0.031 C 
ATOM     35  C   UNL     1      32.415 -11.299 -21.484  0.00  0.00    +0.031 C 
ATOM     36  C   UNL     1      32.951 -10.190 -22.139  0.00  0.00    +0.140 C 
ENDBRANCH  24  31
ENDBRANCH   3  25
TORSDOF 5
ENDMDL
MODEL 7
REMARK VINA RESULT:     -12.3      2.948     10.914
REMARK  Name = 21081761
REMARK  5 active torsions:
REMARK  status: ('A' for Active; 'I' for Inactive)
REMARK    1  A    between atoms: N_2  and  C_6
REMARK    2  A    between atoms: C_3  and  C_25
REMARK    3  A    between atoms: C_7  and  O_12
REMARK    4  A    between atoms: O_12  and  C_16
REMARK    5  A    between atoms: N_24  and  C_31
REMARK                            x       y       z     vdW  Elec       q    Type
REMARK                         _______ _______ _______ _____ _____    ______ ____
ROOT
ATOM      1  O   UNL     1      36.741 -17.418 -21.628  0.00  0.00    -0.270 OA
ATOM      2  N   UNL     1      34.515 -18.114 -21.277  0.00  0.00    -0.280 N 
ATOM      3  C   UNL     1      35.535 -17.334 -21.825  0.00  0.00    +0.254 C 
ATOM      4  H   UNL     1      33.599 -17.890 -21.560  0.00  0.00    +0.155 HD
ENDROOT
BRANCH   2   6
ATOM      5  F   UNL     1      32.557 -21.112 -18.107  0.00  0.00    -0.201 F 
ATOM      6  C   UNL     1      34.635 -19.172 -20.376  0.00  0.00    +0.053 C 
ATOM      7  C   UNL     1      34.877 -21.288 -18.574  0.00  0.00    +0.173 C 
ATOM      8  C   UNL     1      33.516 -19.625 -19.676  0.00  0.00    +0.047 C 
ATOM      9  C   UNL     1      35.875 -19.780 -20.175  0.00  0.00    +0.018 C 
ATOM     10  C   UNL     1      33.637 -20.682 -18.775  0.00  0.00    +0.176 C 
ATOM     11  C   UNL     1      35.996 -20.837 -19.273  0.00  0.00    +0.041 C 
BRANCH   7  12
ATOM     12  O   UNL     1      34.997 -22.335 -17.680  0.00  0.00    -0.451 OA
BRANCH  12  16
ATOM     13  N   UNL     1      35.603 -22.774 -13.084  0.00  0.00    -0.297 N 
ATOM     14  N   UNL     1      37.390 -21.672 -14.264  0.00  0.00    -0.229 NA
ATOM     15  C   UNL     1      35.343 -22.548 -15.291  0.00  0.00    +0.067 C 
ATOM     16  C   UNL     1      35.760 -22.128 -16.564  0.00  0.00    +0.150 C 
ATOM     17  C   UNL     1      36.194 -22.288 -14.221  0.00  0.00    +0.135 C 
ATOM     18  C   UNL     1      34.205 -23.213 -14.759  0.00  0.00    +0.022 C 
ATOM     19  C   UNL     1      34.393 -23.338 -13.400  0.00  0.00    +0.063 C 
ATOM     20  C   UNL     1      36.992 -21.484 -16.667  0.00  0.00    +0.058 C 
ATOM     21  C   UNL     1      37.741 -21.289 -15.514  0.00  0.00    +0.103 C 
ATOM     22  H   UNL     1      35.987 -22.726 -12.179  0.00  0.00    +0.154 HD
ENDBRANCH  12  16
ENDBRANCH   7  12
ENDBRANCH   2   6
BRANCH   3  25
ATOM     23  O   UNL     1      34.577 -14.737 -21.063  0.00  0.00    -0.269 OA
ATOM     24  N   UNL     1      34.159 -14.045 -23.285  0.00  0.00    -0.233 N 
ATOM     25  C   UNL     1      35.026 -16.307 -22.741  0.00  0.00    +0.108 C 
ATOM     26  C   UNL     1      34.582 -14.950 -22.275  0.00  0.00    +0.261 C 
ATOM     27  C   UNL     1      34.102 -14.466 -24.614  0.00  0.00    +0.072 C 
ATOM     28  C   UNL     1      34.950 -16.636 -24.036  0.00  0.00    +0.010 C 
ATOM     29  C   UNL     1      34.466 -15.692 -25.000  0.00  0.00    +0.017 C 
BRANCH  24  31
ATOM     30  F   UNL     1      32.644  -8.857 -21.900  0.00  0.00    -0.204 F 
ATOM     31  C   UNL     1      33.765 -12.696 -22.925  0.00  0.00    +0.059 C 
ATOM     32  C   UNL     1      32.833 -12.490 -21.908  0.00  0.00    +0.018 C 
ATOM     33  C   UNL     1      34.319 -11.605 -23.596  0.00  0.00    +0.018 C 
ATOM     34  C   UNL     1      32.455 -11.193 -21.562  0.00  0.00    +0.031 C 
ATOM     35  C   UNL     1      33.941 -10.308 -23.250  0.00  0.00    +0.031 C 
ATOM     36  C   UNL     1      33.009 -10.102 -22.232  0.00  0.00    +0.140 C 
ENDBRANCH  24  31
ENDBRANCH   3  25
TORSDOF 5
ENDMDL
MODEL 8
REMARK VINA RESULT:     -12.0      4.887      8.136
REMARK  Name = 21081761
REMARK  5 active torsions:
REMARK  status: ('A' for Active; 'I' for Inactive)
REMARK    1  A    between atoms: N_2  and  C_6
REMARK    2  A    between atoms: C_3  and  C_25
REMARK    3  A    between atoms: C_7  and  O_12
REMARK    4  A    between atoms: O_12  and  C_16
REMARK    5  A    between atoms: N_24  and  C_31
REMARK                            x       y       z     vdW  Elec       q    Type
REMARK                         _______ _______ _______ _____ _____    ______ ____
ROOT
ATOM      1  O   UNL     1      35.432 -13.718 -22.487  0.00  0.00    -0.270 OA
ATOM      2  N   UNL     1      33.476 -14.314 -21.309  0.00  0.00    -0.280 N 
ATOM      3  C   UNL     1      34.658 -14.544 -22.017  0.00  0.00    +0.254 C 
ATOM      4  H   UNL     1      32.987 -15.115 -21.012  0.00  0.00    +0.155 HD
ENDROOT
BRANCH   2   6
ATOM      5  F   UNL     1      31.605 -11.361 -18.046  0.00  0.00    -0.201 F 
ATOM      6  C   UNL     1      32.904 -13.088 -20.973  0.00  0.00    +0.053 C 
ATOM      7  C   UNL     1      31.756 -10.635 -20.300  0.00  0.00    +0.173 C 
ATOM      8  C   UNL     1      32.532 -12.829 -19.653  0.00  0.00    +0.047 C 
ATOM      9  C   UNL     1      32.702 -12.119 -21.956  0.00  0.00    +0.018 C 
ATOM     10  C   UNL     1      31.958 -11.603 -19.316  0.00  0.00    +0.176 C 
ATOM     11  C   UNL     1      32.127 -10.893 -21.620  0.00  0.00    +0.041 C 
BRANCH   7  12
ATOM     12  O   UNL     1      31.187  -9.421 -19.967  0.00  0.00    -0.451 OA
BRANCH  12  16
ATOM     13  N   UNL     1      32.607  -5.978 -22.761  0.00  0.00    -0.297 N 
ATOM     14  N   UNL     1      33.523  -5.949 -20.534  0.00  0.00    -0.229 NA
ATOM     15  C   UNL     1      31.945  -7.616 -21.396  0.00  0.00    +0.067 C 
ATOM     16  C   UNL     1      31.937  -8.296 -20.167  0.00  0.00    +0.150 C 
ATOM     17  C   UNL     1      32.744  -6.481 -21.494  0.00  0.00    +0.135 C 
ATOM     18  C   UNL     1      31.314  -7.786 -22.658  0.00  0.00    +0.022 C 
ATOM     19  C   UNL     1      31.740  -6.764 -23.477  0.00  0.00    +0.063 C 
ATOM     20  C   UNL     1      32.726  -7.787 -19.137  0.00  0.00    +0.058 C 
ATOM     21  C   UNL     1      33.477  -6.644 -19.373  0.00  0.00    +0.103 C 
ATOM     22  H   UNL     1      33.061  -5.175 -23.106  0.00  0.00    +0.154 HD
ENDBRANCH  12  16
ENDBRANCH   7  12
ENDBRANCH   2   6
BRANCH   3  25
ATOM     23  O   UNL     1      35.103 -16.415 -19.886  0.00  0.00    -0.269 OA
ATOM     24  N   UNL     1      35.348 -18.271 -21.330  0.00  0.00    -0.233 N 
ATOM     25  C   UNL     1      34.946 -15.973 -22.180  0.00  0.00    +0.108 C 
ATOM     26  C   UNL     1      35.122 -16.905 -21.015  0.00  0.00    +0.261 C 
ATOM     27  C   UNL     1      35.468 -18.665 -22.663  0.00  0.00    +0.072 C 
ATOM     28  C   UNL     1      35.066 -16.427 -23.433  0.00  0.00    +0.010 C 
ATOM     29  C   UNL     1      35.344 -17.810 -23.684  0.00  0.00    +0.017 C 
BRANCH  24  31
ATOM     30  F   UNL     1      35.841 -22.020 -17.228  0.00  0.00    -0.204 F 
ATOM     31  C   UNL     1      35.476 -19.246 -20.263  0.00  0.00    +0.059 C 
ATOM     32  C   UNL     1      34.345 -19.902 -19.779  0.00  0.00    +0.018 C 
ATOM     33  C   UNL     1      36.732 -19.527 -19.723  0.00  0.00    +0.018 C 
ATOM     34  C   UNL     1      34.468 -20.840 -18.753  0.00  0.00    +0.031 C 
ATOM     35  C   UNL     1      36.855 -20.465 -18.698  0.00  0.00    +0.031 C 
ATOM     36  C   UNL     1      35.723 -21.121 -18.213  0.00  0.00    +0.140 C 
ENDBRANCH  24  31
ENDBRANCH   3  25
TORSDOF 5
ENDMDL
MODEL 9
REMARK VINA RESULT:     -12.0      2.757     11.228
REMARK  Name = 21081761
REMARK  5 active torsions:
REMARK  status: ('A' for Active; 'I' for Inactive)
REMARK    1  A    between atoms: N_2  and  C_6
REMARK    2  A    between atoms: C_3  and  C_25
REMARK    3  A    between atoms: C_7  and  O_12
REMARK    4  A    between atoms: O_12  and  C_16
REMARK    5  A    between atoms: N_24  and  C_31
REMARK                            x       y       z     vdW  Elec       q    Type
REMARK                         _______ _______ _______ _____ _____    ______ ____
ROOT
ATOM      1  O   UNL     1      34.102 -20.817 -19.641  0.00  0.00    -0.270 OA
ATOM      2  N   UNL     1      35.943 -20.556 -18.188  0.00  0.00    -0.280 N 
ATOM      3  C   UNL     1      35.183 -20.328 -19.338  0.00  0.00    +0.254 C 
ATOM      4  H   UNL     1      36.794 -20.065 -18.126  0.00  0.00    +0.155 HD
ENDROOT
BRANCH   2   6
ATOM      5  F   UNL     1      32.874 -23.407 -15.880  0.00  0.00    -0.201 F 
ATOM      6  C   UNL     1      35.642 -21.397 -17.116  0.00  0.00    +0.053 C 
ATOM      7  C   UNL     1      35.041 -23.077 -14.971  0.00  0.00    +0.173 C 
ATOM      8  C   UNL     1      34.385 -21.995 -17.029  0.00  0.00    +0.047 C 
ATOM      9  C   UNL     1      36.599 -21.640 -16.131  0.00  0.00    +0.018 C 
ATOM     10  C   UNL     1      34.084 -22.835 -15.956  0.00  0.00    +0.176 C 
ATOM     11  C   UNL     1      36.299 -22.479 -15.058  0.00  0.00    +0.041 C 
BRANCH   7  12
ATOM     12  O   UNL     1      34.743 -23.908 -13.908  0.00  0.00    -0.451 OA
BRANCH  12  16
ATOM     13  N   UNL     1      38.783 -25.714 -12.461  0.00  0.00    -0.297 N 
ATOM     14  N   UNL     1      37.642 -24.317 -10.865  0.00  0.00    -0.229 NA
ATOM     15  C   UNL     1      36.842 -24.832 -13.124  0.00  0.00    +0.067 C 
ATOM     16  C   UNL     1      35.691 -24.050 -12.933  0.00  0.00    +0.150 C 
ATOM     17  C   UNL     1      37.744 -24.911 -12.068  0.00  0.00    +0.135 C 
ATOM     18  C   UNL     1      37.373 -25.622 -14.179  0.00  0.00    +0.022 C 
ATOM     19  C   UNL     1      38.567 -26.152 -13.742  0.00  0.00    +0.063 C 
ATOM     20  C   UNL     1      35.535 -23.411 -11.704  0.00  0.00    +0.058 C 
ATOM     21  C   UNL     1      36.516 -23.578 -10.736  0.00  0.00    +0.103 C 
ATOM     22  H   UNL     1      39.565 -25.943 -11.908  0.00  0.00    +0.154 HD
ENDBRANCH  12  16
ENDBRANCH   7  12
ENDBRANCH   2   6
BRANCH   3  25
ATOM     23  O   UNL     1      33.828 -18.713 -21.287  0.00  0.00    -0.269 OA
ATOM     24  N   UNL     1      35.795 -17.610 -22.000  0.00  0.00    -0.233 N 
ATOM     25  C   UNL     1      35.822 -19.372 -20.250  0.00  0.00    +0.108 C 
ATOM     26  C   UNL     1      35.043 -18.525 -21.215  0.00  0.00    +0.261 C 
ATOM     27  C   UNL     1      37.186 -17.592 -21.899  0.00  0.00    +0.072 C 
ATOM     28  C   UNL     1      37.157 -19.292 -20.205  0.00  0.00    +0.010 C 
ATOM     29  C   UNL     1      37.861 -18.383 -21.060  0.00  0.00    +0.017 C 
BRANCH  24  31
ATOM     30  F   UNL     1      33.176 -14.178 -25.534  0.00  0.00    -0.204 F 
ATOM     31  C   UNL     1      35.114 -16.718 -22.919  0.00  0.00    +0.059 C 
ATOM     32  C   UNL     1      35.020 -15.357 -22.628  0.00  0.00    +0.018 C 
ATOM     33  C   UNL     1      34.553 -17.222 -24.093  0.00  0.00    +0.018 C 
ATOM     34  C   UNL     1      34.366 -14.499 -23.512  0.00  0.00    +0.031 C 
ATOM     35  C   UNL     1      33.899 -16.363 -24.977  0.00  0.00    +0.031 C 
ATOM     36  C   UNL     1      33.806 -15.002 -24.686  0.00  0.00    +0.140 C 
ENDBRANCH  24  31
ENDBRANCH   3  25
TORSDOF 5
ENDMDL
