MODEL 1
REMARK VINA RESULT:     -12.6      0.000      0.000
REMARK  Name = 9808844
REMARK  5 active torsions:
REMARK  status: ('A' for Active; 'I' for Inactive)
REMARK    1  A    between atoms: N_2  and  C_13
REMARK    2  A    between atoms: C_8  and  O_19
REMARK    3  A    between atoms: O_19  and  C_20
REMARK    4  A    between atoms: C_20  and  C_22
REMARK    5  A    between atoms: C_25  and  C_29
REMARK                            x       y       z     vdW  Elec       q    Type
REMARK                         _______ _______ _______ _____ _____    ______ ____
ROOT
ATOM      1  O   UNL     1      35.560 -22.054 -16.925  0.00  0.00    -0.446 OA
ATOM      2  N   UNL     1      35.736 -18.979 -20.468  0.00  0.00    -0.296 N 
ATOM      3  N   UNL     1      33.706 -20.136 -19.968  0.00  0.00    -0.130 NA
ATOM      4  N   UNL     1      32.956 -21.039 -19.223  0.00  0.00    -0.106 NA
ATOM      5  C   UNL     1      35.603 -20.582 -18.638  0.00  0.00    +0.076 A 
ATOM      6  C   UNL     1      34.825 -21.476 -17.916  0.00  0.00    +0.202 A 
ATOM      7  C   UNL     1      35.009 -19.899 -19.694  0.00  0.00    +0.157 A 
ATOM      8  C   UNL     1      33.496 -21.719 -18.193  0.00  0.00    +0.279 A 
ATOM      9  C   UNL     1      36.891 -20.624 -18.042  0.00  0.00    +0.047 C 
ATOM     10  C   UNL     1      36.811 -21.530 -17.009  0.00  0.00    +0.180 C 
ATOM     11  H   UNL     1      36.674 -18.880 -20.186  0.00  0.00    +0.154 HD
ENDROOT
BRANCH   2  13
ATOM     12 CL   UNL     1      34.279 -15.572 -25.087  0.00  0.00    -0.082 Cl
ATOM     13  C   UNL     1      35.389 -18.167 -21.569  0.00  0.00    +0.049 C 
ATOM     14  C   UNL     1      35.579 -16.787 -21.505  0.00  0.00    +0.016 C 
ATOM     15  C   UNL     1      34.857 -18.745 -22.721  0.00  0.00    +0.016 C 
ATOM     16  C   UNL     1      35.236 -15.984 -22.592  0.00  0.00    +0.013 C 
ATOM     17  C   UNL     1      34.514 -17.943 -23.809  0.00  0.00    +0.013 C 
ATOM     18  C   UNL     1      34.704 -16.563 -23.744  0.00  0.00    +0.058 C 
ENDBRANCH   2  13
BRANCH   8  19
ATOM     19  O   UNL     1      32.721 -22.600 -17.486  0.00  0.00    -0.452 OA
BRANCH  19  20
ATOM     20  C   UNL     1      31.857 -22.045 -16.501  0.00  0.00    +0.234 C 
BRANCH  20  22
ATOM     21  N   UNL     1      32.355 -24.203 -12.831  0.00  0.00    -0.239 NA
ATOM     22  C   UNL     1      32.033 -22.801 -15.216  0.00  0.00    +0.024 C 
ATOM     23  C   UNL     1      33.239 -22.739 -14.539  0.00  0.00    +0.023 C 
ATOM     24  C   UNL     1      30.985 -23.557 -14.714  0.00  0.00    +0.020 C 
ATOM     25  C   UNL     1      33.349 -23.453 -13.357  0.00  0.00    +0.134 C 
ATOM     26  C   UNL     1      31.196 -24.235 -13.525  0.00  0.00    +0.099 C 
BRANCH  25  29
ATOM     27  O   UNL     1      34.663 -23.988 -11.489  0.00  0.00    -0.268 OA
ATOM     28  N   UNL     1      35.681 -22.777 -13.184  0.00  0.00    -0.298 N 
ATOM     29  C   UNL     1      34.588 -23.429 -12.599  0.00  0.00    +0.264 C 
ATOM     30  C   UNL     1      36.985 -22.689 -12.567  0.00  0.00    +0.111 C 
ATOM     31  H   UNL     1      35.554 -22.357 -14.065  0.00  0.00    +0.150 HD
ENDBRANCH  25  29
ENDBRANCH  20  22
ENDBRANCH  19  20
ENDBRANCH   8  19
TORSDOF 5
ENDMDL
MODEL 2
REMARK VINA RESULT:     -12.0      2.195      3.567
REMARK  Name = 9808844
REMARK  5 active torsions:
REMARK  status: ('A' for Active; 'I' for Inactive)
REMARK    1  A    between atoms: N_2  and  C_13
REMARK    2  A    between atoms: C_8  and  O_19
REMARK    3  A    between atoms: O_19  and  C_20
REMARK    4  A    between atoms: C_20  and  C_22
REMARK    5  A    between atoms: C_25  and  C_29
REMARK                            x       y       z     vdW  Elec       q    Type
REMARK                         _______ _______ _______ _____ _____    ______ ____
ROOT
ATOM      1  O   UNL     1      35.568 -21.716 -17.606  0.00  0.00    -0.446 OA
ATOM      2  N   UNL     1      35.663 -18.528 -21.051  0.00  0.00    -0.296 N 
ATOM      3  N   UNL     1      33.612 -19.592 -20.441  0.00  0.00    -0.130 NA
ATOM      4  N   UNL     1      32.868 -20.480 -19.673  0.00  0.00    -0.106 NA
ATOM      5  C   UNL     1      35.572 -20.187 -19.269  0.00  0.00    +0.076 A 
ATOM      6  C   UNL     1      34.798 -21.064 -18.521  0.00  0.00    +0.202 A 
ATOM      7  C   UNL     1      34.943 -19.435 -20.256  0.00  0.00    +0.157 A 
ATOM      8  C   UNL     1      33.442 -21.225 -18.708  0.00  0.00    +0.279 A 
ATOM      9  C   UNL     1      36.895 -20.320 -18.771  0.00  0.00    +0.047 C 
ATOM     10  C   UNL     1      36.838 -21.257 -17.765  0.00  0.00    +0.180 C 
ATOM     11  H   UNL     1      36.623 -18.490 -20.836  0.00  0.00    +0.154 HD
ENDROOT
BRANCH   2  13
ATOM     12 CL   UNL     1      34.074 -14.883 -25.438  0.00  0.00    -0.082 Cl
ATOM     13  C   UNL     1      35.285 -17.659 -22.097  0.00  0.00    +0.049 C 
ATOM     14  C   UNL     1      35.453 -16.282 -21.955  0.00  0.00    +0.016 C 
ATOM     15  C   UNL     1      34.743 -18.178 -23.273  0.00  0.00    +0.016 C 
ATOM     16  C   UNL     1      35.079 -15.423 -22.988  0.00  0.00    +0.013 C 
ATOM     17  C   UNL     1      34.369 -17.319 -24.306  0.00  0.00    +0.013 C 
ATOM     18  C   UNL     1      34.537 -15.943 -24.163  0.00  0.00    +0.058 C 
ENDBRANCH   2  13
BRANCH   8  19
ATOM     19  O   UNL     1      32.671 -22.088 -17.975  0.00  0.00    -0.452 OA
BRANCH  19  20
ATOM     20  C   UNL     1      33.170 -22.466 -16.698  0.00  0.00    +0.234 C 
BRANCH  20  22
ATOM     21  N   UNL     1      29.880 -22.918 -13.987  0.00  0.00    -0.239 NA
ATOM     22  C   UNL     1      32.017 -22.624 -15.749  0.00  0.00    +0.024 C 
ATOM     23  C   UNL     1      30.757 -22.185 -16.117  0.00  0.00    +0.023 C 
ATOM     24  C   UNL     1      32.222 -23.208 -14.508  0.00  0.00    +0.020 C 
ATOM     25  C   UNL     1      29.727 -22.354 -15.206  0.00  0.00    +0.134 C 
ATOM     26  C   UNL     1      31.127 -23.331 -13.669  0.00  0.00    +0.099 C 
BRANCH  25  29
ATOM     27  O   UNL     1      27.609 -21.521 -14.638  0.00  0.00    -0.268 OA
ATOM     28  N   UNL     1      28.013 -21.937 -16.883  0.00  0.00    -0.298 N 
ATOM     29  C   UNL     1      28.381 -21.916 -15.532  0.00  0.00    +0.264 C 
ATOM     30  C   UNL     1      26.720 -21.510 -17.367  0.00  0.00    +0.111 C 
ATOM     31  H   UNL     1      28.672 -22.260 -17.539  0.00  0.00    +0.150 HD
ENDBRANCH  25  29
ENDBRANCH  20  22
ENDBRANCH  19  20
ENDBRANCH   8  19
TORSDOF 5
ENDMDL
MODEL 3
REMARK VINA RESULT:     -11.4      3.901      8.967
REMARK  Name = 9808844
REMARK  5 active torsions:
REMARK  status: ('A' for Active; 'I' for Inactive)
REMARK    1  A    between atoms: N_2  and  C_13
REMARK    2  A    between atoms: C_8  and  O_19
REMARK    3  A    between atoms: O_19  and  C_20
REMARK    4  A    between atoms: C_20  and  C_22
REMARK    5  A    between atoms: C_25  and  C_29
REMARK                            x       y       z     vdW  Elec       q    Type
REMARK                         _______ _______ _______ _____ _____    ______ ____
ROOT
ATOM      1  O   UNL     1      31.141 -22.000 -16.516  0.00  0.00    -0.446 OA
ATOM      2  N   UNL     1      34.967 -23.950 -14.621  0.00  0.00    -0.296 N 
ATOM      3  N   UNL     1      35.144 -22.583 -16.573  0.00  0.00    -0.130 NA
ATOM      4  N   UNL     1      34.595 -21.785 -17.570  0.00  0.00    -0.106 NA
ATOM      5  C   UNL     1      33.006 -22.920 -15.634  0.00  0.00    +0.076 A 
ATOM      6  C   UNL     1      32.491 -22.118 -16.644  0.00  0.00    +0.202 A 
ATOM      7  C   UNL     1      34.377 -23.149 -15.614  0.00  0.00    +0.157 A 
ATOM      8  C   UNL     1      33.271 -21.540 -17.623  0.00  0.00    +0.279 A 
ATOM      9  C   UNL     1      31.891 -23.309 -14.846  0.00  0.00    +0.047 C 
ATOM     10  C   UNL     1      30.786 -22.725 -15.422  0.00  0.00    +0.180 C 
ATOM     11  H   UNL     1      34.322 -24.313 -13.972  0.00  0.00    +0.154 HD
ENDROOT
BRANCH   2  13
ATOM     12 CL   UNL     1      40.562 -25.574 -13.563  0.00  0.00    -0.082 Cl
ATOM     13  C   UNL     1      36.301 -24.337 -14.369  0.00  0.00    +0.049 C 
ATOM     14  C   UNL     1      37.224 -23.398 -13.910  0.00  0.00    +0.016 C 
ATOM     15  C   UNL     1      36.695 -25.659 -14.577  0.00  0.00    +0.016 C 
ATOM     16  C   UNL     1      38.542 -23.780 -13.661  0.00  0.00    +0.013 C 
ATOM     17  C   UNL     1      38.012 -26.041 -14.328  0.00  0.00    +0.013 C 
ATOM     18  C   UNL     1      38.936 -25.102 -13.870  0.00  0.00    +0.058 C 
ENDBRANCH   2  13
BRANCH   8  19
ATOM     19  O   UNL     1      32.772 -20.749 -18.624  0.00  0.00    -0.452 OA
BRANCH  19  20
ATOM     20  C   UNL     1      33.382 -20.874 -19.904  0.00  0.00    +0.234 C 
BRANCH  20  22
ATOM     21  N   UNL     1      36.725 -18.200 -20.125  0.00  0.00    -0.239 NA
ATOM     22  C   UNL     1      34.552 -19.937 -19.982  0.00  0.00    +0.024 C 
ATOM     23  C   UNL     1      34.343 -18.593 -20.240  0.00  0.00    +0.023 C 
ATOM     24  C   UNL     1      35.837 -20.424 -19.795  0.00  0.00    +0.020 C 
ATOM     25  C   UNL     1      35.456 -17.770 -20.301  0.00  0.00    +0.134 C 
ATOM     26  C   UNL     1      36.883 -19.519 -19.876  0.00  0.00    +0.099 C 
BRANCH  25  29
ATOM     27  O   UNL     1      35.283 -15.528 -19.632  0.00  0.00    -0.268 OA
ATOM     28  N   UNL     1      35.209 -15.960 -21.909  0.00  0.00    -0.298 N 
ATOM     29  C   UNL     1      35.304 -16.350 -20.567  0.00  0.00    +0.264 C 
ATOM     30  C   UNL     1      35.079 -14.586 -22.335  0.00  0.00    +0.111 C 
ATOM     31  H   UNL     1      35.233 -16.661 -22.599  0.00  0.00    +0.150 HD
ENDBRANCH  25  29
ENDBRANCH  20  22
ENDBRANCH  19  20
ENDBRANCH   8  19
TORSDOF 5
ENDMDL
MODEL 4
REMARK VINA RESULT:     -11.2      6.012     11.626
REMARK  Name = 9808844
REMARK  5 active torsions:
REMARK  status: ('A' for Active; 'I' for Inactive)
REMARK    1  A    between atoms: N_2  and  C_13
REMARK    2  A    between atoms: C_8  and  O_19
REMARK    3  A    between atoms: O_19  and  C_20
REMARK    4  A    between atoms: C_20  and  C_22
REMARK    5  A    between atoms: C_25  and  C_29
REMARK                            x       y       z     vdW  Elec       q    Type
REMARK                         _______ _______ _______ _____ _____    ______ ____
ROOT
ATOM      1  O   UNL     1      34.667 -16.443 -24.129  0.00  0.00    -0.446 OA
ATOM      2  N   UNL     1      35.084 -19.698 -20.772  0.00  0.00    -0.296 N 
ATOM      3  N   UNL     1      35.433 -17.387 -20.270  0.00  0.00    -0.130 NA
ATOM      4  N   UNL     1      35.490 -16.046 -20.629  0.00  0.00    -0.106 NA
ATOM      5  C   UNL     1      34.877 -17.978 -22.486  0.00  0.00    +0.076 A 
ATOM      6  C   UNL     1      34.943 -16.629 -22.809  0.00  0.00    +0.202 A 
ATOM      7  C   UNL     1      35.133 -18.351 -21.171  0.00  0.00    +0.157 A 
ATOM      8  C   UNL     1      35.248 -15.646 -21.892  0.00  0.00    +0.279 A 
ATOM      9  C   UNL     1      34.539 -18.647 -23.692  0.00  0.00    +0.047 C 
ATOM     10  C   UNL     1      34.423 -17.672 -24.656  0.00  0.00    +0.180 C 
ATOM     11  H   UNL     1      34.858 -20.317 -21.502  0.00  0.00    +0.154 HD
ENDROOT
BRANCH   2  13
ATOM     12 CL   UNL     1      35.967 -22.388 -15.572  0.00  0.00    -0.082 Cl
ATOM     13  C   UNL     1      35.295 -20.339 -19.532  0.00  0.00    +0.049 C 
ATOM     14  C   UNL     1      36.558 -20.319 -18.943  0.00  0.00    +0.016 C 
ATOM     15  C   UNL     1      34.239 -20.992 -18.897  0.00  0.00    +0.016 C 
ATOM     16  C   UNL     1      36.766 -20.952 -17.718  0.00  0.00    +0.013 C 
ATOM     17  C   UNL     1      34.447 -21.626 -17.673  0.00  0.00    +0.013 C 
ATOM     18  C   UNL     1      35.710 -21.606 -17.083  0.00  0.00    +0.058 C 
ENDBRANCH   2  13
BRANCH   8  19
ATOM     19  O   UNL     1      35.316 -14.313 -22.202  0.00  0.00    -0.452 OA
BRANCH  19  20
ATOM     20  C   UNL     1      34.099 -13.578 -22.140  0.00  0.00    +0.234 C 
BRANCH  20  22
ATOM     21  N   UNL     1      33.892 -10.935 -25.508  0.00  0.00    -0.239 NA
ATOM     22  C   UNL     1      34.027 -12.652 -23.319  0.00  0.00    +0.024 C 
ATOM     23  C   UNL     1      34.265 -11.298 -23.148  0.00  0.00    +0.023 C 
ATOM     24  C   UNL     1      33.721 -13.157 -24.573  0.00  0.00    +0.020 C 
ATOM     25  C   UNL     1      34.186 -10.486 -24.267  0.00  0.00    +0.134 C 
ATOM     26  C   UNL     1      33.667 -12.262 -25.629  0.00  0.00    +0.099 C 
BRANCH  25  29
ATOM     27  O   UNL     1      35.542  -8.579 -24.426  0.00  0.00    -0.268 OA
ATOM     28  N   UNL     1      33.346  -8.261 -23.757  0.00  0.00    -0.298 N 
ATOM     29  C   UNL     1      34.426  -9.058 -24.155  0.00  0.00    +0.264 C 
ATOM     30  C   UNL     1      33.419  -6.823 -23.622  0.00  0.00    +0.111 C 
ATOM     31  H   UNL     1      32.489  -8.703 -23.558  0.00  0.00    +0.150 HD
ENDBRANCH  25  29
ENDBRANCH  20  22
ENDBRANCH  19  20
ENDBRANCH   8  19
TORSDOF 5
ENDMDL
MODEL 5
REMARK VINA RESULT:     -11.2      6.042     10.729
REMARK  Name = 9808844
REMARK  5 active torsions:
REMARK  status: ('A' for Active; 'I' for Inactive)
REMARK    1  A    between atoms: N_2  and  C_13
REMARK    2  A    between atoms: C_8  and  O_19
REMARK    3  A    between atoms: O_19  and  C_20
REMARK    4  A    between atoms: C_20  and  C_22
REMARK    5  A    between atoms: C_25  and  C_29
REMARK                            x       y       z     vdW  Elec       q    Type
REMARK                         _______ _______ _______ _____ _____    ______ ____
ROOT
ATOM      1  O   UNL     1      34.719 -16.060 -24.112  0.00  0.00    -0.446 OA
ATOM      2  N   UNL     1      35.153 -19.457 -20.901  0.00  0.00    -0.296 N 
ATOM      3  N   UNL     1      35.342 -17.160 -20.268  0.00  0.00    -0.130 NA
ATOM      4  N   UNL     1      35.339 -15.800 -20.557  0.00  0.00    -0.106 NA
ATOM      5  C   UNL     1      34.934 -17.664 -22.537  0.00  0.00    +0.076 A 
ATOM      6  C   UNL     1      34.938 -16.299 -22.790  0.00  0.00    +0.202 A 
ATOM      7  C   UNL     1      35.144 -18.090 -21.230  0.00  0.00    +0.157 A 
ATOM      8  C   UNL     1      35.139 -15.349 -21.811  0.00  0.00    +0.279 A 
ATOM      9  C   UNL     1      34.697 -18.287 -23.790  0.00  0.00    +0.047 C 
ATOM     10  C   UNL     1      34.573 -17.271 -24.711  0.00  0.00    +0.180 C 
ATOM     11  H   UNL     1      35.000 -20.049 -21.672  0.00  0.00    +0.154 HD
ENDROOT
BRANCH   2  13
ATOM     12 CL   UNL     1      35.926 -22.360 -15.799  0.00  0.00    -0.082 Cl
ATOM     13  C   UNL     1      35.337 -20.149 -19.685  0.00  0.00    +0.049 C 
ATOM     14  C   UNL     1      34.257 -20.785 -19.074  0.00  0.00    +0.016 C 
ATOM     15  C   UNL     1      36.600 -20.197 -19.095  0.00  0.00    +0.016 C 
ATOM     16  C   UNL     1      34.439 -21.469 -17.873  0.00  0.00    +0.013 C 
ATOM     17  C   UNL     1      36.782 -20.881 -17.893  0.00  0.00    +0.013 C 
ATOM     18  C   UNL     1      35.702 -21.517 -17.283  0.00  0.00    +0.058 C 
ENDBRANCH   2  13
BRANCH   8  19
ATOM     19  O   UNL     1      35.145 -14.000 -22.051  0.00  0.00    -0.452 OA
BRANCH  19  20
ATOM     20  C   UNL     1      34.007 -13.462 -22.714  0.00  0.00    +0.234 C 
BRANCH  20  22
ATOM     21  N   UNL     1      31.793 -11.048 -19.951  0.00  0.00    -0.239 NA
ATOM     22  C   UNL     1      33.232 -12.616 -21.747  0.00  0.00    +0.024 C 
ATOM     23  C   UNL     1      33.022 -11.275 -22.019  0.00  0.00    +0.023 C 
ATOM     24  C   UNL     1      32.730 -13.183 -20.585  0.00  0.00    +0.020 C 
ATOM     25  C   UNL     1      32.300 -10.537 -21.095  0.00  0.00    +0.134 C 
ATOM     26  C   UNL     1      32.022 -12.361 -19.725  0.00  0.00    +0.099 C 
BRANCH  25  29
ATOM     27  O   UNL     1      31.473  -8.744 -22.359  0.00  0.00    -0.268 OA
ATOM     28  N   UNL     1      32.447  -8.236 -20.317  0.00  0.00    -0.298 N 
ATOM     29  C   UNL     1      32.045  -9.126 -21.322  0.00  0.00    +0.264 C 
ATOM     30  C   UNL     1      32.241  -6.807 -20.385  0.00  0.00    +0.111 C 
ATOM     31  H   UNL     1      32.893  -8.605 -19.521  0.00  0.00    +0.150 HD
ENDBRANCH  25  29
ENDBRANCH  20  22
ENDBRANCH  19  20
ENDBRANCH   8  19
TORSDOF 5
ENDMDL
MODEL 6
REMARK VINA RESULT:     -11.2      7.098     11.329
REMARK  Name = 9808844
REMARK  5 active torsions:
REMARK  status: ('A' for Active; 'I' for Inactive)
REMARK    1  A    between atoms: N_2  and  C_13
REMARK    2  A    between atoms: C_8  and  O_19
REMARK    3  A    between atoms: O_19  and  C_20
REMARK    4  A    between atoms: C_20  and  C_22
REMARK    5  A    between atoms: C_25  and  C_29
REMARK                            x       y       z     vdW  Elec       q    Type
REMARK                         _______ _______ _______ _____ _____    ______ ____
ROOT
ATOM      1  O   UNL     1      34.026 -13.760 -24.499  0.00  0.00    -0.446 OA
ATOM      2  N   UNL     1      35.353 -17.574 -22.104  0.00  0.00    -0.296 N 
ATOM      3  N   UNL     1      34.929 -15.516 -20.967  0.00  0.00    -0.130 NA
ATOM      4  N   UNL     1      34.566 -14.175 -20.946  0.00  0.00    -0.106 NA
ATOM      5  C   UNL     1      34.662 -15.573 -23.311  0.00  0.00    +0.076 A 
ATOM      6  C   UNL     1      34.304 -14.233 -23.252  0.00  0.00    +0.202 A 
ATOM      7  C   UNL     1      34.982 -16.219 -22.121  0.00  0.00    +0.157 A 
ATOM      8  C   UNL     1      34.250 -13.515 -22.077  0.00  0.00    +0.279 A 
ATOM      9  C   UNL     1      34.595 -15.930 -24.683  0.00  0.00    +0.047 C 
ATOM     10  C   UNL     1      34.204 -14.797 -25.359  0.00  0.00    +0.180 C 
ATOM     11  H   UNL     1      35.359 -17.992 -22.996  0.00  0.00    +0.154 HD
ENDROOT
BRANCH   2  13
ATOM     12 CL   UNL     1      36.881 -21.273 -17.741  0.00  0.00    -0.082 Cl
ATOM     13  C   UNL     1      35.717 -18.456 -21.064  0.00  0.00    +0.049 C 
ATOM     14  C   UNL     1      34.760 -19.297 -20.496  0.00  0.00    +0.016 C 
ATOM     15  C   UNL     1      37.034 -18.486 -20.605  0.00  0.00    +0.016 C 
ATOM     16  C   UNL     1      35.120 -20.168 -19.469  0.00  0.00    +0.013 C 
ATOM     17  C   UNL     1      37.393 -19.358 -19.578  0.00  0.00    +0.013 C 
ATOM     18  C   UNL     1      36.437 -20.198 -19.010  0.00  0.00    +0.058 C 
ENDBRANCH   2  13
BRANCH   8  19
ATOM     19  O   UNL     1      33.898 -12.192 -22.010  0.00  0.00    -0.452 OA
BRANCH  19  20
ATOM     20  C   UNL     1      32.507 -11.901 -21.948  0.00  0.00    +0.234 C 
BRANCH  20  22
ATOM     21  N   UNL     1      31.751  -9.395 -18.554  0.00  0.00    -0.239 NA
ATOM     22  C   UNL     1      32.242 -11.023 -20.760  0.00  0.00    +0.024 C 
ATOM     23  C   UNL     1      32.349  -9.648 -20.882  0.00  0.00    +0.023 C 
ATOM     24  C   UNL     1      31.894 -11.595 -19.546  0.00  0.00    +0.020 C 
ATOM     25  C   UNL     1      32.094  -8.882 -19.756  0.00  0.00    +0.134 C 
ATOM     26  C   UNL     1      31.660 -10.742 -18.480  0.00  0.00    +0.099 C 
BRANCH  25  29
ATOM     27  O   UNL     1      31.999  -6.832 -20.891  0.00  0.00    -0.268 OA
ATOM     28  N   UNL     1      32.473  -6.762 -18.623  0.00  0.00    -0.298 N 
ATOM     29  C   UNL     1      32.188  -7.434 -19.818  0.00  0.00    +0.264 C 
ATOM     30  C   UNL     1      32.575  -5.324 -18.518  0.00  0.00    +0.111 C 
ATOM     31  H   UNL     1      32.610  -7.299 -17.809  0.00  0.00    +0.150 HD
ENDBRANCH  25  29
ENDBRANCH  20  22
ENDBRANCH  19  20
ENDBRANCH   8  19
TORSDOF 5
ENDMDL
MODEL 7
REMARK VINA RESULT:     -11.1      2.569      5.038
REMARK  Name = 9808844
REMARK  5 active torsions:
REMARK  status: ('A' for Active; 'I' for Inactive)
REMARK    1  A    between atoms: N_2  and  C_13
REMARK    2  A    between atoms: C_8  and  O_19
REMARK    3  A    between atoms: O_19  and  C_20
REMARK    4  A    between atoms: C_20  and  C_22
REMARK    5  A    between atoms: C_25  and  C_29
REMARK                            x       y       z     vdW  Elec       q    Type
REMARK                         _______ _______ _______ _____ _____    ______ ____
ROOT
ATOM      1  O   UNL     1      31.160 -23.782 -14.307  0.00  0.00    -0.446 OA
ATOM      2  N   UNL     1      32.662 -21.289 -17.990  0.00  0.00    -0.296 N 
ATOM      3  N   UNL     1      34.225 -22.261 -16.466  0.00  0.00    -0.130 NA
ATOM      4  N   UNL     1      34.540 -23.005 -15.335  0.00  0.00    -0.106 NA
ATOM      5  C   UNL     1      31.923 -22.590 -16.067  0.00  0.00    +0.076 A 
ATOM      6  C   UNL     1      32.274 -23.328 -14.944  0.00  0.00    +0.202 A 
ATOM      7  C   UNL     1      32.943 -22.047 -16.840  0.00  0.00    +0.157 A 
ATOM      8  C   UNL     1      33.580 -23.547 -14.561  0.00  0.00    +0.279 A 
ATOM      9  C   UNL     1      30.504 -22.602 -16.107  0.00  0.00    +0.047 C 
ATOM     10  C   UNL     1      30.091 -23.338 -15.020  0.00  0.00    +0.180 C 
ATOM     11  H   UNL     1      31.699 -21.194 -18.174  0.00  0.00    +0.154 HD
ENDROOT
BRANCH   2  13
ATOM     12 CL   UNL     1      36.112 -18.562 -21.954  0.00  0.00    -0.082 Cl
ATOM     13  C   UNL     1      33.484 -20.639 -18.935  0.00  0.00    +0.049 C 
ATOM     14  C   UNL     1      32.915 -19.813 -19.904  0.00  0.00    +0.016 C 
ATOM     15  C   UNL     1      34.866 -20.822 -18.899  0.00  0.00    +0.016 C 
ATOM     16  C   UNL     1      33.727 -19.171 -20.837  0.00  0.00    +0.013 C 
ATOM     17  C   UNL     1      35.679 -20.180 -19.833  0.00  0.00    +0.013 C 
ATOM     18  C   UNL     1      35.109 -19.354 -20.801  0.00  0.00    +0.058 C 
ENDBRANCH   2  13
BRANCH   8  19
ATOM     19  O   UNL     1      33.936 -24.273 -13.455  0.00  0.00    -0.452 OA
BRANCH  19  20
ATOM     20  C   UNL     1      34.239 -23.535 -12.276  0.00  0.00    +0.234 C 
BRANCH  20  22
ATOM     21  N   UNL     1      38.459 -23.732 -11.550  0.00  0.00    -0.239 NA
ATOM     22  C   UNL     1      35.717 -23.605 -12.022  0.00  0.00    +0.024 C 
ATOM     23  C   UNL     1      36.499 -24.491 -12.744  0.00  0.00    +0.023 C 
ATOM     24  C   UNL     1      36.290 -22.782 -11.065  0.00  0.00    +0.020 C 
ATOM     25  C   UNL     1      37.858 -24.515 -12.473  0.00  0.00    +0.134 C 
ATOM     26  C   UNL     1      37.657 -22.883 -10.868  0.00  0.00    +0.099 C 
BRANCH  25  29
ATOM     27  O   UNL     1      38.330 -26.544 -13.551  0.00  0.00    -0.268 OA
ATOM     28  N   UNL     1      40.024 -24.962 -13.487  0.00  0.00    -0.298 N 
ATOM     29  C   UNL     1      38.733 -25.421 -13.196  0.00  0.00    +0.264 C 
ATOM     30  C   UNL     1      41.001 -25.735 -14.219  0.00  0.00    +0.111 C 
ATOM     31  H   UNL     1      40.279 -24.063 -13.178  0.00  0.00    +0.150 HD
ENDBRANCH  25  29
ENDBRANCH  20  22
ENDBRANCH  19  20
ENDBRANCH   8  19
TORSDOF 5
ENDMDL
MODEL 8
REMARK VINA RESULT:     -11.0      2.313      4.317
REMARK  Name = 9808844
REMARK  5 active torsions:
REMARK  status: ('A' for Active; 'I' for Inactive)
REMARK    1  A    between atoms: N_2  and  C_13
REMARK    2  A    between atoms: C_8  and  O_19
REMARK    3  A    between atoms: O_19  and  C_20
REMARK    4  A    between atoms: C_20  and  C_22
REMARK    5  A    between atoms: C_25  and  C_29
REMARK                            x       y       z     vdW  Elec       q    Type
REMARK                         _______ _______ _______ _____ _____    ______ ____
ROOT
ATOM      1  O   UNL     1      34.828 -22.897 -16.197  0.00  0.00    -0.446 OA
ATOM      2  N   UNL     1      34.501 -19.944 -19.831  0.00  0.00    -0.296 N 
ATOM      3  N   UNL     1      36.431 -19.923 -18.423  0.00  0.00    -0.130 NA
ATOM      4  N   UNL     1      37.169 -20.388 -17.341  0.00  0.00    -0.106 NA
ATOM      5  C   UNL     1      34.709 -21.461 -17.936  0.00  0.00    +0.076 A 
ATOM      6  C   UNL     1      35.473 -21.900 -16.863  0.00  0.00    +0.202 A 
ATOM      7  C   UNL     1      35.219 -20.439 -18.729  0.00  0.00    +0.157 A 
ATOM      8  C   UNL     1      36.709 -21.376 -16.549  0.00  0.00    +0.279 A 
ATOM      9  C   UNL     1      33.526 -22.245 -17.912  0.00  0.00    +0.047 C 
ATOM     10  C   UNL     1      33.649 -23.100 -16.841  0.00  0.00    +0.180 C 
ATOM     11  H   UNL     1      33.632 -20.387 -19.967  0.00  0.00    +0.154 HD
ENDROOT
BRANCH   2  13
ATOM     12 CL   UNL     1      35.659 -15.726 -23.822  0.00  0.00    -0.082 Cl
ATOM     13  C   UNL     1      34.777 -18.938 -20.783  0.00  0.00    +0.049 C 
ATOM     14  C   UNL     1      34.511 -19.165 -22.133  0.00  0.00    +0.016 C 
ATOM     15  C   UNL     1      35.315 -17.719 -20.372  0.00  0.00    +0.016 C 
ATOM     16  C   UNL     1      34.783 -18.171 -23.073  0.00  0.00    +0.013 C 
ATOM     17  C   UNL     1      35.587 -16.726 -21.312  0.00  0.00    +0.013 C 
ATOM     18  C   UNL     1      35.321 -16.952 -22.662  0.00  0.00    +0.058 C 
ENDBRANCH   2  13
BRANCH   8  19
ATOM     19  O   UNL     1      37.470 -21.803 -15.493  0.00  0.00    -0.452 OA
BRANCH  19  20
ATOM     20  C   UNL     1      38.666 -22.507 -15.808  0.00  0.00    +0.234 C 
BRANCH  20  22
ATOM     21  N   UNL     1      39.347 -25.513 -12.830  0.00  0.00    -0.239 NA
ATOM     22  C   UNL     1      38.903 -23.559 -14.764  0.00  0.00    +0.024 C 
ATOM     23  C   UNL     1      38.017 -23.696 -13.709  0.00  0.00    +0.023 C 
ATOM     24  C   UNL     1      40.011 -24.388 -14.863  0.00  0.00    +0.020 C 
ATOM     25  C   UNL     1      38.281 -24.683 -12.774  0.00  0.00    +0.134 C 
ATOM     26  C   UNL     1      40.186 -25.343 -13.876  0.00  0.00    +0.099 C 
BRANCH  25  29
ATOM     27  O   UNL     1      37.285 -25.997 -11.106  0.00  0.00    -0.268 OA
ATOM     28  N   UNL     1      36.687 -23.758 -11.185  0.00  0.00    -0.298 N 
ATOM     29  C   UNL     1      37.390 -24.879 -11.644  0.00  0.00    +0.264 C 
ATOM     30  C   UNL     1      35.782 -23.787 -10.058  0.00  0.00    +0.111 C 
ATOM     31  H   UNL     1      36.817 -22.903 -11.655  0.00  0.00    +0.150 HD
ENDBRANCH  25  29
ENDBRANCH  20  22
ENDBRANCH  19  20
ENDBRANCH   8  19
TORSDOF 5
ENDMDL
MODEL 9
REMARK VINA RESULT:     -10.9      1.400      3.367
REMARK  Name = 9808844
REMARK  5 active torsions:
REMARK  status: ('A' for Active; 'I' for Inactive)
REMARK    1  A    between atoms: N_2  and  C_13
REMARK    2  A    between atoms: C_8  and  O_19
REMARK    3  A    between atoms: O_19  and  C_20
REMARK    4  A    between atoms: C_20  and  C_22
REMARK    5  A    between atoms: C_25  and  C_29
REMARK                            x       y       z     vdW  Elec       q    Type
REMARK                         _______ _______ _______ _____ _____    ______ ____
ROOT
ATOM      1  O   UNL     1      34.750 -22.160 -17.276  0.00  0.00    -0.446 OA
ATOM      2  N   UNL     1      34.247 -19.156 -20.848  0.00  0.00    -0.296 N 
ATOM      3  N   UNL     1      36.375 -19.450 -19.803  0.00  0.00    -0.130 NA
ATOM      4  N   UNL     1      37.212 -20.035 -18.860  0.00  0.00    -0.106 NA
ATOM      5  C   UNL     1      34.549 -20.705 -18.992  0.00  0.00    +0.076 A 
ATOM      6  C   UNL     1      35.414 -21.269 -18.064  0.00  0.00    +0.202 A 
ATOM      7  C   UNL     1      35.063 -19.768 -19.882  0.00  0.00    +0.157 A 
ATOM      8  C   UNL     1      36.752 -20.946 -17.982  0.00  0.00    +0.279 A 
ATOM      9  C   UNL     1      33.282 -21.296 -18.747  0.00  0.00    +0.047 C 
ATOM     10  C   UNL     1      33.458 -22.170 -17.698  0.00  0.00    +0.180 C 
ATOM     11  H   UNL     1      33.310 -19.457 -20.821  0.00  0.00    +0.154 HD
ENDROOT
BRANCH   2  13
ATOM     12 CL   UNL     1      35.319 -15.131 -25.057  0.00  0.00    -0.082 Cl
ATOM     13  C   UNL     1      34.502 -18.197 -21.852  0.00  0.00    +0.049 C 
ATOM     14  C   UNL     1      35.051 -16.961 -21.510  0.00  0.00    +0.016 C 
ATOM     15  C   UNL     1      34.207 -18.485 -23.184  0.00  0.00    +0.016 C 
ATOM     16  C   UNL     1      35.304 -16.013 -22.501  0.00  0.00    +0.013 C 
ATOM     17  C   UNL     1      34.460 -17.537 -24.175  0.00  0.00    +0.013 C 
ATOM     18  C   UNL     1      35.008 -16.302 -23.833  0.00  0.00    +0.058 C 
ENDBRANCH   2  13
BRANCH   8  19
ATOM     19  O   UNL     1      37.612 -21.497 -17.068  0.00  0.00    -0.452 OA
BRANCH  19  20
ATOM     20  C   UNL     1      37.486 -21.054 -15.722  0.00  0.00    +0.234 C 
BRANCH  20  22
ATOM     21  N   UNL     1      36.912 -24.456 -13.180  0.00  0.00    -0.239 NA
ATOM     22  C   UNL     1      37.284 -22.245 -14.831  0.00  0.00    +0.024 C 
ATOM     23  C   UNL     1      36.058 -22.449 -14.221  0.00  0.00    +0.023 C 
ATOM     24  C   UNL     1      38.328 -23.134 -14.625  0.00  0.00    +0.020 C 
ATOM     25  C   UNL     1      35.923 -23.564 -13.410  0.00  0.00    +0.134 C 
ATOM     26  C   UNL     1      38.092 -24.218 -13.795  0.00  0.00    +0.099 C 
BRANCH  25  29
ATOM     27  O   UNL     1      34.600 -23.875 -11.498  0.00  0.00    -0.268 OA
ATOM     28  N   UNL     1      33.538 -24.023 -13.554  0.00  0.00    -0.298 N 
ATOM     29  C   UNL     1      34.663 -23.835 -12.741  0.00  0.00    +0.264 C 
ATOM     30  C   UNL     1      32.212 -24.277 -13.039  0.00  0.00    +0.111 C 
ATOM     31  H   UNL     1      33.657 -23.977 -14.530  0.00  0.00    +0.150 HD
ENDBRANCH  25  29
ENDBRANCH  20  22
ENDBRANCH  19  20
ENDBRANCH   8  19
TORSDOF 5
ENDMDL
