MODEL 1
REMARK VINA RESULT:     -11.9      0.000      0.000
REMARK  Name = 2765355
REMARK  2 active torsions:
REMARK  status: ('A' for Active; 'I' for Inactive)
REMARK    1  A    between atoms: C_4  and  C_20
REMARK    2  A    between atoms: C_6  and  C_13
REMARK                            x       y       z     vdW  Elec       q    Type
REMARK                         _______ _______ _______ _____ _____    ______ ____
ROOT
ATOM      1  O   UNL     1      31.842 -22.029 -17.237  0.00  0.00    -0.353 OA
ATOM      2  N   UNL     1      31.395 -22.742 -16.133  0.00  0.00    -0.077 NA
ATOM      3  C   UNL     1      33.639 -22.455 -16.033  0.00  0.00    +0.058 A 
ATOM      4  C   UNL     1      33.189 -21.860 -17.172  0.00  0.00    +0.177 A 
ATOM      5  C   UNL     1      32.480 -23.011 -15.384  0.00  0.00    +0.123 A 
ATOM      6  C   UNL     1      35.052 -23.201 -14.377  0.00  0.00    +0.031 C 
ATOM      7  C   UNL     1      34.955 -22.505 -15.599  0.00  0.00    +0.007 C 
ATOM      8  C   UNL     1      32.602 -23.702 -14.166  0.00  0.00    +0.023 C 
ATOM      9  C   UNL     1      33.932 -23.772 -13.692  0.00  0.00    +0.004 C 
ENDROOT
BRANCH   6  13
ATOM     10  N   UNL     1      37.304 -23.864 -14.591  0.00  0.00    -0.338 NA
ATOM     11  N   UNL     1      38.872 -23.676 -12.771  0.00  0.00    -0.170 NA
ATOM     12  N   UNL     1      39.537 -24.538 -14.850  0.00  0.00    -0.293 N 
ATOM     13  C   UNL     1      36.364 -23.348 -13.777  0.00  0.00    +0.146 C 
ATOM     14  C   UNL     1      36.589 -22.976 -12.471  0.00  0.00    +0.055 C 
ATOM     15  C   UNL     1      37.878 -23.165 -12.015  0.00  0.00    +0.114 C 
ATOM     16  C   UNL     1      38.520 -23.999 -14.030  0.00  0.00    +0.141 C 
ATOM     17  H   UNL     1      39.336 -24.791 -15.780  0.00  0.00    +0.155 HD
ATOM     18  H   UNL     1      40.445 -24.658 -14.492  0.00  0.00    +0.155 HD
ENDBRANCH   6  13
BRANCH   4  20
ATOM     19 CL   UNL     1      35.607 -18.847 -21.701  0.00  0.00    -0.082 Cl
ATOM     20  C   UNL     1      33.772 -21.135 -18.265  0.00  0.00    +0.037 C 
ATOM     21  C   UNL     1      35.153 -21.176 -18.481  0.00  0.00    +0.004 C 
ATOM     22  C   UNL     1      32.964 -20.379 -19.120  0.00  0.00    +0.004 C 
ATOM     23  C   UNL     1      35.720 -20.470 -19.543  0.00  0.00    +0.011 C 
ATOM     24  C   UNL     1      33.531 -19.674 -20.181  0.00  0.00    +0.011 C 
ATOM     25  C   UNL     1      34.908 -19.718 -20.392  0.00  0.00    +0.058 C 
ENDBRANCH   4  20
TORSDOF 2
ENDMDL
MODEL 2
REMARK VINA RESULT:     -11.7      2.033      5.261
REMARK  Name = 2765355
REMARK  2 active torsions:
REMARK  status: ('A' for Active; 'I' for Inactive)
REMARK    1  A    between atoms: C_4  and  C_20
REMARK    2  A    between atoms: C_6  and  C_13
REMARK                            x       y       z     vdW  Elec       q    Type
REMARK                         _______ _______ _______ _____ _____    ______ ____
ROOT
ATOM      1  O   UNL     1      36.552 -21.989 -16.525  0.00  0.00    -0.353 OA
ATOM      2  N   UNL     1      36.567 -22.724 -15.347  0.00  0.00    -0.077 NA
ATOM      3  C   UNL     1      34.444 -22.469 -16.091  0.00  0.00    +0.058 A 
ATOM      4  C   UNL     1      35.276 -21.839 -16.966  0.00  0.00    +0.177 A 
ATOM      5  C   UNL     1      35.287 -23.028 -15.066  0.00  0.00    +0.123 A 
ATOM      6  C   UNL     1      32.531 -23.279 -15.104  0.00  0.00    +0.031 C 
ATOM      7  C   UNL     1      33.063 -22.549 -16.184  0.00  0.00    +0.007 C 
ATOM      8  C   UNL     1      34.732 -23.753 -13.997  0.00  0.00    +0.023 C 
ATOM      9  C   UNL     1      33.324 -23.854 -14.060  0.00  0.00    +0.004 C 
ENDROOT
BRANCH   6  13
ATOM     10  N   UNL     1      30.385 -22.638 -15.841  0.00  0.00    -0.338 NA
ATOM     11  N   UNL     1      28.381 -23.699 -15.025  0.00  0.00    -0.170 NA
ATOM     12  N   UNL     1      28.270 -21.965 -16.604  0.00  0.00    -0.293 N 
ATOM     13  C   UNL     1      31.093 -23.461 -15.044  0.00  0.00    +0.146 C 
ATOM     14  C   UNL     1      30.534 -24.413 -14.222  0.00  0.00    +0.055 C 
ATOM     15  C   UNL     1      29.156 -24.488 -14.253  0.00  0.00    +0.114 C 
ATOM     16  C   UNL     1      29.051 -22.809 -15.782  0.00  0.00    +0.141 C 
ATOM     17  H   UNL     1      28.708 -21.296 -17.179  0.00  0.00    +0.155 HD
ATOM     18  H   UNL     1      27.290 -22.047 -16.601  0.00  0.00    +0.155 HD
ENDBRANCH   6  13
BRANCH   4  20
ATOM     19 CL   UNL     1      34.663 -18.733 -22.008  0.00  0.00    -0.082 Cl
ATOM     20  C   UNL     1      35.129 -21.091 -18.182  0.00  0.00    +0.037 C 
ATOM     21  C   UNL     1      36.256 -20.612 -18.856  0.00  0.00    +0.004 C 
ATOM     22  C   UNL     1      33.856 -20.833 -18.701  0.00  0.00    +0.004 C 
ATOM     23  C   UNL     1      36.113 -19.885 -20.038  0.00  0.00    +0.011 C 
ATOM     24  C   UNL     1      33.713 -20.106 -19.883  0.00  0.00    +0.011 C 
ATOM     25  C   UNL     1      34.840 -19.631 -20.551  0.00  0.00    +0.058 C 
ENDBRANCH   4  20
TORSDOF 2
ENDMDL
MODEL 3
REMARK VINA RESULT:     -11.0      3.523      6.549
REMARK  Name = 2765355
REMARK  2 active torsions:
REMARK  status: ('A' for Active; 'I' for Inactive)
REMARK    1  A    between atoms: C_4  and  C_20
REMARK    2  A    between atoms: C_6  and  C_13
REMARK                            x       y       z     vdW  Elec       q    Type
REMARK                         _______ _______ _______ _____ _____    ______ ____
ROOT
ATOM      1  O   UNL     1      33.834 -24.419 -13.522  0.00  0.00    -0.353 OA
ATOM      2  N   UNL     1      32.536 -24.045 -13.844  0.00  0.00    -0.077 NA
ATOM      3  C   UNL     1      34.002 -23.173 -15.332  0.00  0.00    +0.058 A 
ATOM      4  C   UNL     1      34.709 -23.893 -14.418  0.00  0.00    +0.177 A 
ATOM      5  C   UNL     1      32.618 -23.283 -14.949  0.00  0.00    +0.123 A 
ATOM      6  C   UNL     1      33.502 -21.851 -17.147  0.00  0.00    +0.031 C 
ATOM      7  C   UNL     1      34.526 -22.479 -16.413  0.00  0.00    +0.007 C 
ATOM      8  C   UNL     1      31.614 -22.645 -15.698  0.00  0.00    +0.023 C 
ATOM      9  C   UNL     1      32.113 -21.928 -16.809  0.00  0.00    +0.004 C 
ENDROOT
BRANCH   6  13
ATOM     10  N   UNL     1      35.201 -20.966 -18.521  0.00  0.00    -0.338 NA
ATOM     11  N   UNL     1      34.709 -19.651 -20.480  0.00  0.00    -0.170 NA
ATOM     12  N   UNL     1      36.926 -20.105 -19.859  0.00  0.00    -0.293 N 
ATOM     13  C   UNL     1      33.875 -21.078 -18.317  0.00  0.00    +0.146 C 
ATOM     14  C   UNL     1      32.915 -20.518 -19.129  0.00  0.00    +0.055 C 
ATOM     15  C   UNL     1      33.396 -19.806 -20.210  0.00  0.00    +0.114 C 
ATOM     16  C   UNL     1      35.543 -20.247 -19.607  0.00  0.00    +0.141 C 
ATOM     17  H   UNL     1      37.582 -20.521 -19.254  0.00  0.00    +0.155 HD
ATOM     18  H   UNL     1      37.233 -19.590 -20.639  0.00  0.00    +0.155 HD
ENDBRANCH   6  13
BRANCH   4  20
ATOM     19 CL   UNL     1      40.438 -25.209 -13.475  0.00  0.00    -0.082 Cl
ATOM     20  C   UNL     1      36.090 -24.210 -14.189  0.00  0.00    +0.037 C 
ATOM     21  C   UNL     1      36.941 -23.269 -13.603  0.00  0.00    +0.004 C 
ATOM     22  C   UNL     1      36.595 -25.462 -14.553  0.00  0.00    +0.004 C 
ATOM     23  C   UNL     1      38.284 -23.577 -13.381  0.00  0.00    +0.011 C 
ATOM     24  C   UNL     1      37.937 -25.771 -14.332  0.00  0.00    +0.011 C 
ATOM     25  C   UNL     1      38.782 -24.828 -13.747  0.00  0.00    +0.058 C 
ENDBRANCH   4  20
TORSDOF 2
ENDMDL
MODEL 4
REMARK VINA RESULT:     -10.5      2.148      4.874
REMARK  Name = 2765355
REMARK  2 active torsions:
REMARK  status: ('A' for Active; 'I' for Inactive)
REMARK    1  A    between atoms: C_4  and  C_20
REMARK    2  A    between atoms: C_6  and  C_13
REMARK                            x       y       z     vdW  Elec       q    Type
REMARK                         _______ _______ _______ _____ _____    ______ ____
ROOT
ATOM      1  O   UNL     1      37.457 -21.230 -17.207  0.00  0.00    -0.353 OA
ATOM      2  N   UNL     1      37.680 -21.898 -16.010  0.00  0.00    -0.077 NA
ATOM      3  C   UNL     1      35.466 -21.837 -16.481  0.00  0.00    +0.058 A 
ATOM      4  C   UNL     1      36.128 -21.196 -17.484  0.00  0.00    +0.177 A 
ATOM      5  C   UNL     1      36.474 -22.278 -15.552  0.00  0.00    +0.123 A 
ATOM      6  C   UNL     1      33.762 -22.729 -15.219  0.00  0.00    +0.031 C 
ATOM      7  C   UNL     1      34.095 -22.021 -16.390  0.00  0.00    +0.007 C 
ATOM      8  C   UNL     1      36.117 -22.982 -14.389  0.00  0.00    +0.023 C 
ATOM      9  C   UNL     1      34.724 -23.188 -14.263  0.00  0.00    +0.004 C 
ENDROOT
BRANCH   6  13
ATOM     10  N   UNL     1      32.106 -23.570 -13.767  0.00  0.00    -0.338 NA
ATOM     11  N   UNL     1      29.771 -23.589 -14.362  0.00  0.00    -0.170 NA
ATOM     12  N   UNL     1      30.493 -24.419 -12.289  0.00  0.00    -0.293 N 
ATOM     13  C   UNL     1      32.362 -23.010 -14.964  0.00  0.00    +0.146 C 
ATOM     14  C   UNL     1      31.400 -22.711 -15.902  0.00  0.00    +0.055 C 
ATOM     15  C   UNL     1      30.105 -23.027 -15.542  0.00  0.00    +0.114 C 
ATOM     16  C   UNL     1      30.806 -23.830 -13.534  0.00  0.00    +0.141 C 
ATOM     17  H   UNL     1      31.211 -24.617 -11.644  0.00  0.00    +0.155 HD
ATOM     18  H   UNL     1      29.558 -24.630 -12.066  0.00  0.00    +0.155 HD
ENDBRANCH   6  13
BRANCH   4  20
ATOM     19 CL   UNL     1      34.645 -18.425 -22.540  0.00  0.00    -0.082 Cl
ATOM     20  C   UNL     1      35.770 -20.527 -18.703  0.00  0.00    +0.037 C 
ATOM     21  C   UNL     1      34.440 -20.513 -19.134  0.00  0.00    +0.004 C 
ATOM     22  C   UNL     1      36.749 -19.886 -19.468  0.00  0.00    +0.004 C 
ATOM     23  C   UNL     1      34.092 -19.863 -20.319  0.00  0.00    +0.011 C 
ATOM     24  C   UNL     1      36.402 -19.237 -20.653  0.00  0.00    +0.011 C 
ATOM     25  C   UNL     1      35.074 -19.226 -21.079  0.00  0.00    +0.058 C 
ENDBRANCH   4  20
TORSDOF 2
ENDMDL
MODEL 5
REMARK VINA RESULT:     -10.4     10.856     13.556
REMARK  Name = 2765355
REMARK  2 active torsions:
REMARK  status: ('A' for Active; 'I' for Inactive)
REMARK    1  A    between atoms: C_4  and  C_20
REMARK    2  A    between atoms: C_6  and  C_13
REMARK                            x       y       z     vdW  Elec       q    Type
REMARK                         _______ _______ _______ _____ _____    ______ ____
ROOT
ATOM      1  O   UNL     1      31.699  -8.947 -20.103  0.00  0.00    -0.353 OA
ATOM      2  N   UNL     1      31.527 -10.060 -19.291  0.00  0.00    -0.077 NA
ATOM      3  C   UNL     1      32.498 -10.654 -21.248  0.00  0.00    +0.058 A 
ATOM      4  C   UNL     1      32.282  -9.309 -21.276  0.00  0.00    +0.177 A 
ATOM      5  C   UNL     1      32.010 -11.113 -19.973  0.00  0.00    +0.123 A 
ATOM      6  C   UNL     1      33.141 -12.770 -21.882  0.00  0.00    +0.031 C 
ATOM      7  C   UNL     1      33.075 -11.413 -22.255  0.00  0.00    +0.007 C 
ATOM      8  C   UNL     1      32.086 -12.473 -19.625  0.00  0.00    +0.023 C 
ATOM      9  C   UNL     1      32.670 -13.278 -20.629  0.00  0.00    +0.004 C 
ENDROOT
BRANCH   6  13
ATOM     10  N   UNL     1      34.588 -14.587 -22.285  0.00  0.00    -0.338 NA
ATOM     11  N   UNL     1      34.879 -15.529 -24.483  0.00  0.00    -0.170 NA
ATOM     12  N   UNL     1      36.041 -16.396 -22.638  0.00  0.00    -0.293 N 
ATOM     13  C   UNL     1      33.720 -13.709 -22.823  0.00  0.00    +0.146 C 
ATOM     14  C   UNL     1      33.381 -13.673 -24.156  0.00  0.00    +0.055 C 
ATOM     15  C   UNL     1      34.000 -14.618 -24.950  0.00  0.00    +0.114 C 
ATOM     16  C   UNL     1      35.124 -15.457 -23.161  0.00  0.00    +0.141 C 
ATOM     17  H   UNL     1      36.257 -16.389 -21.677  0.00  0.00    +0.155 HD
ATOM     18  H   UNL     1      36.462 -17.055 -23.233  0.00  0.00    +0.155 HD
ENDBRANCH   6  13
BRANCH   4  20
ATOM     19 CL   UNL     1      33.238  -4.871 -25.126  0.00  0.00    -0.082 Cl
ATOM     20  C   UNL     1      32.513  -8.240 -22.205  0.00  0.00    +0.037 C 
ATOM     21  C   UNL     1      33.804  -7.978 -22.671  0.00  0.00    +0.004 C 
ATOM     22  C   UNL     1      31.447  -7.451 -22.650  0.00  0.00    +0.004 C 
ATOM     23  C   UNL     1      34.029  -6.938 -23.574  0.00  0.00    +0.011 C 
ATOM     24  C   UNL     1      31.671  -6.412 -23.552  0.00  0.00    +0.011 C 
ATOM     25  C   UNL     1      32.962  -6.154 -24.014  0.00  0.00    +0.058 C 
ENDBRANCH   4  20
TORSDOF 2
ENDMDL
MODEL 6
REMARK VINA RESULT:     -10.4      3.733      7.373
REMARK  Name = 2765355
REMARK  2 active torsions:
REMARK  status: ('A' for Active; 'I' for Inactive)
REMARK    1  A    between atoms: C_4  and  C_20
REMARK    2  A    between atoms: C_6  and  C_13
REMARK                            x       y       z     vdW  Elec       q    Type
REMARK                         _______ _______ _______ _____ _____    ______ ____
ROOT
ATOM      1  O   UNL     1      36.449 -22.118 -16.642  0.00  0.00    -0.353 OA
ATOM      2  N   UNL     1      35.790 -21.479 -17.684  0.00  0.00    -0.077 NA
ATOM      3  C   UNL     1      34.298 -22.404 -16.255  0.00  0.00    +0.058 A 
ATOM      4  C   UNL     1      35.549 -22.671 -15.788  0.00  0.00    +0.177 A 
ATOM      5  C   UNL     1      34.473 -21.642 -17.464  0.00  0.00    +0.123 A 
ATOM      6  C   UNL     1      32.004 -22.341 -16.425  0.00  0.00    +0.031 C 
ATOM      7  C   UNL     1      33.103 -22.794 -15.669  0.00  0.00    +0.007 C 
ATOM      8  C   UNL     1      33.361 -21.202 -18.202  0.00  0.00    +0.023 C 
ATOM      9  C   UNL     1      32.124 -21.582 -17.633  0.00  0.00    +0.004 C 
ENDROOT
BRANCH   6  13
ATOM     10  N   UNL     1      29.680 -21.966 -16.541  0.00  0.00    -0.338 NA
ATOM     11  N   UNL     1      28.118 -23.170 -15.155  0.00  0.00    -0.170 NA
ATOM     12  N   UNL     1      27.373 -21.559 -16.690  0.00  0.00    -0.293 N 
ATOM     13  C   UNL     1      30.671 -22.662 -15.953  0.00  0.00    +0.146 C 
ATOM     14  C   UNL     1      30.477 -23.612 -14.976  0.00  0.00    +0.055 C 
ATOM     15  C   UNL     1      29.164 -23.827 -14.611  0.00  0.00    +0.114 C 
ATOM     16  C   UNL     1      28.444 -22.267 -16.099  0.00  0.00    +0.141 C 
ATOM     17  H   UNL     1      27.553 -20.887 -17.387  0.00  0.00    +0.155 HD
ATOM     18  H   UNL     1      26.449 -21.739 -16.406  0.00  0.00    +0.155 HD
ENDBRANCH   6  13
BRANCH   4  20
ATOM     19 CL   UNL     1      37.879 -25.546 -11.125  0.00  0.00    -0.082 Cl
ATOM     20  C   UNL     1      36.112 -23.364 -14.665  0.00  0.00    +0.037 C 
ATOM     21  C   UNL     1      36.419 -24.725 -14.758  0.00  0.00    +0.004 C 
ATOM     22  C   UNL     1      36.354 -22.684 -13.467  0.00  0.00    +0.004 C 
ATOM     23  C   UNL     1      36.966 -25.399 -13.665  0.00  0.00    +0.011 C 
ATOM     24  C   UNL     1      36.901 -23.358 -12.375  0.00  0.00    +0.011 C 
ATOM     25  C   UNL     1      37.206 -24.715 -12.473  0.00  0.00    +0.058 C 
ENDBRANCH   4  20
TORSDOF 2
ENDMDL
MODEL 7
REMARK VINA RESULT:     -10.3     10.957     13.589
REMARK  Name = 2765355
REMARK  2 active torsions:
REMARK  status: ('A' for Active; 'I' for Inactive)
REMARK    1  A    between atoms: C_4  and  C_20
REMARK    2  A    between atoms: C_6  and  C_13
REMARK                            x       y       z     vdW  Elec       q    Type
REMARK                         _______ _______ _______ _____ _____    ______ ____
ROOT
ATOM      1  O   UNL     1      31.539  -8.780 -19.974  0.00  0.00    -0.353 OA
ATOM      2  N   UNL     1      31.327  -9.842 -19.105  0.00  0.00    -0.077 NA
ATOM      3  C   UNL     1      32.439 -10.541 -20.949  0.00  0.00    +0.058 A 
ATOM      4  C   UNL     1      32.206  -9.205 -21.079  0.00  0.00    +0.177 A 
ATOM      5  C   UNL     1      31.872 -10.928 -19.684  0.00  0.00    +0.123 A 
ATOM      6  C   UNL     1      33.156 -12.680 -21.400  0.00  0.00    +0.031 C 
ATOM      7  C   UNL     1      33.096 -11.351 -21.864  0.00  0.00    +0.007 C 
ATOM      8  C   UNL     1      31.943 -12.261 -19.244  0.00  0.00    +0.023 C 
ATOM      9  C   UNL     1      32.607 -13.117 -20.152  0.00  0.00    +0.004 C 
ENDROOT
BRANCH   6  13
ATOM     10  N   UNL     1      33.406 -13.680 -23.520  0.00  0.00    -0.338 NA
ATOM     11  N   UNL     1      34.967 -15.474 -23.914  0.00  0.00    -0.170 NA
ATOM     12  N   UNL     1      33.619 -14.646 -25.648  0.00  0.00    -0.293 N 
ATOM     13  C   UNL     1      33.812 -13.666 -22.237  0.00  0.00    +0.146 C 
ATOM     14  C   UNL     1      34.772 -14.506 -21.719  0.00  0.00    +0.055 C 
ATOM     15  C   UNL     1      35.322 -15.400 -22.615  0.00  0.00    +0.114 C 
ATOM     16  C   UNL     1      34.017 -14.597 -24.293  0.00  0.00    +0.141 C 
ATOM     17  H   UNL     1      32.928 -14.028 -25.981  0.00  0.00    +0.155 HD
ATOM     18  H   UNL     1      34.033 -15.297 -26.259  0.00  0.00    +0.155 HD
ENDBRANCH   6  13
BRANCH   4  20
ATOM     19 CL   UNL     1      33.361  -5.003 -25.134  0.00  0.00    -0.082 Cl
ATOM     20  C   UNL     1      32.485  -8.193 -22.057  0.00  0.00    +0.037 C 
ATOM     21  C   UNL     1      33.792  -7.990 -22.508  0.00  0.00    +0.004 C 
ATOM     22  C   UNL     1      31.451  -7.401 -22.565  0.00  0.00    +0.004 C 
ATOM     23  C   UNL     1      34.063  -7.005 -23.460  0.00  0.00    +0.011 C 
ATOM     24  C   UNL     1      31.721  -6.417 -23.516  0.00  0.00    +0.011 C 
ATOM     25  C   UNL     1      33.027  -6.218 -23.962  0.00  0.00    +0.058 C 
ENDBRANCH   4  20
TORSDOF 2
ENDMDL
MODEL 8
REMARK VINA RESULT:     -10.3      3.620      6.871
REMARK  Name = 2765355
REMARK  2 active torsions:
REMARK  status: ('A' for Active; 'I' for Inactive)
REMARK    1  A    between atoms: C_4  and  C_20
REMARK    2  A    between atoms: C_6  and  C_13
REMARK                            x       y       z     vdW  Elec       q    Type
REMARK                         _______ _______ _______ _____ _____    ______ ____
ROOT
ATOM      1  O   UNL     1      35.447 -23.558 -13.538  0.00  0.00    -0.353 OA
ATOM      2  N   UNL     1      36.750 -23.161 -13.807  0.00  0.00    -0.077 NA
ATOM      3  C   UNL     1      35.357 -22.467 -15.451  0.00  0.00    +0.058 A 
ATOM      4  C   UNL     1      34.615 -23.139 -14.527  0.00  0.00    +0.177 A 
ATOM      5  C   UNL     1      36.715 -22.491 -14.973  0.00  0.00    +0.123 A 
ATOM      6  C   UNL     1      35.930 -21.269 -17.330  0.00  0.00    +0.031 C 
ATOM      7  C   UNL     1      34.881 -21.880 -16.614  0.00  0.00    +0.007 C 
ATOM      8  C   UNL     1      37.744 -21.876 -15.706  0.00  0.00    +0.023 C 
ATOM      9  C   UNL     1      37.295 -21.266 -16.900  0.00  0.00    +0.004 C 
ENDROOT
BRANCH   6  13
ATOM     10  N   UNL     1      34.297 -20.565 -18.877  0.00  0.00    -0.338 NA
ATOM     11  N   UNL     1      34.871 -19.383 -20.897  0.00  0.00    -0.170 NA
ATOM     12  N   UNL     1      32.635 -19.884 -20.389  0.00  0.00    -0.293 N 
ATOM     13  C   UNL     1      35.609 -20.604 -18.578  0.00  0.00    +0.146 C 
ATOM     14  C   UNL     1      36.600 -20.067 -19.368  0.00  0.00    +0.055 C 
ATOM     15  C   UNL     1      36.167 -19.461 -20.531  0.00  0.00    +0.114 C 
ATOM     16  C   UNL     1      34.002 -19.947 -20.037  0.00  0.00    +0.141 C 
ATOM     17  H   UNL     1      31.956 -20.281 -19.796  0.00  0.00    +0.155 HD
ATOM     18  H   UNL     1      32.363 -19.444 -21.225  0.00  0.00    +0.155 HD
ENDBRANCH   6  13
BRANCH   4  20
ATOM     19 CL   UNL     1      28.886 -24.604 -13.845  0.00  0.00    -0.082 Cl
ATOM     20  C   UNL     1      33.234 -23.491 -14.362  0.00  0.00    +0.037 C 
ATOM     21  C   UNL     1      32.817 -24.192 -13.227  0.00  0.00    +0.004 C 
ATOM     22  C   UNL     1      32.296 -23.138 -15.336  0.00  0.00    +0.004 C 
ATOM     23  C   UNL     1      31.474 -24.535 -13.066  0.00  0.00    +0.011 C 
ATOM     24  C   UNL     1      30.953 -23.481 -15.176  0.00  0.00    +0.011 C 
ATOM     25  C   UNL     1      30.542 -24.180 -14.042  0.00  0.00    +0.058 C 
ENDBRANCH   4  20
TORSDOF 2
ENDMDL
MODEL 9
REMARK VINA RESULT:     -10.2      8.118     11.565
REMARK  Name = 2765355
REMARK  2 active torsions:
REMARK  status: ('A' for Active; 'I' for Inactive)
REMARK    1  A    between atoms: C_4  and  C_20
REMARK    2  A    between atoms: C_6  and  C_13
REMARK                            x       y       z     vdW  Elec       q    Type
REMARK                         _______ _______ _______ _____ _____    ______ ____
ROOT
ATOM      1  O   UNL     1      35.219 -16.858 -24.482  0.00  0.00    -0.353 OA
ATOM      2  N   UNL     1      34.801 -15.873 -25.367  0.00  0.00    -0.077 NA
ATOM      3  C   UNL     1      34.375 -15.250 -23.233  0.00  0.00    +0.058 A 
ATOM      4  C   UNL     1      34.961 -16.479 -23.204  0.00  0.00    +0.177 A 
ATOM      5  C   UNL     1      34.283 -14.881 -24.621  0.00  0.00    +0.123 A 
ATOM      6  C   UNL     1      33.398 -13.287 -22.538  0.00  0.00    +0.031 C 
ATOM      7  C   UNL     1      33.958 -14.514 -22.134  0.00  0.00    +0.007 C 
ATOM      8  C   UNL     1      33.718 -13.651 -25.000  0.00  0.00    +0.023 C 
ATOM      9  C   UNL     1      33.281 -12.873 -23.904  0.00  0.00    +0.004 C 
ENDROOT
BRANCH   6  13
ATOM     10  N   UNL     1      32.755 -11.109 -21.904  0.00  0.00    -0.338 NA
ATOM     11  N   UNL     1      31.994 -10.597 -19.675  0.00  0.00    -0.170 NA
ATOM     12  N   UNL     1      32.125  -8.925 -21.317  0.00  0.00    -0.293 N 
ATOM     13  C   UNL     1      32.908 -12.388 -21.511  0.00  0.00    +0.146 C 
ATOM     14  C   UNL     1      32.632 -12.847 -20.243  0.00  0.00    +0.055 C 
ATOM     15  C   UNL     1      32.173 -11.895 -19.355  0.00  0.00    +0.114 C 
ATOM     16  C   UNL     1      32.300 -10.278 -20.947  0.00  0.00    +0.141 C 
ATOM     17  H   UNL     1      32.333  -8.636 -22.236  0.00  0.00    +0.155 HD
ATOM     18  H   UNL     1      31.795  -8.274 -20.658  0.00  0.00    +0.155 HD
ENDBRANCH   6  13
BRANCH   4  20
ATOM     19 CL   UNL     1      36.570 -20.387 -19.011  0.00  0.00    -0.082 Cl
ATOM     20  C   UNL     1      35.349 -17.421 -22.192  0.00  0.00    +0.037 C 
ATOM     21  C   UNL     1      36.611 -17.335 -21.597  0.00  0.00    +0.004 C 
ATOM     22  C   UNL     1      34.468 -18.431 -21.795  0.00  0.00    +0.004 C 
ATOM     23  C   UNL     1      36.988 -18.251 -20.614  0.00  0.00    +0.011 C 
ATOM     24  C   UNL     1      34.845 -19.347 -20.813  0.00  0.00    +0.011 C 
ATOM     25  C   UNL     1      36.105 -19.257 -20.222  0.00  0.00    +0.058 C 
ENDBRANCH   4  20
TORSDOF 2
ENDMDL
