MODEL 1
REMARK VINA RESULT:     -11.5      0.000      0.000
REMARK  Name = 5289179
REMARK  4 active torsions:
REMARK  status: ('A' for Active; 'I' for Inactive)
REMARK    1  A    between atoms: C_3  and  C_14
REMARK    2  A    between atoms: C_6  and  C_22
REMARK    3  A    between atoms: C_14  and  C_15
REMARK    4  A    between atoms: C_22  and  C_25
REMARK                            x       y       z     vdW  Elec       q    Type
REMARK                         _______ _______ _______ _____ _____    ______ ____
ROOT
ATOM      1  N   UNL     1      34.782 -22.603 -15.184  0.00  0.00    -0.249 N 
ATOM      2  N   UNL     1      33.486 -22.843 -13.377  0.00  0.00    -0.375 NA
ATOM      3  C   UNL     1      35.629 -22.722 -14.112  0.00  0.00    +0.208 C 
ATOM      4  C   UNL     1      33.485 -22.683 -14.685  0.00  0.00    +0.189 C 
ATOM      5  C   UNL     1      35.082 -22.433 -16.534  0.00  0.00    +0.071 C 
ATOM      6  C   UNL     1      34.069 -22.341 -17.413  0.00  0.00    +0.054 C 
ATOM      7  C   UNL     1      34.810 -22.867 -13.017  0.00  0.00    +0.182 C 
ATOM      8  C   UNL     1      32.420 -22.584 -15.627  0.00  0.00    +0.048 C 
ATOM      9  C   UNL     1      32.696 -22.419 -16.936  0.00  0.00    +0.008 C 
ATOM     10  N   UNL     1      35.210 -23.019 -11.735  0.00  0.00    -0.335 N 
ATOM     11  H   UNL     1      34.541 -23.117 -11.020  0.00  0.00    +0.144 HD
ATOM     12  H   UNL     1      36.170 -23.034 -11.518  0.00  0.00    +0.144 HD
ENDROOT
BRANCH   3  14
ATOM     13  O   UNL     1      37.741 -21.664 -14.361  0.00  0.00    -0.289 OA
ATOM     14  C   UNL     1      37.058 -22.692 -14.169  0.00  0.00    +0.200 C 
BRANCH  14  15
ATOM     15  C   UNL     1      37.872 -23.937 -13.980  0.00  0.00    +0.037 C 
ATOM     16  C   UNL     1      39.186 -23.808 -13.608  0.00  0.00    +0.003 C 
ATOM     17  C   UNL     1      37.265 -25.151 -14.191  0.00  0.00    +0.003 C 
ATOM     18  C   UNL     1      39.943 -24.967 -13.433  0.00  0.00    +0.000 C 
ATOM     19  C   UNL     1      38.022 -26.310 -14.016  0.00  0.00    +0.000 C 
ATOM     20  C   UNL     1      39.361 -26.217 -13.637  0.00  0.00    +0.000 C 
ENDBRANCH  14  15
ENDBRANCH   3  14
BRANCH   6  22
ATOM     21  O   UNL     1      34.231 -23.087 -19.629  0.00  0.00    -0.286 OA
ATOM     22  C   UNL     1      34.376 -22.160 -18.831  0.00  0.00    +0.201 C 
BRANCH  22  25
ATOM     23  F   UNL     1      32.630 -20.284 -19.970  0.00  0.00    -0.204 F 
ATOM     24  F   UNL     1      37.063 -21.373 -18.654  0.00  0.00    -0.204 F 
ATOM     25  C   UNL     1      34.846 -20.832 -19.311  0.00  0.00    +0.094 C 
ATOM     26  C   UNL     1      33.927 -19.962 -19.861  0.00  0.00    +0.145 C 
ATOM     27  C   UNL     1      36.182 -20.517 -19.191  0.00  0.00    +0.145 C 
ATOM     28  C   UNL     1      34.368 -18.718 -20.311  0.00  0.00    +0.030 C 
ATOM     29  C   UNL     1      36.621 -19.272 -19.642  0.00  0.00    +0.030 C 
ATOM     30  C   UNL     1      35.714 -18.373 -20.202  0.00  0.00    +0.005 C 
ENDBRANCH  22  25
ENDBRANCH   6  22
TORSDOF 4
ENDMDL
MODEL 2
REMARK VINA RESULT:     -11.5      0.050      1.811
REMARK  Name = 5289179
REMARK  4 active torsions:
REMARK  status: ('A' for Active; 'I' for Inactive)
REMARK    1  A    between atoms: C_3  and  C_14
REMARK    2  A    between atoms: C_6  and  C_22
REMARK    3  A    between atoms: C_14  and  C_15
REMARK    4  A    between atoms: C_22  and  C_25
REMARK                            x       y       z     vdW  Elec       q    Type
REMARK                         _______ _______ _______ _____ _____    ______ ____
ROOT
ATOM      1  N   UNL     1      34.758 -22.609 -15.171  0.00  0.00    -0.249 N 
ATOM      2  N   UNL     1      33.484 -22.843 -13.348  0.00  0.00    -0.375 NA
ATOM      3  C   UNL     1      35.618 -22.724 -14.108  0.00  0.00    +0.208 C 
ATOM      4  C   UNL     1      33.467 -22.688 -14.657  0.00  0.00    +0.189 C 
ATOM      5  C   UNL     1      35.042 -22.445 -16.525  0.00  0.00    +0.071 C 
ATOM      6  C   UNL     1      34.019 -22.355 -17.392  0.00  0.00    +0.054 C 
ATOM      7  C   UNL     1      34.811 -22.866 -13.004  0.00  0.00    +0.182 C 
ATOM      8  C   UNL     1      32.391 -22.592 -15.586  0.00  0.00    +0.048 C 
ATOM      9  C   UNL     1      32.652 -22.432 -16.899  0.00  0.00    +0.008 C 
ATOM     10  N   UNL     1      35.226 -23.013 -11.726  0.00  0.00    -0.335 N 
ATOM     11  H   UNL     1      34.566 -23.108 -11.002  0.00  0.00    +0.144 HD
ATOM     12  H   UNL     1      36.189 -23.026 -11.519  0.00  0.00    +0.144 HD
ENDROOT
BRANCH   3  14
ATOM     13  O   UNL     1      37.727 -21.667 -14.384  0.00  0.00    -0.289 OA
ATOM     14  C   UNL     1      37.046 -22.695 -14.182  0.00  0.00    +0.200 C 
BRANCH  14  15
ATOM     15  C   UNL     1      37.862 -23.939 -13.999  0.00  0.00    +0.037 C 
ATOM     16  C   UNL     1      37.267 -25.152 -14.243  0.00  0.00    +0.003 C 
ATOM     17  C   UNL     1      39.167 -23.809 -13.594  0.00  0.00    +0.003 C 
ATOM     18  C   UNL     1      38.027 -26.309 -14.072  0.00  0.00    +0.000 C 
ATOM     19  C   UNL     1      39.927 -24.966 -13.423  0.00  0.00    +0.000 C 
ATOM     20  C   UNL     1      39.356 -26.217 -13.662  0.00  0.00    +0.000 C 
ENDBRANCH  14  15
ENDBRANCH   3  14
BRANCH   6  22
ATOM     21  O   UNL     1      34.141 -23.105 -19.610  0.00  0.00    -0.286 OA
ATOM     22  C   UNL     1      34.310 -22.180 -18.814  0.00  0.00    +0.201 C 
BRANCH  22  25
ATOM     23  F   UNL     1      37.010 -21.435 -18.679  0.00  0.00    -0.204 F 
ATOM     24  F   UNL     1      32.576 -20.277 -19.928  0.00  0.00    -0.204 F 
ATOM     25  C   UNL     1      34.792 -20.859 -19.302  0.00  0.00    +0.094 C 
ATOM     26  C   UNL     1      36.135 -20.564 -19.201  0.00  0.00    +0.145 C 
ATOM     27  C   UNL     1      33.879 -19.975 -19.837  0.00  0.00    +0.145 C 
ATOM     28  C   UNL     1      36.587 -19.326 -19.658  0.00  0.00    +0.030 C 
ATOM     29  C   UNL     1      34.332 -18.738 -20.293  0.00  0.00    +0.030 C 
ATOM     30  C   UNL     1      35.685 -18.413 -20.204  0.00  0.00    +0.005 C 
ENDBRANCH  22  25
ENDBRANCH   6  22
TORSDOF 4
ENDMDL
MODEL 3
REMARK VINA RESULT:     -11.3      5.920     10.691
REMARK  Name = 5289179
REMARK  4 active torsions:
REMARK  status: ('A' for Active; 'I' for Inactive)
REMARK    1  A    between atoms: C_3  and  C_14
REMARK    2  A    between atoms: C_6  and  C_22
REMARK    3  A    between atoms: C_14  and  C_15
REMARK    4  A    between atoms: C_22  and  C_25
REMARK                            x       y       z     vdW  Elec       q    Type
REMARK                         _______ _______ _______ _____ _____    ______ ____
ROOT
ATOM      1  N   UNL     1      34.547 -16.074 -23.282  0.00  0.00    -0.249 N 
ATOM      2  N   UNL     1      33.563 -16.080 -25.291  0.00  0.00    -0.375 NA
ATOM      3  C   UNL     1      34.213 -14.772 -23.554  0.00  0.00    +0.208 C 
ATOM      4  C   UNL     1      34.130 -16.835 -24.371  0.00  0.00    +0.189 C 
ATOM      5  C   UNL     1      35.178 -16.610 -22.162  0.00  0.00    +0.071 C 
ATOM      6  C   UNL     1      35.403 -17.934 -22.120  0.00  0.00    +0.054 C 
ATOM      7  C   UNL     1      33.612 -14.803 -24.791  0.00  0.00    +0.182 C 
ATOM      8  C   UNL     1      34.373 -18.238 -24.315  0.00  0.00    +0.048 C 
ATOM      9  C   UNL     1      34.984 -18.768 -23.237  0.00  0.00    +0.008 C 
ATOM     10  N   UNL     1      33.117 -13.741 -25.466  0.00  0.00    -0.335 N 
ATOM     11  H   UNL     1      32.703 -13.869 -26.349  0.00  0.00    +0.144 HD
ATOM     12  H   UNL     1      33.170 -12.840 -25.071  0.00  0.00    +0.144 HD
ENDROOT
BRANCH   3  14
ATOM     13  O   UNL     1      35.449 -12.892 -22.793  0.00  0.00    -0.289 OA
ATOM     14  C   UNL     1      34.460 -13.651 -22.702  0.00  0.00    +0.200 C 
BRANCH  14  15
ATOM     15  C   UNL     1      33.507 -13.280 -21.606  0.00  0.00    +0.037 C 
ATOM     16  C   UNL     1      32.703 -12.181 -21.783  0.00  0.00    +0.003 C 
ATOM     17  C   UNL     1      33.484 -14.055 -20.473  0.00  0.00    +0.003 C 
ATOM     18  C   UNL     1      31.817 -11.837 -20.762  0.00  0.00    +0.000 C 
ATOM     19  C   UNL     1      32.598 -13.710 -19.452  0.00  0.00    +0.000 C 
ATOM     20  C   UNL     1      31.765 -12.600 -19.597  0.00  0.00    +0.000 C 
ENDBRANCH  14  15
ENDBRANCH   3  14
BRANCH   6  22
ATOM     21  O   UNL     1      37.183 -18.109 -20.605  0.00  0.00    -0.286 OA
ATOM     22  C   UNL     1      36.067 -18.503 -20.948  0.00  0.00    +0.201 C 
BRANCH  22  25
ATOM     23  F   UNL     1      37.438 -20.676 -19.824  0.00  0.00    -0.204 F 
ATOM     24  F   UNL     1      33.303 -18.431 -20.478  0.00  0.00    -0.204 F 
ATOM     25  C   UNL     1      35.372 -19.551 -20.153  0.00  0.00    +0.094 C 
ATOM     26  C   UNL     1      36.113 -20.590 -19.632  0.00  0.00    +0.145 C 
ATOM     27  C   UNL     1      34.010 -19.447 -19.965  0.00  0.00    +0.145 C 
ATOM     28  C   UNL     1      35.461 -21.573 -18.887  0.00  0.00    +0.030 C 
ATOM     29  C   UNL     1      33.359 -20.430 -19.220  0.00  0.00    +0.030 C 
ATOM     30  C   UNL     1      34.084 -21.493 -18.681  0.00  0.00    +0.005 C 
ENDBRANCH  22  25
ENDBRANCH   6  22
TORSDOF 4
ENDMDL
MODEL 4
REMARK VINA RESULT:     -11.1      6.478      9.973
REMARK  Name = 5289179
REMARK  4 active torsions:
REMARK  status: ('A' for Active; 'I' for Inactive)
REMARK    1  A    between atoms: C_3  and  C_14
REMARK    2  A    between atoms: C_6  and  C_22
REMARK    3  A    between atoms: C_14  and  C_15
REMARK    4  A    between atoms: C_22  and  C_25
REMARK                            x       y       z     vdW  Elec       q    Type
REMARK                         _______ _______ _______ _____ _____    ______ ____
ROOT
ATOM      1  N   UNL     1      34.776 -16.395 -22.993  0.00  0.00    -0.249 N 
ATOM      2  N   UNL     1      34.219 -17.416 -24.903  0.00  0.00    -0.375 NA
ATOM      3  C   UNL     1      35.211 -17.690 -22.881  0.00  0.00    +0.208 C 
ATOM      4  C   UNL     1      34.178 -16.275 -24.244  0.00  0.00    +0.189 C 
ATOM      5  C   UNL     1      34.876 -15.345 -22.082  0.00  0.00    +0.071 C 
ATOM      6  C   UNL     1      34.369 -14.147 -22.419  0.00  0.00    +0.054 C 
ATOM      7  C   UNL     1      34.856 -18.295 -24.064  0.00  0.00    +0.182 C 
ATOM      8  C   UNL     1      33.644 -15.000 -24.590  0.00  0.00    +0.048 C 
ATOM      9  C   UNL     1      33.734 -13.977 -23.717  0.00  0.00    +0.008 C 
ATOM     10  N   UNL     1      35.086 -19.583 -24.403  0.00  0.00    -0.335 N 
ATOM     11  H   UNL     1      34.793 -19.921 -25.279  0.00  0.00    +0.144 HD
ATOM     12  H   UNL     1      35.549 -20.182 -23.773  0.00  0.00    +0.144 HD
ENDROOT
BRANCH   3  14
ATOM     13  O   UNL     1      37.083 -18.048 -21.463  0.00  0.00    -0.289 OA
ATOM     14  C   UNL     1      35.884 -18.251 -21.750  0.00  0.00    +0.200 C 
BRANCH  14  15
ATOM     15  C   UNL     1      35.168 -19.143 -20.781  0.00  0.00    +0.037 C 
ATOM     16  C   UNL     1      33.796 -19.124 -20.766  0.00  0.00    +0.003 C 
ATOM     17  C   UNL     1      35.919 -19.937 -19.949  0.00  0.00    +0.003 C 
ATOM     18  C   UNL     1      33.131 -19.954 -19.864  0.00  0.00    +0.000 C 
ATOM     19  C   UNL     1      35.254 -20.767 -19.046  0.00  0.00    +0.000 C 
ATOM     20  C   UNL     1      33.859 -20.775 -19.004  0.00  0.00    +0.000 C 
ENDBRANCH  14  15
ENDBRANCH   3  14
BRANCH   6  22
ATOM     21  O   UNL     1      35.493 -12.874 -20.804  0.00  0.00    -0.286 OA
ATOM     22  C   UNL     1      34.468 -13.043 -21.466  0.00  0.00    +0.201 C 
BRANCH  22  25
ATOM     23  F   UNL     1      34.215 -10.742 -23.049  0.00  0.00    -0.204 F 
ATOM     24  F   UNL     1      32.427 -13.460 -19.588  0.00  0.00    -0.204 F 
ATOM     25  C   UNL     1      33.324 -12.103 -21.318  0.00  0.00    +0.094 C 
ATOM     26  C   UNL     1      33.268 -10.992 -22.133  0.00  0.00    +0.145 C 
ATOM     27  C   UNL     1      32.359 -12.375 -20.372  0.00  0.00    +0.145 C 
ATOM     28  C   UNL     1      32.196 -10.110 -21.994  0.00  0.00    +0.030 C 
ATOM     29  C   UNL     1      31.287 -11.493 -20.234  0.00  0.00    +0.030 C 
ATOM     30  C   UNL     1      31.206 -10.361 -21.044  0.00  0.00    +0.005 C 
ENDBRANCH  22  25
ENDBRANCH   6  22
TORSDOF 4
ENDMDL
MODEL 5
REMARK VINA RESULT:     -11.1      2.784      7.719
REMARK  Name = 5289179
REMARK  4 active torsions:
REMARK  status: ('A' for Active; 'I' for Inactive)
REMARK    1  A    between atoms: C_3  and  C_14
REMARK    2  A    between atoms: C_6  and  C_22
REMARK    3  A    between atoms: C_14  and  C_15
REMARK    4  A    between atoms: C_22  and  C_25
REMARK                            x       y       z     vdW  Elec       q    Type
REMARK                         _______ _______ _______ _____ _____    ______ ____
ROOT
ATOM      1  N   UNL     1      35.105 -21.573 -17.516  0.00  0.00    -0.249 N 
ATOM      2  N   UNL     1      32.897 -21.597 -17.875  0.00  0.00    -0.375 NA
ATOM      3  C   UNL     1      34.900 -20.933 -18.711  0.00  0.00    +0.208 C 
ATOM      4  C   UNL     1      33.854 -21.960 -17.043  0.00  0.00    +0.189 C 
ATOM      5  C   UNL     1      36.297 -21.827 -16.841  0.00  0.00    +0.071 C 
ATOM      6  C   UNL     1      36.248 -22.480 -15.667  0.00  0.00    +0.054 C 
ATOM      7  C   UNL     1      33.539 -20.962 -18.908  0.00  0.00    +0.182 C 
ATOM      8  C   UNL     1      33.815 -22.652 -15.798  0.00  0.00    +0.048 C 
ATOM      9  C   UNL     1      34.961 -22.903 -15.136  0.00  0.00    +0.008 C 
ATOM     10  N   UNL     1      32.874 -20.444 -19.965  0.00  0.00    -0.335 N 
ATOM     11  H   UNL     1      31.894 -20.516 -20.012  0.00  0.00    +0.144 HD
ATOM     12  H   UNL     1      33.371 -19.994 -20.686  0.00  0.00    +0.144 HD
ENDROOT
BRANCH   3  14
ATOM     13  O   UNL     1      37.089 -20.801 -19.622  0.00  0.00    -0.289 OA
ATOM     14  C   UNL     1      35.918 -20.373 -19.544  0.00  0.00    +0.200 C 
BRANCH  14  15
ATOM     15  C   UNL     1      35.640 -19.197 -20.431  0.00  0.00    +0.037 C 
ATOM     16  C   UNL     1      35.187 -19.433 -21.705  0.00  0.00    +0.003 C 
ATOM     17  C   UNL     1      35.853 -17.937 -19.929  0.00  0.00    +0.003 C 
ATOM     18  C   UNL     1      34.929 -18.338 -22.530  0.00  0.00    +0.000 C 
ATOM     19  C   UNL     1      35.595 -16.842 -20.754  0.00  0.00    +0.000 C 
ATOM     20  C   UNL     1      35.133 -17.043 -22.055  0.00  0.00    +0.000 C 
ENDBRANCH  14  15
ENDBRANCH   3  14
BRANCH   6  22
ATOM     21  O   UNL     1      38.543 -22.191 -15.284  0.00  0.00    -0.286 OA
ATOM     22  C   UNL     1      37.496 -22.751 -14.955  0.00  0.00    +0.201 C 
BRANCH  22  25
ATOM     23  F   UNL     1      37.589 -21.864 -12.296  0.00  0.00    -0.204 F 
ATOM     24  F   UNL     1      37.386 -25.532 -15.308  0.00  0.00    -0.204 F 
ATOM     25  C   UNL     1      37.488 -23.695 -13.805  0.00  0.00    +0.094 C 
ATOM     26  C   UNL     1      37.537 -23.184 -12.525  0.00  0.00    +0.145 C 
ATOM     27  C   UNL     1      37.433 -25.050 -14.058  0.00  0.00    +0.145 C 
ATOM     28  C   UNL     1      37.530 -24.069 -11.447  0.00  0.00    +0.030 C 
ATOM     29  C   UNL     1      37.426 -25.934 -12.980  0.00  0.00    +0.030 C 
ATOM     30  C   UNL     1      37.475 -25.444 -11.674  0.00  0.00    +0.005 C 
ENDBRANCH  22  25
ENDBRANCH   6  22
TORSDOF 4
ENDMDL
MODEL 6
REMARK VINA RESULT:     -10.8     11.080     14.248
REMARK  Name = 5289179
REMARK  4 active torsions:
REMARK  status: ('A' for Active; 'I' for Inactive)
REMARK    1  A    between atoms: C_3  and  C_14
REMARK    2  A    between atoms: C_6  and  C_22
REMARK    3  A    between atoms: C_14  and  C_15
REMARK    4  A    between atoms: C_22  and  C_25
REMARK                            x       y       z     vdW  Elec       q    Type
REMARK                         _______ _______ _______ _____ _____    ______ ____
ROOT
ATOM      1  N   UNL     1      33.414 -12.701 -22.093  0.00  0.00    -0.249 N 
ATOM      2  N   UNL     1      34.495 -14.634 -21.783  0.00  0.00    -0.375 NA
ATOM      3  C   UNL     1      34.040 -12.990 -23.278  0.00  0.00    +0.208 C 
ATOM      4  C   UNL     1      33.721 -13.733 -21.211  0.00  0.00    +0.189 C 
ATOM      5  C   UNL     1      32.612 -11.612 -21.758  0.00  0.00    +0.071 C 
ATOM      6  C   UNL     1      32.102 -11.544 -20.516  0.00  0.00    +0.054 C 
ATOM      7  C   UNL     1      34.696 -14.178 -23.061  0.00  0.00    +0.182 C 
ATOM      8  C   UNL     1      33.174 -13.650 -19.897  0.00  0.00    +0.048 C 
ATOM      9  C   UNL     1      32.397 -12.602 -19.561  0.00  0.00    +0.008 C 
ATOM     10  N   UNL     1      35.450 -14.850 -23.959  0.00  0.00    -0.335 N 
ATOM     11  H   UNL     1      35.880 -15.698 -23.705  0.00  0.00    +0.144 HD
ATOM     12  H   UNL     1      35.569 -14.491 -24.869  0.00  0.00    +0.144 HD
ENDROOT
BRANCH   3  14
ATOM     13  O   UNL     1      33.475 -12.547 -25.543  0.00  0.00    -0.289 OA
ATOM     14  C   UNL     1      33.994 -12.190 -24.463  0.00  0.00    +0.200 C 
BRANCH  14  15
ATOM     15  C   UNL     1      34.572 -10.807 -24.494  0.00  0.00    +0.037 C 
ATOM     16  C   UNL     1      34.450 -10.024 -23.373  0.00  0.00    +0.003 C 
ATOM     17  C   UNL     1      35.196 -10.387 -25.642  0.00  0.00    +0.003 C 
ATOM     18  C   UNL     1      34.987  -8.737 -23.403  0.00  0.00    +0.000 C 
ATOM     19  C   UNL     1      35.734  -9.100 -25.672  0.00  0.00    +0.000 C 
ATOM     20  C   UNL     1      35.629  -8.275 -24.551  0.00  0.00    +0.000 C 
ENDBRANCH  14  15
ENDBRANCH   3  14
BRANCH   6  22
ATOM     21  O   UNL     1      30.102 -10.571 -19.774  0.00  0.00    -0.286 OA
ATOM     22  C   UNL     1      31.261 -10.403 -20.158  0.00  0.00    +0.201 C 
BRANCH  22  25
ATOM     23  F   UNL     1      31.046  -8.833 -22.472  0.00  0.00    -0.204 F 
ATOM     24  F   UNL     1      32.609  -9.217 -18.002  0.00  0.00    -0.204 F 
ATOM     25  C   UNL     1      31.826  -9.029 -20.237  0.00  0.00    +0.094 C 
ATOM     26  C   UNL     1      31.681  -8.317 -21.409  0.00  0.00    +0.145 C 
ATOM     27  C   UNL     1      32.476  -8.513 -19.135  0.00  0.00    +0.145 C 
ATOM     28  C   UNL     1      32.212  -7.029 -21.483  0.00  0.00    +0.030 C 
ATOM     29  C   UNL     1      33.006  -7.225 -19.211  0.00  0.00    +0.030 C 
ATOM     30  C   UNL     1      32.874  -6.483 -20.385  0.00  0.00    +0.005 C 
ENDBRANCH  22  25
ENDBRANCH   6  22
TORSDOF 4
ENDMDL
MODEL 7
REMARK VINA RESULT:     -10.3      2.780      5.772
REMARK  Name = 5289179
REMARK  4 active torsions:
REMARK  status: ('A' for Active; 'I' for Inactive)
REMARK    1  A    between atoms: C_3  and  C_14
REMARK    2  A    between atoms: C_6  and  C_22
REMARK    3  A    between atoms: C_14  and  C_15
REMARK    4  A    between atoms: C_22  and  C_25
REMARK                            x       y       z     vdW  Elec       q    Type
REMARK                         _______ _______ _______ _____ _____    ______ ____
ROOT
ATOM      1  N   UNL     1      32.710 -23.055 -15.332  0.00  0.00    -0.249 N 
ATOM      2  N   UNL     1      33.179 -22.884 -13.152  0.00  0.00    -0.375 NA
ATOM      3  C   UNL     1      31.610 -23.522 -14.661  0.00  0.00    +0.208 C 
ATOM      4  C   UNL     1      33.641 -22.676 -14.369  0.00  0.00    +0.189 C 
ATOM      5  C   UNL     1      32.931 -22.946 -16.704  0.00  0.00    +0.071 C 
ATOM      6  C   UNL     1      34.105 -22.451 -17.131  0.00  0.00    +0.054 C 
ATOM      7  C   UNL     1      31.923 -23.408 -13.327  0.00  0.00    +0.182 C 
ATOM      8  C   UNL     1      34.882 -22.152 -14.835  0.00  0.00    +0.048 C 
ATOM      9  C   UNL     1      35.108 -22.042 -16.158  0.00  0.00    +0.008 C 
ATOM     10  N   UNL     1      31.130 -23.751 -12.288  0.00  0.00    -0.335 N 
ATOM     11  H   UNL     1      31.447 -23.628 -11.365  0.00  0.00    +0.144 HD
ATOM     12  H   UNL     1      30.233 -24.122 -12.456  0.00  0.00    +0.144 HD
ENDROOT
BRANCH   3  14
ATOM     13  O   UNL     1      30.219 -25.210 -15.589  0.00  0.00    -0.289 OA
ATOM     14  C   UNL     1      30.412 -24.018 -15.265  0.00  0.00    +0.200 C 
BRANCH  14  15
ATOM     15  C   UNL     1      29.250 -23.114 -15.549  0.00  0.00    +0.037 C 
ATOM     16  C   UNL     1      28.878 -22.208 -14.588  0.00  0.00    +0.003 C 
ATOM     17  C   UNL     1      28.610 -23.236 -16.758  0.00  0.00    +0.003 C 
ATOM     18  C   UNL     1      27.797 -21.367 -14.853  0.00  0.00    +0.000 C 
ATOM     19  C   UNL     1      27.528 -22.396 -17.023  0.00  0.00    +0.000 C 
ATOM     20  C   UNL     1      27.122 -21.461 -16.069  0.00  0.00    +0.000 C 
ENDBRANCH  14  15
ENDBRANCH   3  14
BRANCH   6  22
ATOM     21  O   UNL     1      34.154 -23.298 -19.316  0.00  0.00    -0.286 OA
ATOM     22  C   UNL     1      34.344 -22.337 -18.569  0.00  0.00    +0.201 C 
BRANCH  22  25
ATOM     23  F   UNL     1      32.569 -20.543 -19.793  0.00  0.00    -0.204 F 
ATOM     24  F   UNL     1      37.026 -21.521 -18.473  0.00  0.00    -0.204 F 
ATOM     25  C   UNL     1      34.796 -21.036 -19.131  0.00  0.00    +0.094 C 
ATOM     26  C   UNL     1      33.864 -20.206 -19.719  0.00  0.00    +0.145 C 
ATOM     27  C   UNL     1      36.132 -20.704 -19.047  0.00  0.00    +0.145 C 
ATOM     28  C   UNL     1      34.289 -18.986 -20.246  0.00  0.00    +0.030 C 
ATOM     29  C   UNL     1      36.555 -19.484 -19.575  0.00  0.00    +0.030 C 
ATOM     30  C   UNL     1      35.634 -18.626 -20.175  0.00  0.00    +0.005 C 
ENDBRANCH  22  25
ENDBRANCH   6  22
TORSDOF 4
ENDMDL
MODEL 8
REMARK VINA RESULT:     -10.2     11.966     15.009
REMARK  Name = 5289179
REMARK  4 active torsions:
REMARK  status: ('A' for Active; 'I' for Inactive)
REMARK    1  A    between atoms: C_3  and  C_14
REMARK    2  A    between atoms: C_6  and  C_22
REMARK    3  A    between atoms: C_14  and  C_15
REMARK    4  A    between atoms: C_22  and  C_25
REMARK                            x       y       z     vdW  Elec       q    Type
REMARK                         _______ _______ _______ _____ _____    ______ ____
ROOT
ATOM      1  N   UNL     1      34.011 -11.443 -23.756  0.00  0.00    -0.249 N 
ATOM      2  N   UNL     1      33.879 -12.821 -25.513  0.00  0.00    -0.375 NA
ATOM      3  C   UNL     1      33.652 -12.670 -23.260  0.00  0.00    +0.208 C 
ATOM      4  C   UNL     1      34.138 -11.585 -25.135  0.00  0.00    +0.189 C 
ATOM      5  C   UNL     1      34.225 -10.243 -23.081  0.00  0.00    +0.071 C 
ATOM      6  C   UNL     1      34.574  -9.157 -23.791  0.00  0.00    +0.054 C 
ATOM      7  C   UNL     1      33.577 -13.496 -24.357  0.00  0.00    +0.182 C 
ATOM      8  C   UNL     1      34.509 -10.426 -25.877  0.00  0.00    +0.048 C 
ATOM      9  C   UNL     1      34.719  -9.260 -25.235  0.00  0.00    +0.008 C 
ATOM     10  N   UNL     1      33.256 -14.809 -24.348  0.00  0.00    -0.335 N 
ATOM     11  H   UNL     1      33.231 -15.316 -25.191  0.00  0.00    +0.144 HD
ATOM     12  H   UNL     1      33.048 -15.258 -23.496  0.00  0.00    +0.144 HD
ENDROOT
BRANCH   3  14
ATOM     13  O   UNL     1      33.921 -13.941 -21.272  0.00  0.00    -0.289 OA
ATOM     14  C   UNL     1      33.413 -12.977 -21.884  0.00  0.00    +0.200 C 
BRANCH  14  15
ATOM     15  C   UNL     1      32.515 -12.124 -21.040  0.00  0.00    +0.037 C 
ATOM     16  C   UNL     1      32.549 -12.288 -19.678  0.00  0.00    +0.003 C 
ATOM     17  C   UNL     1      31.696 -11.218 -21.668  0.00  0.00    +0.003 C 
ATOM     18  C   UNL     1      31.713 -11.495 -18.893  0.00  0.00    +0.000 C 
ATOM     19  C   UNL     1      30.860 -10.424 -20.883  0.00  0.00    +0.000 C 
ATOM     20  C   UNL     1      30.869 -10.563 -19.495  0.00  0.00    +0.000 C 
ENDBRANCH  14  15
ENDBRANCH   3  14
BRANCH   6  22
ATOM     21  O   UNL     1      35.938  -7.535 -22.788  0.00  0.00    -0.286 OA
ATOM     22  C   UNL     1      34.799  -7.894 -23.087  0.00  0.00    +0.201 C 
BRANCH  22  25
ATOM     23  F   UNL     1      33.357  -8.186 -20.699  0.00  0.00    -0.204 F 
ATOM     24  F   UNL     1      33.906  -5.867 -24.808  0.00  0.00    -0.204 F 
ATOM     25  C   UNL     1      33.635  -7.029 -22.755  0.00  0.00    +0.094 C 
ATOM     26  C   UNL     1      32.975  -7.233 -21.561  0.00  0.00    +0.145 C 
ATOM     27  C   UNL     1      33.255  -6.053 -23.652  0.00  0.00    +0.145 C 
ATOM     28  C   UNL     1      31.884  -6.422 -21.250  0.00  0.00    +0.030 C 
ATOM     29  C   UNL     1      32.164  -5.243 -23.340  0.00  0.00    +0.030 C 
ATOM     30  C   UNL     1      31.478  -5.427 -22.139  0.00  0.00    +0.005 C 
ENDBRANCH  22  25
ENDBRANCH   6  22
TORSDOF 4
ENDMDL
MODEL 9
REMARK VINA RESULT:     -10.1     11.022     14.362
REMARK  Name = 5289179
REMARK  4 active torsions:
REMARK  status: ('A' for Active; 'I' for Inactive)
REMARK    1  A    between atoms: C_3  and  C_14
REMARK    2  A    between atoms: C_6  and  C_22
REMARK    3  A    between atoms: C_14  and  C_15
REMARK    4  A    between atoms: C_22  and  C_25
REMARK                            x       y       z     vdW  Elec       q    Type
REMARK                         _______ _______ _______ _____ _____    ______ ____
ROOT
ATOM      1  N   UNL     1      32.231  -9.153 -20.293  0.00  0.00    -0.249 N 
ATOM      2  N   UNL     1      32.124  -7.409 -18.896  0.00  0.00    -0.375 NA
ATOM      3  C   UNL     1      32.255  -8.027 -21.076  0.00  0.00    +0.208 C 
ATOM      4  C   UNL     1      32.151  -8.725 -18.971  0.00  0.00    +0.189 C 
ATOM      5  C   UNL     1      32.275 -10.493 -20.670  0.00  0.00    +0.071 C 
ATOM      6  C   UNL     1      32.238 -11.434 -19.711  0.00  0.00    +0.054 C 
ATOM      7  C   UNL     1      32.187  -6.972 -20.195  0.00  0.00    +0.182 C 
ATOM      8  C   UNL     1      32.113  -9.732 -17.963  0.00  0.00    +0.048 C 
ATOM      9  C   UNL     1      32.154 -11.032 -18.315  0.00  0.00    +0.008 C 
ATOM     10  N   UNL     1      32.184  -5.660 -20.519  0.00  0.00    -0.335 N 
ATOM     11  H   UNL     1      32.133  -4.979 -19.812  0.00  0.00    +0.144 HD
ATOM     12  H   UNL     1      32.233  -5.387 -21.464  0.00  0.00    +0.144 HD
ENDROOT
BRANCH   3  14
ATOM     13  O   UNL     1      31.412  -7.625 -23.259  0.00  0.00    -0.289 OA
ATOM     14  C   UNL     1      32.332  -8.003 -22.503  0.00  0.00    +0.200 C 
BRANCH  14  15
ATOM     15  C   UNL     1      33.574  -8.432 -23.224  0.00  0.00    +0.037 C 
ATOM     16  C   UNL     1      34.712  -7.680 -23.069  0.00  0.00    +0.003 C 
ATOM     17  C   UNL     1      33.517  -9.557 -24.010  0.00  0.00    +0.003 C 
ATOM     18  C   UNL     1      35.867  -8.079 -23.741  0.00  0.00    +0.000 C 
ATOM     19  C   UNL     1      34.673  -9.956 -24.681  0.00  0.00    +0.000 C 
ATOM     20  C   UNL     1      35.848  -9.216 -24.546  0.00  0.00    +0.000 C 
ENDBRANCH  14  15
ENDBRANCH   3  14
BRANCH   6  22
ATOM     21  O   UNL     1      31.591 -13.679 -19.514  0.00  0.00    -0.286 OA
ATOM     22  C   UNL     1      32.282 -12.843 -20.100  0.00  0.00    +0.201 C 
BRANCH  22  25
ATOM     23  F   UNL     1      31.583 -12.367 -22.774  0.00  0.00    -0.204 F 
ATOM     24  F   UNL     1      34.729 -14.154 -19.695  0.00  0.00    -0.204 F 
ATOM     25  C   UNL     1      33.153 -13.260 -21.231  0.00  0.00    +0.094 C 
ATOM     26  C   UNL     1      32.742 -12.992 -22.520  0.00  0.00    +0.145 C 
ATOM     27  C   UNL     1      34.342 -13.900 -20.953  0.00  0.00    +0.145 C 
ATOM     28  C   UNL     1      33.559 -13.382 -23.581  0.00  0.00    +0.030 C 
ATOM     29  C   UNL     1      35.158 -14.291 -22.015  0.00  0.00    +0.030 C 
ATOM     30  C   UNL     1      34.767 -14.032 -23.328  0.00  0.00    +0.005 C 
ENDBRANCH  22  25
ENDBRANCH   6  22
TORSDOF 4
ENDMDL
