MODEL 1
REMARK VINA RESULT:     -13.2      0.000      0.000
REMARK  Name = 46207733
REMARK  4 active torsions:
REMARK  status: ('A' for Active; 'I' for Inactive)
REMARK    1  A    between atoms: N_2  and  C_16
REMARK    2  A    between atoms: C_10  and  C_24
REMARK    3  A    between atoms: C_17  and  O_22
REMARK    4  A    between atoms: C_24  and  C_26
REMARK                            x       y       z     vdW  Elec       q    Type
REMARK                         _______ _______ _______ _____ _____    ______ ____
ROOT
ATOM      1  O   UNL     1      36.543 -23.459 -15.403  0.00  0.00    -0.274 OA
ATOM      2  N   UNL     1      35.700 -23.897 -13.278  0.00  0.00    -0.257 N 
ATOM      3  N   UNL     1      33.398 -23.571 -12.798  0.00  0.00    -0.252 NA
ATOM      4  C   UNL     1      35.606 -23.495 -14.611  0.00  0.00    +0.236 C 
ATOM      5  C   UNL     1      34.594 -23.910 -12.452  0.00  0.00    +0.222 C 
ATOM      6  C   UNL     1      34.246 -23.097 -15.047  0.00  0.00    +0.138 C 
ATOM      7  C   UNL     1      33.187 -23.147 -14.126  0.00  0.00    +0.068 C 
ATOM      8  C   UNL     1      31.884 -22.765 -14.542  0.00  0.00    +0.014 C 
ATOM      9  C   UNL     1      34.036 -22.677 -16.361  0.00  0.00    -0.015 C 
ATOM     10  C   UNL     1      32.761 -22.302 -16.770  0.00  0.00    -0.021 C 
ATOM     11  C   UNL     1      31.679 -22.339 -15.879  0.00  0.00    -0.003 C 
ATOM     12  C   UNL     1      30.768 -22.788 -13.677  0.00  0.00    +0.001 C 
ATOM     13  C   UNL     1      30.395 -21.959 -16.303  0.00  0.00    -0.000 C 
ATOM     14  C   UNL     1      29.499 -22.405 -14.115  0.00  0.00    +0.000 C 
ATOM     15  C   UNL     1      29.313 -21.991 -15.427  0.00  0.00    -0.000 C 
ENDROOT
BRANCH   2  16
ATOM     16  C   UNL     1      36.982 -24.305 -12.750  0.00  0.00    +0.104 C 
ATOM     17  C   UNL     1      37.881 -23.085 -12.511  0.00  0.00    +0.129 C 
ATOM     18  C   UNL     1      37.642 -25.314 -13.696  0.00  0.00    +0.022 C 
ATOM     19  C   UNL     1      39.284 -23.494 -12.061  0.00  0.00    +0.031 C 
ATOM     20  C   UNL     1      39.036 -25.712 -13.225  0.00  0.00    +0.002 C 
ATOM     21  C   UNL     1      39.924 -24.489 -13.019  0.00  0.00    +0.003 C 
BRANCH  17  22
ATOM     22  O   UNL     1      37.295 -22.273 -11.494  0.00  0.00    -0.383 OA
ATOM     23  H   UNL     1      36.838 -21.521 -11.902  0.00  0.00    +0.210 HD
ENDBRANCH  17  22
ENDBRANCH   2  16
BRANCH  10  24
ATOM     24  C   UNL     1      32.605 -21.862 -18.194  0.00  0.00    +0.054 C 
BRANCH  24  26
ATOM     25  N   UNL     1      36.180 -20.727 -18.760  0.00  0.00    -0.248 NA
ATOM     26  C   UNL     1      33.788 -21.080 -18.722  0.00  0.00    +0.001 C 
ATOM     27  C   UNL     1      33.611 -20.032 -19.618  0.00  0.00    -0.001 C 
ATOM     28  C   UNL     1      35.080 -21.386 -18.327  0.00  0.00    +0.094 C 
ATOM     29  C   UNL     1      34.717 -19.331 -20.086  0.00  0.00    +0.014 C 
ATOM     30  C   UNL     1      35.969 -19.715 -19.631  0.00  0.00    +0.059 C 
ATOM     31  C   UNL     1      37.179 -18.984 -20.112  0.00  0.00    +0.052 C 
ENDBRANCH  24  26
ENDBRANCH  10  24
TORSDOF 4
ENDMDL
MODEL 2
REMARK VINA RESULT:     -13.0      2.000      6.606
REMARK  Name = 46207733
REMARK  4 active torsions:
REMARK  status: ('A' for Active; 'I' for Inactive)
REMARK    1  A    between atoms: N_2  and  C_16
REMARK    2  A    between atoms: C_10  and  C_24
REMARK    3  A    between atoms: C_17  and  O_22
REMARK    4  A    between atoms: C_24  and  C_26
REMARK                            x       y       z     vdW  Elec       q    Type
REMARK                         _______ _______ _______ _____ _____    ______ ____
ROOT
ATOM      1  O   UNL     1      36.590 -21.467 -17.789  0.00  0.00    -0.274 OA
ATOM      2  N   UNL     1      34.723 -20.729 -18.968  0.00  0.00    -0.257 N 
ATOM      3  N   UNL     1      32.533 -21.171 -18.165  0.00  0.00    -0.252 NA
ATOM      4  C   UNL     1      35.372 -21.373 -17.913  0.00  0.00    +0.236 C 
ATOM      5  C   UNL     1      33.346 -20.667 -19.032  0.00  0.00    +0.222 C 
ATOM      6  C   UNL     1      34.472 -21.966 -16.896  0.00  0.00    +0.138 C 
ATOM      7  C   UNL     1      33.082 -21.846 -17.056  0.00  0.00    +0.068 C 
ATOM      8  C   UNL     1      32.217 -22.414 -16.083  0.00  0.00    +0.014 C 
ATOM      9  C   UNL     1      35.014 -22.634 -15.797  0.00  0.00    -0.015 C 
ATOM     10  C   UNL     1      34.169 -23.191 -14.843  0.00  0.00    -0.021 C 
ATOM     11  C   UNL     1      32.776 -23.091 -14.969  0.00  0.00    -0.003 C 
ATOM     12  C   UNL     1      30.810 -22.336 -16.171  0.00  0.00    +0.001 C 
ATOM     13  C   UNL     1      31.932 -23.658 -13.999  0.00  0.00    -0.000 C 
ATOM     14  C   UNL     1      29.986 -22.906 -15.199  0.00  0.00    +0.000 C 
ATOM     15  C   UNL     1      30.547 -23.566 -14.114  0.00  0.00    -0.000 C 
ENDROOT
BRANCH   2  16
ATOM     16  C   UNL     1      35.509 -20.117 -20.015  0.00  0.00    +0.104 C 
ATOM     17  C   UNL     1      36.301 -18.922 -19.467  0.00  0.00    +0.129 C 
ATOM     18  C   UNL     1      34.603 -19.708 -21.180  0.00  0.00    +0.022 C 
ATOM     19  C   UNL     1      37.053 -18.185 -20.576  0.00  0.00    +0.031 C 
ATOM     20  C   UNL     1      35.376 -18.981 -22.276  0.00  0.00    +0.002 C 
ATOM     21  C   UNL     1      36.133 -17.780 -21.720  0.00  0.00    +0.003 C 
BRANCH  17  22
ATOM     22  O   UNL     1      37.248 -19.395 -18.510  0.00  0.00    -0.383 OA
ATOM     23  H   UNL     1      37.060 -18.998 -17.645  0.00  0.00    +0.210 HD
ENDBRANCH  17  22
ENDBRANCH   2  16
BRANCH  10  24
ATOM     24  C   UNL     1      34.816 -23.894 -13.689  0.00  0.00    +0.054 C 
BRANCH  24  26
ATOM     25  N   UNL     1      38.569 -23.351 -13.667  0.00  0.00    -0.248 NA
ATOM     26  C   UNL     1      36.295 -24.144 -13.882  0.00  0.00    +0.001 C 
ATOM     27  C   UNL     1      36.755 -25.338 -14.427  0.00  0.00    -0.001 C 
ATOM     28  C   UNL     1      37.234 -23.191 -13.521  0.00  0.00    +0.094 C 
ATOM     29  C   UNL     1      38.121 -25.540 -14.593  0.00  0.00    +0.014 C 
ATOM     30  C   UNL     1      38.979 -24.525 -14.200  0.00  0.00    +0.059 C 
ATOM     31  C   UNL     1      40.452 -24.706 -14.363  0.00  0.00    +0.052 C 
ENDBRANCH  24  26
ENDBRANCH  10  24
TORSDOF 4
ENDMDL
MODEL 3
REMARK VINA RESULT:     -12.7      6.575     11.991
REMARK  Name = 46207733
REMARK  4 active torsions:
REMARK  status: ('A' for Active; 'I' for Inactive)
REMARK    1  A    between atoms: N_2  and  C_16
REMARK    2  A    between atoms: C_10  and  C_24
REMARK    3  A    between atoms: C_17  and  O_22
REMARK    4  A    between atoms: C_24  and  C_26
REMARK                            x       y       z     vdW  Elec       q    Type
REMARK                         _______ _______ _______ _____ _____    ______ ____
ROOT
ATOM      1  O   UNL     1      35.212 -13.243 -20.539  0.00  0.00    -0.274 OA
ATOM      2  N   UNL     1      33.983 -12.824 -22.472  0.00  0.00    -0.257 N 
ATOM      3  N   UNL     1      33.589 -14.549 -24.054  0.00  0.00    -0.252 NA
ATOM      4  C   UNL     1      34.721 -13.624 -21.598  0.00  0.00    +0.236 C 
ATOM      5  C   UNL     1      33.462 -13.331 -23.645  0.00  0.00    +0.222 C 
ATOM      6  C   UNL     1      34.889 -15.030 -22.033  0.00  0.00    +0.138 C 
ATOM      7  C   UNL     1      34.319 -15.447 -23.247  0.00  0.00    +0.068 C 
ATOM      8  C   UNL     1      34.479 -16.794 -23.667  0.00  0.00    +0.014 C 
ATOM      9  C   UNL     1      35.611 -15.920 -21.237  0.00  0.00    -0.015 C 
ATOM     10  C   UNL     1      35.770 -17.240 -21.646  0.00  0.00    -0.021 C 
ATOM     11  C   UNL     1      35.214 -17.691 -22.852  0.00  0.00    -0.003 C 
ATOM     12  C   UNL     1      33.937 -17.290 -24.873  0.00  0.00    +0.001 C 
ATOM     13  C   UNL     1      35.381 -19.027 -23.254  0.00  0.00    -0.000 C 
ATOM     14  C   UNL     1      34.112 -18.620 -25.259  0.00  0.00    +0.000 C 
ATOM     15  C   UNL     1      34.834 -19.488 -24.450  0.00  0.00    -0.000 C 
ENDROOT
BRANCH   2  16
ATOM     16  C   UNL     1      33.760 -11.434 -22.141  0.00  0.00    +0.104 C 
ATOM     17  C   UNL     1      32.376 -11.245 -21.507  0.00  0.00    +0.129 C 
ATOM     18  C   UNL     1      33.932 -10.564 -23.390  0.00  0.00    +0.022 C 
ATOM     19  C   UNL     1      32.066  -9.769 -21.252  0.00  0.00    +0.031 C 
ATOM     20  C   UNL     1      33.625  -9.096 -23.110  0.00  0.00    +0.002 C 
ATOM     21  C   UNL     1      32.235  -8.924 -22.507  0.00  0.00    +0.003 C 
BRANCH  17  22
ATOM     22  O   UNL     1      32.339 -11.940 -20.262  0.00  0.00    -0.383 OA
ATOM     23  H   UNL     1      31.995 -12.837 -20.401  0.00  0.00    +0.210 HD
ENDBRANCH  17  22
ENDBRANCH   2  16
BRANCH  10  24
ATOM     24  C   UNL     1      36.555 -18.142 -20.744  0.00  0.00    +0.054 C 
BRANCH  24  26
ATOM     25  N   UNL     1      35.596 -21.103 -18.576  0.00  0.00    -0.248 NA
ATOM     26  C   UNL     1      35.710 -19.173 -20.029  0.00  0.00    +0.001 C 
ATOM     27  C   UNL     1      34.324 -19.167 -20.144  0.00  0.00    -0.001 C 
ATOM     28  C   UNL     1      36.292 -20.152 -19.240  0.00  0.00    +0.094 C 
ATOM     29  C   UNL     1      33.573 -20.129 -19.476  0.00  0.00    +0.014 C 
ATOM     30  C   UNL     1      34.250 -21.065 -18.711  0.00  0.00    +0.059 C 
ATOM     31  C   UNL     1      33.477 -22.112 -17.981  0.00  0.00    +0.052 C 
ENDBRANCH  24  26
ENDBRANCH  10  24
TORSDOF 4
ENDMDL
MODEL 4
REMARK VINA RESULT:     -12.5      2.585      7.106
REMARK  Name = 46207733
REMARK  4 active torsions:
REMARK  status: ('A' for Active; 'I' for Inactive)
REMARK    1  A    between atoms: N_2  and  C_16
REMARK    2  A    between atoms: C_10  and  C_24
REMARK    3  A    between atoms: C_17  and  O_22
REMARK    4  A    between atoms: C_24  and  C_26
REMARK                            x       y       z     vdW  Elec       q    Type
REMARK                         _______ _______ _______ _____ _____    ______ ____
ROOT
ATOM      1  O   UNL     1      32.885 -21.763 -18.409  0.00  0.00    -0.274 OA
ATOM      2  N   UNL     1      35.133 -21.171 -18.270  0.00  0.00    -0.257 N 
ATOM      3  N   UNL     1      36.390 -21.641 -16.313  0.00  0.00    -0.252 NA
ATOM      4  C   UNL     1      33.943 -21.720 -17.788  0.00  0.00    +0.236 C 
ATOM      5  C   UNL     1      36.282 -21.163 -17.507  0.00  0.00    +0.222 C 
ATOM      6  C   UNL     1      34.026 -22.279 -16.418  0.00  0.00    +0.138 C 
ATOM      7  C   UNL     1      35.246 -22.221 -15.725  0.00  0.00    +0.068 C 
ATOM      8  C   UNL     1      35.328 -22.756 -14.412  0.00  0.00    +0.014 C 
ATOM      9  C   UNL     1      32.896 -22.853 -15.835  0.00  0.00    -0.015 C 
ATOM     10  C   UNL     1      32.974 -23.377 -14.549  0.00  0.00    -0.021 C 
ATOM     11  C   UNL     1      34.175 -23.337 -13.827  0.00  0.00    -0.003 C 
ATOM     12  C   UNL     1      36.518 -22.736 -13.650  0.00  0.00    +0.001 C 
ATOM     13  C   UNL     1      34.241 -23.871 -12.529  0.00  0.00    -0.000 C 
ATOM     14  C   UNL     1      36.566 -23.270 -12.361  0.00  0.00    +0.000 C 
ATOM     15  C   UNL     1      35.429 -23.836 -11.801  0.00  0.00    -0.000 C 
ENDROOT
BRANCH   2  16
ATOM     16  C   UNL     1      35.160 -20.597 -19.597  0.00  0.00    +0.104 C 
ATOM     17  C   UNL     1      36.427 -19.755 -19.795  0.00  0.00    +0.129 C 
ATOM     18  C   UNL     1      33.892 -19.772 -19.838  0.00  0.00    +0.022 C 
ATOM     19  C   UNL     1      36.429 -19.042 -21.148  0.00  0.00    +0.031 C 
ATOM     20  C   UNL     1      33.912 -19.077 -21.196  0.00  0.00    +0.002 C 
ATOM     21  C   UNL     1      35.164 -18.222 -21.364  0.00  0.00    +0.003 C 
BRANCH  17  22
ATOM     22  O   UNL     1      37.566 -20.613 -19.731  0.00  0.00    -0.383 OA
ATOM     23  H   UNL     1      37.835 -20.862 -20.629  0.00  0.00    +0.210 HD
ENDBRANCH  17  22
ENDBRANCH   2  16
BRANCH  10  24
ATOM     24  C   UNL     1      31.724 -23.979 -13.984  0.00  0.00    +0.054 C 
BRANCH  24  26
ATOM     25  N   UNL     1      28.916 -21.520 -14.659  0.00  0.00    -0.248 NA
ATOM     26  C   UNL     1      30.453 -23.383 -14.548  0.00  0.00    +0.001 C 
ATOM     27  C   UNL     1      29.662 -24.100 -15.440  0.00  0.00    -0.001 C 
ATOM     28  C   UNL     1      30.040 -22.110 -14.192  0.00  0.00    +0.094 C 
ATOM     29  C   UNL     1      28.498 -23.527 -15.942  0.00  0.00    +0.014 C 
ATOM     30  C   UNL     1      28.173 -22.246 -15.525  0.00  0.00    +0.059 C 
ATOM     31  C   UNL     1      26.930 -21.600 -16.043  0.00  0.00    +0.052 C 
ENDBRANCH  24  26
ENDBRANCH  10  24
TORSDOF 4
ENDMDL
MODEL 5
REMARK VINA RESULT:     -12.2      2.136      6.244
REMARK  Name = 46207733
REMARK  4 active torsions:
REMARK  status: ('A' for Active; 'I' for Inactive)
REMARK    1  A    between atoms: N_2  and  C_16
REMARK    2  A    between atoms: C_10  and  C_24
REMARK    3  A    between atoms: C_17  and  O_22
REMARK    4  A    between atoms: C_24  and  C_26
REMARK                            x       y       z     vdW  Elec       q    Type
REMARK                         _______ _______ _______ _____ _____    ______ ____
ROOT
ATOM      1  O   UNL     1      31.998 -22.265 -16.174  0.00  0.00    -0.274 OA
ATOM      2  N   UNL     1      31.340 -23.220 -14.156  0.00  0.00    -0.257 N 
ATOM      3  N   UNL     1      32.948 -23.799 -12.509  0.00  0.00    -0.252 NA
ATOM      4  C   UNL     1      32.272 -22.729 -15.071  0.00  0.00    +0.236 C 
ATOM      5  C   UNL     1      31.731 -23.725 -12.933  0.00  0.00    +0.222 C 
ATOM      6  C   UNL     1      33.682 -22.797 -14.621  0.00  0.00    +0.138 C 
ATOM      7  C   UNL     1      33.975 -23.330 -13.356  0.00  0.00    +0.068 C 
ATOM      8  C   UNL     1      35.325 -23.397 -12.923  0.00  0.00    +0.014 C 
ATOM      9  C   UNL     1      34.699 -22.334 -15.458  0.00  0.00    -0.015 C 
ATOM     10  C   UNL     1      36.023 -22.399 -15.036  0.00  0.00    -0.021 C 
ATOM     11  C   UNL     1      36.352 -22.924 -13.778  0.00  0.00    -0.003 C 
ATOM     12  C   UNL     1      35.701 -23.919 -11.665  0.00  0.00    +0.001 C 
ATOM     13  C   UNL     1      37.693 -22.985 -13.363  0.00  0.00    -0.000 C 
ATOM     14  C   UNL     1      37.038 -23.971 -11.268  0.00  0.00    +0.000 C 
ATOM     15  C   UNL     1      38.033 -23.505 -12.117  0.00  0.00    -0.000 C 
ENDROOT
BRANCH   2  16
ATOM     16  C   UNL     1      29.935 -23.200 -14.497  0.00  0.00    +0.104 C 
ATOM     17  C   UNL     1      29.682 -23.988 -15.789  0.00  0.00    +0.129 C 
ATOM     18  C   UNL     1      29.443 -21.754 -14.612  0.00  0.00    +0.022 C 
ATOM     19  C   UNL     1      28.223 -23.888 -16.236  0.00  0.00    +0.031 C 
ATOM     20  C   UNL     1      27.985 -21.680 -15.052  0.00  0.00    +0.002 C 
ATOM     21  C   UNL     1      27.757 -22.444 -16.353  0.00  0.00    +0.003 C 
BRANCH  17  22
ATOM     22  O   UNL     1      29.997 -25.361 -15.562  0.00  0.00    -0.383 OA
ATOM     23  H   UNL     1      30.269 -25.773 -16.397  0.00  0.00    +0.210 HD
ENDBRANCH  17  22
ENDBRANCH   2  16
BRANCH  10  24
ATOM     24  C   UNL     1      37.064 -21.884 -15.982  0.00  0.00    +0.054 C 
BRANCH  24  26
ATOM     25  N   UNL     1      36.704 -19.609 -18.995  0.00  0.00    -0.248 NA
ATOM     26  C   UNL     1      36.491 -21.245 -17.228  0.00  0.00    +0.001 C 
ATOM     27  C   UNL     1      35.274 -21.667 -17.754  0.00  0.00    -0.001 C 
ATOM     28  C   UNL     1      37.161 -20.223 -17.880  0.00  0.00    +0.094 C 
ATOM     29  C   UNL     1      34.771 -21.060 -18.900  0.00  0.00    +0.014 C 
ATOM     30  C   UNL     1      35.518 -20.046 -19.478  0.00  0.00    +0.059 C 
ATOM     31  C   UNL     1      35.010 -19.371 -20.709  0.00  0.00    +0.052 C 
ENDBRANCH  24  26
ENDBRANCH  10  24
TORSDOF 4
ENDMDL
MODEL 6
REMARK VINA RESULT:     -11.9      2.582      4.171
REMARK  Name = 46207733
REMARK  4 active torsions:
REMARK  status: ('A' for Active; 'I' for Inactive)
REMARK    1  A    between atoms: N_2  and  C_16
REMARK    2  A    between atoms: C_10  and  C_24
REMARK    3  A    between atoms: C_17  and  O_22
REMARK    4  A    between atoms: C_24  and  C_26
REMARK                            x       y       z     vdW  Elec       q    Type
REMARK                         _______ _______ _______ _____ _____    ______ ____
ROOT
ATOM      1  O   UNL     1      38.708 -21.755 -15.817  0.00  0.00    -0.274 OA
ATOM      2  N   UNL     1      36.772 -22.592 -14.832  0.00  0.00    -0.257 N 
ATOM      3  N   UNL     1      34.662 -22.314 -15.883  0.00  0.00    -0.252 NA
ATOM      4  C   UNL     1      37.493 -21.928 -15.826  0.00  0.00    +0.236 C 
ATOM      5  C   UNL     1      35.403 -22.745 -14.918  0.00  0.00    +0.222 C 
ATOM      6  C   UNL     1      36.676 -21.417 -16.952  0.00  0.00    +0.138 C 
ATOM      7  C   UNL     1      35.287 -21.626 -16.944  0.00  0.00    +0.068 C 
ATOM      8  C   UNL     1      34.502 -21.137 -18.022  0.00  0.00    +0.014 C 
ATOM      9  C   UNL     1      37.293 -20.736 -18.002  0.00  0.00    -0.015 C 
ATOM     10  C   UNL     1      36.526 -20.256 -19.059  0.00  0.00    -0.021 C 
ATOM     11  C   UNL     1      35.137 -20.446 -19.084  0.00  0.00    -0.003 C 
ATOM     12  C   UNL     1      33.101 -21.307 -18.087  0.00  0.00    +0.001 C 
ATOM     13  C   UNL     1      34.373 -19.957 -20.157  0.00  0.00    -0.000 C 
ATOM     14  C   UNL     1      32.357 -20.814 -19.160  0.00  0.00    +0.000 C 
ATOM     15  C   UNL     1      32.993 -20.139 -20.194  0.00  0.00    -0.000 C 
ENDROOT
BRANCH   2  16
ATOM     16  C   UNL     1      37.473 -23.128 -13.688  0.00  0.00    +0.104 C 
ATOM     17  C   UNL     1      37.730 -24.630 -13.868  0.00  0.00    +0.129 C 
ATOM     18  C   UNL     1      36.685 -22.841 -12.406  0.00  0.00    +0.022 C 
ATOM     19  C   UNL     1      38.369 -25.249 -12.624  0.00  0.00    +0.031 C 
ATOM     20  C   UNL     1      37.344 -23.461 -11.179  0.00  0.00    +0.002 C 
ATOM     21  C   UNL     1      37.566 -24.959 -11.363  0.00  0.00    +0.003 C 
BRANCH  17  22
ATOM     22  O   UNL     1      38.611 -24.819 -14.975  0.00  0.00    -0.383 OA
ATOM     23  H   UNL     1      38.948 -23.958 -15.271  0.00  0.00    +0.210 HD
ENDBRANCH  17  22
ENDBRANCH   2  16
BRANCH  10  24
ATOM     24  C   UNL     1      37.252 -19.535 -20.153  0.00  0.00    +0.054 C 
BRANCH  24  26
ATOM     25  N   UNL     1      35.493 -16.179 -19.974  0.00  0.00    -0.248 NA
ATOM     26  C   UNL     1      36.579 -18.251 -20.586  0.00  0.00    +0.001 C 
ATOM     27  C   UNL     1      36.418 -17.947 -21.933  0.00  0.00    -0.001 C 
ATOM     28  C   UNL     1      36.104 -17.343 -19.654  0.00  0.00    +0.094 C 
ATOM     29  C   UNL     1      35.794 -16.759 -22.302  0.00  0.00    +0.014 C 
ATOM     30  C   UNL     1      35.355 -15.917 -21.293  0.00  0.00    +0.059 C 
ATOM     31  C   UNL     1      34.681 -14.634 -21.652  0.00  0.00    +0.052 C 
ENDBRANCH  24  26
ENDBRANCH  10  24
TORSDOF 4
ENDMDL
MODEL 7
REMARK VINA RESULT:     -11.4     10.756     14.921
REMARK  Name = 46207733
REMARK  4 active torsions:
REMARK  status: ('A' for Active; 'I' for Inactive)
REMARK    1  A    between atoms: N_2  and  C_16
REMARK    2  A    between atoms: C_10  and  C_24
REMARK    3  A    between atoms: C_17  and  O_22
REMARK    4  A    between atoms: C_24  and  C_26
REMARK                            x       y       z     vdW  Elec       q    Type
REMARK                         _______ _______ _______ _____ _____    ______ ____
ROOT
ATOM      1  O   UNL     1      34.429  -9.919 -24.976  0.00  0.00    -0.274 OA
ATOM      2  N   UNL     1      32.955  -8.908 -23.485  0.00  0.00    -0.257 N 
ATOM      3  N   UNL     1      32.220 -10.058 -21.543  0.00  0.00    -0.252 NA
ATOM      4  C   UNL     1      33.761  -9.950 -23.947  0.00  0.00    +0.236 C 
ATOM      5  C   UNL     1      32.234  -9.023 -22.314  0.00  0.00    +0.222 C 
ATOM      6  C   UNL     1      33.771 -11.158 -23.088  0.00  0.00    +0.138 C 
ATOM      7  C   UNL     1      32.999 -11.172 -21.915  0.00  0.00    +0.068 C 
ATOM      8  C   UNL     1      33.007 -12.329 -21.090  0.00  0.00    +0.014 C 
ATOM      9  C   UNL     1      34.541 -12.261 -23.455  0.00  0.00    -0.015 C 
ATOM     10  C   UNL     1      34.550 -13.395 -22.649  0.00  0.00    -0.021 C 
ATOM     11  C   UNL     1      33.793 -13.446 -21.470  0.00  0.00    -0.003 C 
ATOM     12  C   UNL     1      32.259 -12.422 -19.895  0.00  0.00    +0.001 C 
ATOM     13  C   UNL     1      33.810 -14.597 -20.664  0.00  0.00    -0.000 C 
ATOM     14  C   UNL     1      32.287 -13.573 -19.106  0.00  0.00    +0.000 C 
ATOM     15  C   UNL     1      33.062 -14.660 -19.491  0.00  0.00    -0.000 C 
ENDROOT
BRANCH   2  16
ATOM     16  C   UNL     1      32.874  -7.684 -24.250  0.00  0.00    +0.104 C 
ATOM     17  C   UNL     1      34.070  -6.775 -23.942  0.00  0.00    +0.129 C 
ATOM     18  C   UNL     1      31.543  -6.978 -23.971  0.00  0.00    +0.022 C 
ATOM     19  C   UNL     1      33.952  -5.423 -24.649  0.00  0.00    +0.031 C 
ATOM     20  C   UNL     1      31.445  -5.638 -24.692  0.00  0.00    +0.002 C 
ATOM     21  C   UNL     1      32.627  -4.736 -24.353  0.00  0.00    +0.003 C 
BRANCH  17  22
ATOM     22  O   UNL     1      35.265  -7.418 -24.384  0.00  0.00    -0.383 OA
ATOM     23  H   UNL     1      35.578  -6.994 -25.198  0.00  0.00    +0.210 HD
ENDBRANCH  17  22
ENDBRANCH   2  16
BRANCH  10  24
ATOM     24  C   UNL     1      35.399 -14.544 -23.101  0.00  0.00    +0.054 C 
BRANCH  24  26
ATOM     25  N   UNL     1      33.000 -16.291 -25.462  0.00  0.00    -0.248 NA
ATOM     26  C   UNL     1      34.619 -15.643 -23.788  0.00  0.00    +0.001 C 
ATOM     27  C   UNL     1      34.777 -16.974 -23.414  0.00  0.00    -0.001 C 
ATOM     28  C   UNL     1      33.727 -15.357 -24.808  0.00  0.00    +0.094 C 
ATOM     29  C   UNL     1      34.046 -17.963 -24.063  0.00  0.00    +0.014 C 
ATOM     30  C   UNL     1      33.179 -17.573 -25.072  0.00  0.00    +0.059 C 
ATOM     31  C   UNL     1      32.378 -18.608 -25.790  0.00  0.00    +0.052 C 
ENDBRANCH  24  26
ENDBRANCH  10  24
TORSDOF 4
ENDMDL
MODEL 8
REMARK VINA RESULT:     -10.6      2.963      8.278
REMARK  Name = 46207733
REMARK  4 active torsions:
REMARK  status: ('A' for Active; 'I' for Inactive)
REMARK    1  A    between atoms: N_2  and  C_16
REMARK    2  A    between atoms: C_10  and  C_24
REMARK    3  A    between atoms: C_17  and  O_22
REMARK    4  A    between atoms: C_24  and  C_26
REMARK                            x       y       z     vdW  Elec       q    Type
REMARK                         _______ _______ _______ _____ _____    ______ ____
ROOT
ATOM      1  O   UNL     1      37.368 -19.194 -20.176  0.00  0.00    -0.274 OA
ATOM      2  N   UNL     1      35.123 -19.191 -20.791  0.00  0.00    -0.257 N 
ATOM      3  N   UNL     1      33.514 -20.367 -19.502  0.00  0.00    -0.252 NA
ATOM      4  C   UNL     1      36.207 -19.541 -19.984  0.00  0.00    +0.236 C 
ATOM      5  C   UNL     1      33.844 -19.623 -20.504  0.00  0.00    +0.222 C 
ATOM      6  C   UNL     1      35.867 -20.396 -18.822  0.00  0.00    +0.138 C 
ATOM      7  C   UNL     1      34.532 -20.782 -18.620  0.00  0.00    +0.068 C 
ATOM      8  C   UNL     1      34.205 -21.602 -17.507  0.00  0.00    +0.014 C 
ATOM      9  C   UNL     1      36.874 -20.808 -17.948  0.00  0.00    -0.015 C 
ATOM     10  C   UNL     1      36.555 -21.611 -16.858  0.00  0.00    -0.021 C 
ATOM     11  C   UNL     1      35.233 -22.016 -16.624  0.00  0.00    -0.003 C 
ATOM     12  C   UNL     1      32.887 -22.032 -17.235  0.00  0.00    +0.001 C 
ATOM     13  C   UNL     1      34.924 -22.827 -15.519  0.00  0.00    -0.000 C 
ATOM     14  C   UNL     1      32.597 -22.838 -16.133  0.00  0.00    +0.000 C 
ATOM     15  C   UNL     1      33.615 -23.236 -15.276  0.00  0.00    -0.000 C 
ENDROOT
BRANCH   2  16
ATOM     16  C   UNL     1      35.345 -18.359 -21.952  0.00  0.00    +0.104 C 
ATOM     17  C   UNL     1      35.034 -16.891 -21.631  0.00  0.00    +0.129 C 
ATOM     18  C   UNL     1      34.510 -18.868 -23.130  0.00  0.00    +0.022 C 
ATOM     19  C   UNL     1      35.150 -16.003 -22.872  0.00  0.00    +0.031 C 
ATOM     20  C   UNL     1      34.647 -17.972 -24.357  0.00  0.00    +0.002 C 
ATOM     21  C   UNL     1      34.306 -16.522 -24.028  0.00  0.00    +0.003 C 
BRANCH  17  22
ATOM     22  O   UNL     1      35.960 -16.426 -20.650  0.00  0.00    -0.383 OA
ATOM     23  H   UNL     1      36.287 -15.548 -20.904  0.00  0.00    +0.210 HD
ENDBRANCH  17  22
ENDBRANCH   2  16
BRANCH  10  24
ATOM     24  C   UNL     1      37.684 -22.017 -15.960  0.00  0.00    +0.054 C 
BRANCH  24  26
ATOM     25  N   UNL     1      36.457 -22.410 -12.392  0.00  0.00    -0.248 NA
ATOM     26  C   UNL     1      37.231 -22.663 -14.669  0.00  0.00    +0.001 C 
ATOM     27  C   UNL     1      37.168 -24.047 -14.545  0.00  0.00    -0.001 C 
ATOM     28  C   UNL     1      36.869 -21.896 -13.574  0.00  0.00    +0.094 C 
ATOM     29  C   UNL     1      36.749 -24.613 -13.346  0.00  0.00    +0.014 C 
ATOM     30  C   UNL     1      36.407 -23.759 -12.309  0.00  0.00    +0.059 C 
ATOM     31  C   UNL     1      35.953 -24.332 -11.007  0.00  0.00    +0.052 C 
ENDBRANCH  24  26
ENDBRANCH  10  24
TORSDOF 4
ENDMDL
MODEL 9
REMARK VINA RESULT:     -10.5     11.162     15.985
REMARK  Name = 46207733
REMARK  4 active torsions:
REMARK  status: ('A' for Active; 'I' for Inactive)
REMARK    1  A    between atoms: N_2  and  C_16
REMARK    2  A    between atoms: C_10  and  C_24
REMARK    3  A    between atoms: C_17  and  O_22
REMARK    4  A    between atoms: C_24  and  C_26
REMARK                            x       y       z     vdW  Elec       q    Type
REMARK                         _______ _______ _______ _____ _____    ______ ____
ROOT
ATOM      1  O   UNL     1      31.804  -9.791 -21.211  0.00  0.00    -0.274 OA
ATOM      2  N   UNL     1      32.940  -7.829 -21.739  0.00  0.00    -0.257 N 
ATOM      3  N   UNL     1      34.391  -7.737 -23.615  0.00  0.00    -0.252 NA
ATOM      4  C   UNL     1      32.580  -9.165 -21.926  0.00  0.00    +0.236 C 
ATOM      5  C   UNL     1      33.821  -7.196 -22.591  0.00  0.00    +0.222 C 
ATOM      6  C   UNL     1      33.215  -9.823 -23.093  0.00  0.00    +0.138 C 
ATOM      7  C   UNL     1      34.100  -9.088 -23.898  0.00  0.00    +0.068 C 
ATOM      8  C   UNL     1      34.709  -9.716 -25.017  0.00  0.00    +0.014 C 
ATOM      9  C   UNL     1      32.928 -11.158 -23.375  0.00  0.00    -0.015 C 
ATOM     10  C   UNL     1      33.524 -11.776 -24.469  0.00  0.00    -0.021 C 
ATOM     11  C   UNL     1      34.412 -11.074 -25.296  0.00  0.00    -0.003 C 
ATOM     12  C   UNL     1      35.609  -9.046 -25.875  0.00  0.00    +0.001 C 
ATOM     13  C   UNL     1      35.008 -11.709 -26.399  0.00  0.00    -0.000 C 
ATOM     14  C   UNL     1      36.193  -9.692 -26.966  0.00  0.00    +0.000 C 
ATOM     15  C   UNL     1      35.893 -11.022 -27.228  0.00  0.00    -0.000 C 
ENDROOT
BRANCH   2  16
ATOM     16  C   UNL     1      32.377  -7.094 -20.628  0.00  0.00    +0.104 C 
ATOM     17  C   UNL     1      31.934  -5.695 -21.076  0.00  0.00    +0.129 C 
ATOM     18  C   UNL     1      33.388  -7.025 -19.479  0.00  0.00    +0.022 C 
ATOM     19  C   UNL     1      31.441  -4.853 -19.898  0.00  0.00    +0.031 C 
ATOM     20  C   UNL     1      32.872  -6.187 -18.314  0.00  0.00    +0.002 C 
ATOM     21  C   UNL     1      32.463  -4.791 -18.771  0.00  0.00    +0.003 C 
BRANCH  17  22
ATOM     22  O   UNL     1      30.871  -5.826 -22.019  0.00  0.00    -0.383 OA
ATOM     23  H   UNL     1      30.067  -5.420 -21.659  0.00  0.00    +0.210 HD
ENDBRANCH  17  22
ENDBRANCH   2  16
BRANCH  10  24
ATOM     24  C   UNL     1      33.172 -13.212 -24.714  0.00  0.00    +0.054 C 
BRANCH  24  26
ATOM     25  N   UNL     1      35.124 -16.306 -23.714  0.00  0.00    -0.248 NA
ATOM     26  C   UNL     1      33.974 -14.186 -23.879  0.00  0.00    +0.001 C 
ATOM     27  C   UNL     1      34.298 -13.898 -22.558  0.00  0.00    -0.001 C 
ATOM     28  C   UNL     1      34.406 -15.392 -24.406  0.00  0.00    +0.094 C 
ATOM     29  C   UNL     1      35.035 -14.813 -21.814  0.00  0.00    +0.014 C 
ATOM     30  C   UNL     1      35.421 -15.992 -22.433  0.00  0.00    +0.059 C 
ATOM     31  C   UNL     1      36.213 -16.997 -21.665  0.00  0.00    +0.052 C 
ENDBRANCH  24  26
ENDBRANCH  10  24
TORSDOF 4
ENDMDL
