MODEL 1
REMARK VINA RESULT:     -12.6      0.000      0.000
REMARK  Name = 198752
REMARK  6 active torsions:
REMARK  status: ('A' for Active; 'I' for Inactive)
REMARK    1  A    between atoms: C_1  and  C_3
REMARK    2  A    between atoms: C_1  and  C_16
REMARK    3  A    between atoms: N_2  and  C_9
REMARK    4  A    between atoms: C_9  and  C_10
REMARK    5  A    between atoms: C_16  and  C_18
REMARK    6  A    between atoms: C_18  and  C_20
REMARK                            x       y       z     vdW  Elec       q    Type
REMARK                         _______ _______ _______ _____ _____    ______ ____
ROOT
ATOM      1  C   UNL     1      32.912 -21.816 -17.647  0.00  0.00    +0.008 C 
ENDROOT
BRANCH   1   3
ATOM      2  N   UNL     1      35.264 -19.050 -19.986  0.00  0.00    +0.390 N 
ATOM      3  C   UNL     1      33.738 -21.254 -18.801  0.00  0.00    -0.004 C 
ATOM      4  C   UNL     1      35.154 -20.893 -18.340  0.00  0.00    -0.023 C 
ATOM      5  C   UNL     1      33.062 -20.022 -19.413  0.00  0.00    -0.023 C 
ATOM      6  C   UNL     1      35.955 -20.237 -19.466  0.00  0.00    -0.077 C 
ATOM      7  C   UNL     1      33.933 -19.395 -20.504  0.00  0.00    -0.077 C 
ATOM      8  H   UNL     1      35.141 -18.394 -19.215  0.00  0.00    -0.079 HD
BRANCH   2   9
ATOM      9  C   UNL     1      36.065 -18.404 -21.026  0.00  0.00    -0.050 C 
BRANCH   9  10
ATOM     10  C   UNL     1      35.633 -16.982 -21.264  0.00  0.00    -0.043 C 
ATOM     11  C   UNL     1      35.573 -16.494 -22.563  0.00  0.00    -0.006 C 
ATOM     12  C   UNL     1      35.300 -16.177 -20.184  0.00  0.00    -0.006 C 
ATOM     13  C   UNL     1      35.174 -15.176 -22.784  0.00  0.00    -0.000 C 
ATOM     14  C   UNL     1      34.900 -14.860 -20.404  0.00  0.00    -0.000 C 
ATOM     15  C   UNL     1      34.837 -14.359 -21.705  0.00  0.00    -0.000 C 
ENDBRANCH   9  10
ENDBRANCH   2   9
ENDBRANCH   1   3
BRANCH   1  16
ATOM     16  C   UNL     1      33.671 -22.909 -16.894  0.00  0.00    +0.069 C 
BRANCH  16  18
ATOM     17  O   UNL     1      32.313 -22.509 -14.943  0.00  0.00    -0.291 OA
ATOM     18  C   UNL     1      33.419 -22.895 -15.375  0.00  0.00    +0.173 C 
BRANCH  18  20
ATOM     19  N   UNL     1      37.941 -24.534 -14.701  0.00  0.00    -0.333 N 
ATOM     20  C   UNL     1      34.463 -23.330 -14.462  0.00  0.00    +0.036 C 
ATOM     21  C   UNL     1      36.505 -24.160 -12.713  0.00  0.00    -0.009 C 
ATOM     22  C   UNL     1      37.547 -24.539 -11.679  0.00  0.00    +0.028 C 
ATOM     23  C   UNL     1      36.752 -24.135 -14.104  0.00  0.00    +0.041 C 
ATOM     24  C   UNL     1      38.930 -23.953 -11.963  0.00  0.00    +0.006 C 
ATOM     25  C   UNL     1      39.728 -24.716 -13.019  0.00  0.00    +0.022 C 
ATOM     26  C   UNL     1      35.716 -23.698 -14.955  0.00  0.00    +0.017 C 
ATOM     27  C   UNL     1      38.890 -25.425 -14.072  0.00  0.00    +0.087 C 
ATOM     28  C   UNL     1      34.216 -23.392 -13.100  0.00  0.00    +0.003 C 
ATOM     29  C   UNL     1      35.226 -23.804 -12.234  0.00  0.00    -0.003 C 
ATOM     30  H   UNL     1      38.147 -24.193 -15.601  0.00  0.00    +0.147 HD
ENDBRANCH  18  20
ENDBRANCH  16  18
ENDBRANCH   1  16
TORSDOF 6
ENDMDL
MODEL 2
REMARK VINA RESULT:     -12.1      0.838      1.407
REMARK  Name = 198752
REMARK  6 active torsions:
REMARK  status: ('A' for Active; 'I' for Inactive)
REMARK    1  A    between atoms: C_1  and  C_3
REMARK    2  A    between atoms: C_1  and  C_16
REMARK    3  A    between atoms: N_2  and  C_9
REMARK    4  A    between atoms: C_9  and  C_10
REMARK    5  A    between atoms: C_16  and  C_18
REMARK    6  A    between atoms: C_18  and  C_20
REMARK                            x       y       z     vdW  Elec       q    Type
REMARK                         _______ _______ _______ _____ _____    ______ ____
ROOT
ATOM      1  C   UNL     1      32.991 -21.728 -17.802  0.00  0.00    +0.008 C 
ENDROOT
BRANCH   1   3
ATOM      2  N   UNL     1      35.634 -19.079 -19.959  0.00  0.00    +0.390 N 
ATOM      3  C   UNL     1      33.894 -21.192 -18.909  0.00  0.00    -0.004 C 
ATOM      4  C   UNL     1      35.321 -20.971 -18.396  0.00  0.00    -0.023 C 
ATOM      5  C   UNL     1      33.343 -19.883 -19.485  0.00  0.00    -0.023 C 
ATOM      6  C   UNL     1      36.208 -20.341 -19.472  0.00  0.00    -0.077 C 
ATOM      7  C   UNL     1      34.295 -19.289 -20.525  0.00  0.00    -0.077 C 
ATOM      8  H   UNL     1      35.544 -18.447 -19.164  0.00  0.00    -0.079 HD
BRANCH   2   9
ATOM      9  C   UNL     1      36.517 -18.462 -20.949  0.00  0.00    -0.050 C 
BRANCH   9  10
ATOM     10  C   UNL     1      35.745 -17.876 -22.100  0.00  0.00    -0.043 C 
ATOM     11  C   UNL     1      35.674 -16.497 -22.244  0.00  0.00    -0.006 C 
ATOM     12  C   UNL     1      35.115 -18.721 -23.003  0.00  0.00    -0.006 C 
ATOM     13  C   UNL     1      34.958 -15.954 -23.311  0.00  0.00    -0.000 C 
ATOM     14  C   UNL     1      34.400 -18.178 -24.070  0.00  0.00    -0.000 C 
ATOM     15  C   UNL     1      34.321 -16.794 -24.223  0.00  0.00    -0.000 C 
ENDBRANCH   9  10
ENDBRANCH   2   9
ENDBRANCH   1   3
BRANCH   1  16
ATOM     16  C   UNL     1      33.655 -22.875 -17.041  0.00  0.00    +0.069 C 
BRANCH  16  18
ATOM     17  O   UNL     1      32.237 -22.485 -15.132  0.00  0.00    -0.291 OA
ATOM     18  C   UNL     1      33.358 -22.863 -15.530  0.00  0.00    +0.173 C 
BRANCH  18  20
ATOM     19  N   UNL     1      37.829 -24.583 -14.728  0.00  0.00    -0.333 N 
ATOM     20  C   UNL     1      34.378 -23.290 -14.586  0.00  0.00    +0.036 C 
ATOM     21  C   UNL     1      36.372 -24.107 -12.778  0.00  0.00    -0.009 C 
ATOM     22  C   UNL     1      37.389 -24.475 -11.715  0.00  0.00    +0.028 C 
ATOM     23  C   UNL     1      36.642 -24.136 -14.164  0.00  0.00    +0.041 C 
ATOM     24  C   UNL     1      38.790 -23.930 -11.996  0.00  0.00    +0.006 C 
ATOM     25  C   UNL     1      39.586 -24.748 -13.013  0.00  0.00    +0.022 C 
ATOM     26  C   UNL     1      35.629 -23.704 -15.047  0.00  0.00    +0.017 C 
ATOM     27  C   UNL     1      38.748 -25.473 -14.055  0.00  0.00    +0.087 C 
ATOM     28  C   UNL     1      34.109 -23.300 -13.227  0.00  0.00    +0.003 C 
ATOM     29  C   UNL     1      35.095 -23.706 -12.331  0.00  0.00    -0.003 C 
ATOM     30  H   UNL     1      38.058 -24.278 -15.636  0.00  0.00    +0.147 HD
ENDBRANCH  18  20
ENDBRANCH  16  18
ENDBRANCH   1  16
TORSDOF 6
ENDMDL
MODEL 3
REMARK VINA RESULT:     -12.0      3.078      4.865
REMARK  Name = 198752
REMARK  6 active torsions:
REMARK  status: ('A' for Active; 'I' for Inactive)
REMARK    1  A    between atoms: C_1  and  C_3
REMARK    2  A    between atoms: C_1  and  C_16
REMARK    3  A    between atoms: N_2  and  C_9
REMARK    4  A    between atoms: C_9  and  C_10
REMARK    5  A    between atoms: C_16  and  C_18
REMARK    6  A    between atoms: C_18  and  C_20
REMARK                            x       y       z     vdW  Elec       q    Type
REMARK                         _______ _______ _______ _____ _____    ______ ____
ROOT
ATOM      1  C   UNL     1      36.382 -20.937 -18.466  0.00  0.00    +0.008 C 
ENDROOT
BRANCH   1   3
ATOM      2  N   UNL     1      35.611 -17.738 -21.264  0.00  0.00    +0.390 N 
ATOM      3  C   UNL     1      36.239 -20.194 -19.791  0.00  0.00    -0.004 C 
ATOM      4  C   UNL     1      37.207 -19.008 -19.864  0.00  0.00    -0.023 C 
ATOM      5  C   UNL     1      34.802 -19.702 -19.996  0.00  0.00    -0.023 C 
ATOM      6  C   UNL     1      37.001 -18.199 -21.146  0.00  0.00    -0.077 C 
ATOM      7  C   UNL     1      34.676 -18.870 -21.274  0.00  0.00    -0.077 C 
ATOM      8  H   UNL     1      35.400 -17.163 -20.449  0.00  0.00    -0.079 HD
BRANCH   2   9
ATOM      9  C   UNL     1      35.441 -16.923 -22.468  0.00  0.00    -0.050 C 
BRANCH   9  10
ATOM     10  C   UNL     1      35.071 -15.503 -22.135  0.00  0.00    -0.043 C 
ATOM     11  C   UNL     1      34.847 -14.597 -23.163  0.00  0.00    -0.006 C 
ATOM     12  C   UNL     1      34.958 -15.117 -20.806  0.00  0.00    -0.006 C 
ATOM     13  C   UNL     1      34.504 -13.280 -22.855  0.00  0.00    -0.000 C 
ATOM     14  C   UNL     1      34.615 -13.802 -20.499  0.00  0.00    -0.000 C 
ATOM     15  C   UNL     1      34.388 -12.882 -21.524  0.00  0.00    -0.000 C 
ENDBRANCH   9  10
ENDBRANCH   2   9
ENDBRANCH   1   3
BRANCH   1  16
ATOM     16  C   UNL     1      35.034 -21.459 -17.968  0.00  0.00    +0.069 C 
BRANCH  16  18
ATOM     17  O   UNL     1      36.232 -22.409 -16.105  0.00  0.00    -0.291 OA
ATOM     18  C   UNL     1      35.113 -22.149 -16.593  0.00  0.00    +0.173 C 
BRANCH  18  20
ATOM     19  N   UNL     1      30.259 -22.232 -16.455  0.00  0.00    -0.333 N 
ATOM     20  C   UNL     1      33.893 -22.489 -15.880  0.00  0.00    +0.036 C 
ATOM     21  C   UNL     1      31.518 -23.152 -14.526  0.00  0.00    -0.009 C 
ATOM     22  C   UNL     1      30.306 -23.597 -13.731  0.00  0.00    +0.028 C 
ATOM     23  C   UNL     1      31.442 -22.560 -15.806  0.00  0.00    +0.041 C 
ATOM     24  C   UNL     1      29.243 -24.295 -14.578  0.00  0.00    +0.006 C 
ATOM     25  C   UNL     1      28.349 -23.343 -15.372  0.00  0.00    +0.022 C 
ATOM     26  C   UNL     1      32.650 -22.254 -16.469  0.00  0.00    +0.017 C 
ATOM     27  C   UNL     1      29.002 -22.028 -15.770  0.00  0.00    +0.087 C 
ATOM     28  C   UNL     1      33.959 -23.036 -14.609  0.00  0.00    +0.003 C 
ATOM     29  C   UNL     1      32.783 -23.363 -13.937  0.00  0.00    -0.003 C 
ATOM     30  H   UNL     1      30.277 -22.132 -17.435  0.00  0.00    +0.147 HD
ENDBRANCH  18  20
ENDBRANCH  16  18
ENDBRANCH   1  16
TORSDOF 6
ENDMDL
MODEL 4
REMARK VINA RESULT:     -11.9      1.409      2.298
REMARK  Name = 198752
REMARK  6 active torsions:
REMARK  status: ('A' for Active; 'I' for Inactive)
REMARK    1  A    between atoms: C_1  and  C_3
REMARK    2  A    between atoms: C_1  and  C_16
REMARK    3  A    between atoms: N_2  and  C_9
REMARK    4  A    between atoms: C_9  and  C_10
REMARK    5  A    between atoms: C_16  and  C_18
REMARK    6  A    between atoms: C_18  and  C_20
REMARK                            x       y       z     vdW  Elec       q    Type
REMARK                         _______ _______ _______ _____ _____    ______ ____
ROOT
ATOM      1  C   UNL     1      33.689 -22.264 -18.107  0.00  0.00    +0.008 C 
ENDROOT
BRANCH   1   3
ATOM      2  N   UNL     1      35.538 -19.360 -20.716  0.00  0.00    +0.390 N 
ATOM      3  C   UNL     1      34.355 -20.972 -18.572  0.00  0.00    -0.004 C 
ATOM      4  C   UNL     1      33.506 -20.267 -19.634  0.00  0.00    -0.023 C 
ATOM      5  C   UNL     1      35.758 -21.243 -19.126  0.00  0.00    -0.023 C 
ATOM      6  C   UNL     1      34.214 -19.023 -20.177  0.00  0.00    -0.077 C 
ATOM      7  C   UNL     1      36.391 -19.968 -19.686  0.00  0.00    -0.077 C 
ATOM      8  H   UNL     1      35.410 -20.044 -21.461  0.00  0.00    -0.079 HD
BRANCH   2   9
ATOM      9  C   UNL     1      36.181 -18.172 -21.277  0.00  0.00    -0.050 C 
BRANCH   9  10
ATOM     10  C   UNL     1      35.457 -17.666 -22.496  0.00  0.00    -0.043 C 
ATOM     11  C   UNL     1      35.432 -16.303 -22.758  0.00  0.00    -0.006 C 
ATOM     12  C   UNL     1      34.825 -18.567 -23.341  0.00  0.00    -0.006 C 
ATOM     13  C   UNL     1      34.761 -15.833 -23.887  0.00  0.00    -0.000 C 
ATOM     14  C   UNL     1      34.154 -18.098 -24.469  0.00  0.00    -0.000 C 
ATOM     15  C   UNL     1      34.122 -16.730 -24.742  0.00  0.00    -0.000 C 
ENDBRANCH   9  10
ENDBRANCH   2   9
ENDBRANCH   1   3
BRANCH   1  16
ATOM     16  C   UNL     1      32.782 -22.026 -16.900  0.00  0.00    +0.069 C 
BRANCH  16  18
ATOM     17  O   UNL     1      32.213 -23.490 -15.072  0.00  0.00    -0.291 OA
ATOM     18  C   UNL     1      33.131 -22.909 -15.687  0.00  0.00    +0.173 C 
BRANCH  18  20
ATOM     19  N   UNL     1      36.551 -25.547 -13.467  0.00  0.00    -0.333 N 
ATOM     20  C   UNL     1      34.516 -23.057 -15.272  0.00  0.00    +0.036 C 
ATOM     21  C   UNL     1      37.195 -23.373 -14.472  0.00  0.00    -0.009 C 
ATOM     22  C   UNL     1      38.670 -23.462 -14.135  0.00  0.00    +0.028 C 
ATOM     23  C   UNL     1      36.259 -24.389 -14.175  0.00  0.00    +0.041 C 
ATOM     24  C   UNL     1      39.276 -24.839 -14.407  0.00  0.00    +0.006 C 
ATOM     25  C   UNL     1      38.986 -25.876 -13.322  0.00  0.00    +0.022 C 
ATOM     26  C   UNL     1      34.927 -24.211 -14.604  0.00  0.00    +0.017 C 
ATOM     27  C   UNL     1      37.678 -25.673 -12.571  0.00  0.00    +0.087 C 
ATOM     28  C   UNL     1      35.431 -22.048 -15.528  0.00  0.00    +0.003 C 
ATOM     29  C   UNL     1      36.757 -22.203 -15.130  0.00  0.00    -0.003 C 
ATOM     30  H   UNL     1      35.957 -26.324 -13.579  0.00  0.00    +0.147 HD
ENDBRANCH  18  20
ENDBRANCH  16  18
ENDBRANCH   1  16
TORSDOF 6
ENDMDL
MODEL 5
REMARK VINA RESULT:     -11.8      1.586      9.266
REMARK  Name = 198752
REMARK  6 active torsions:
REMARK  status: ('A' for Active; 'I' for Inactive)
REMARK    1  A    between atoms: C_1  and  C_3
REMARK    2  A    between atoms: C_1  and  C_16
REMARK    3  A    between atoms: N_2  and  C_9
REMARK    4  A    between atoms: C_9  and  C_10
REMARK    5  A    between atoms: C_16  and  C_18
REMARK    6  A    between atoms: C_18  and  C_20
REMARK                            x       y       z     vdW  Elec       q    Type
REMARK                         _______ _______ _______ _____ _____    ______ ____
ROOT
ATOM      1  C   UNL     1      32.664 -22.780 -15.270  0.00  0.00    +0.008 C 
ENDROOT
BRANCH   1   3
ATOM      2  N   UNL     1      35.813 -24.347 -12.764  0.00  0.00    +0.390 N 
ATOM      3  C   UNL     1      33.854 -22.815 -14.316  0.00  0.00    -0.004 C 
ATOM      4  C   UNL     1      35.059 -23.505 -14.964  0.00  0.00    -0.023 C 
ATOM      5  C   UNL     1      33.492 -23.526 -13.008  0.00  0.00    -0.023 C 
ATOM      6  C   UNL     1      36.223 -23.633 -13.980  0.00  0.00    -0.077 C 
ATOM      7  C   UNL     1      34.708 -23.653 -12.089  0.00  0.00    -0.077 C 
ATOM      8  H   UNL     1      35.483 -25.272 -13.038  0.00  0.00    -0.079 HD
BRANCH   2   9
ATOM      9  C   UNL     1      36.948 -24.507 -11.855  0.00  0.00    -0.050 C 
BRANCH   9  10
ATOM     10  C   UNL     1      38.217 -24.837 -12.595  0.00  0.00    -0.043 C 
ATOM     11  C   UNL     1      39.309 -23.986 -12.492  0.00  0.00    -0.006 C 
ATOM     12  C   UNL     1      38.278 -25.987 -13.369  0.00  0.00    -0.006 C 
ATOM     13  C   UNL     1      40.484 -24.292 -13.178  0.00  0.00    -0.000 C 
ATOM     14  C   UNL     1      39.453 -26.293 -14.054  0.00  0.00    -0.000 C 
ATOM     15  C   UNL     1      40.557 -25.445 -13.959  0.00  0.00    -0.000 C 
ENDBRANCH   9  10
ENDBRANCH   2   9
ENDBRANCH   1   3
BRANCH   1  16
ATOM     16  C   UNL     1      33.106 -22.936 -16.725  0.00  0.00    +0.069 C 
BRANCH  16  18
ATOM     17  O   UNL     1      31.656 -21.226 -17.612  0.00  0.00    -0.291 OA
ATOM     18  C   UNL     1      32.813 -21.696 -17.591  0.00  0.00    +0.173 C 
BRANCH  18  20
ATOM     19  N   UNL     1      34.162 -18.970 -21.377  0.00  0.00    -0.333 N 
ATOM     20  C   UNL     1      33.878 -21.088 -18.372  0.00  0.00    +0.036 C 
ATOM     21  C   UNL     1      35.921 -19.890 -19.889  0.00  0.00    -0.009 C 
ATOM     22  C   UNL     1      37.096 -19.250 -20.603  0.00  0.00    +0.028 C 
ATOM     23  C   UNL     1      34.574 -19.694 -20.266  0.00  0.00    +0.041 C 
ATOM     24  C   UNL     1      36.857 -17.789 -20.983  0.00  0.00    +0.006 C 
ATOM     25  C   UNL     1      36.015 -17.600 -22.244  0.00  0.00    +0.022 C 
ATOM     26  C   UNL     1      33.570 -20.293 -19.476  0.00  0.00    +0.017 C 
ATOM     27  C   UNL     1      35.010 -18.709 -22.519  0.00  0.00    +0.087 C 
ATOM     28  C   UNL     1      35.203 -21.306 -18.030  0.00  0.00    +0.003 C 
ATOM     29  C   UNL     1      36.215 -20.714 -18.782  0.00  0.00    -0.003 C 
ATOM     30  H   UNL     1      33.244 -18.616 -21.389  0.00  0.00    +0.147 HD
ENDBRANCH  18  20
ENDBRANCH  16  18
ENDBRANCH   1  16
TORSDOF 6
ENDMDL
MODEL 6
REMARK VINA RESULT:     -11.7      1.244      2.302
REMARK  Name = 198752
REMARK  6 active torsions:
REMARK  status: ('A' for Active; 'I' for Inactive)
REMARK    1  A    between atoms: C_1  and  C_3
REMARK    2  A    between atoms: C_1  and  C_16
REMARK    3  A    between atoms: N_2  and  C_9
REMARK    4  A    between atoms: C_9  and  C_10
REMARK    5  A    between atoms: C_16  and  C_18
REMARK    6  A    between atoms: C_18  and  C_20
REMARK                            x       y       z     vdW  Elec       q    Type
REMARK                         _______ _______ _______ _____ _____    ______ ____
ROOT
ATOM      1  C   UNL     1      35.591 -21.029 -18.520  0.00  0.00    +0.008 C 
ENDROOT
BRANCH   1   3
ATOM      2  N   UNL     1      35.575 -17.693 -21.264  0.00  0.00    +0.390 N 
ATOM      3  C   UNL     1      35.723 -20.241 -19.819  0.00  0.00    -0.004 C 
ATOM      4  C   UNL     1      36.808 -19.164 -19.703  0.00  0.00    -0.023 C 
ATOM      5  C   UNL     1      34.390 -19.592 -20.208  0.00  0.00    -0.023 C 
ATOM      6  C   UNL     1      36.877 -18.305 -20.966  0.00  0.00    -0.077 C 
ATOM      7  C   UNL     1      34.540 -18.718 -21.455  0.00  0.00    -0.077 C 
ATOM      8  H   UNL     1      35.306 -17.121 -20.464  0.00  0.00    -0.079 HD
BRANCH   2   9
ATOM      9  C   UNL     1      35.669 -16.834 -22.444  0.00  0.00    -0.050 C 
BRANCH   9  10
ATOM     10  C   UNL     1      35.164 -15.443 -22.166  0.00  0.00    -0.043 C 
ATOM     11  C   UNL     1      35.002 -15.025 -20.852  0.00  0.00    -0.006 C 
ATOM     12  C   UNL     1      34.868 -14.598 -23.226  0.00  0.00    -0.006 C 
ATOM     13  C   UNL     1      34.533 -13.737 -20.595  0.00  0.00    -0.000 C 
ATOM     14  C   UNL     1      34.400 -13.310 -22.969  0.00  0.00    -0.000 C 
ATOM     15  C   UNL     1      34.232 -12.879 -21.653  0.00  0.00    -0.000 C 
ENDBRANCH   9  10
ENDBRANCH   2   9
ENDBRANCH   1   3
BRANCH   1  16
ATOM     16  C   UNL     1      34.501 -22.096 -18.619  0.00  0.00    +0.069 C 
BRANCH  16  18
ATOM     17  O   UNL     1      32.346 -21.722 -17.604  0.00  0.00    -0.291 OA
ATOM     18  C   UNL     1      33.526 -22.090 -17.427  0.00  0.00    +0.173 C 
BRANCH  18  20
ATOM     19  N   UNL     1      37.212 -23.129 -14.440  0.00  0.00    -0.333 N 
ATOM     20  C   UNL     1      33.985 -22.510 -16.112  0.00  0.00    +0.036 C 
ATOM     21  C   UNL     1      34.895 -23.305 -13.572  0.00  0.00    -0.009 C 
ATOM     22  C   UNL     1      35.275 -23.692 -12.156  0.00  0.00    +0.028 C 
ATOM     23  C   UNL     1      35.836 -23.015 -14.585  0.00  0.00    +0.041 C 
ATOM     24  C   UNL     1      36.430 -22.868 -11.588  0.00  0.00    +0.006 C 
ATOM     25  C   UNL     1      37.812 -23.319 -12.060  0.00  0.00    +0.022 C 
ATOM     26  C   UNL     1      35.351 -22.601 -15.843  0.00  0.00    +0.017 C 
ATOM     27  C   UNL     1      37.843 -23.960 -13.439  0.00  0.00    +0.087 C 
ATOM     28  C   UNL     1      33.067 -22.832 -15.125  0.00  0.00    +0.003 C 
ATOM     29  C   UNL     1      33.517 -23.228 -13.868  0.00  0.00    -0.003 C 
ATOM     30  H   UNL     1      37.790 -22.617 -15.051  0.00  0.00    +0.147 HD
ENDBRANCH  18  20
ENDBRANCH  16  18
ENDBRANCH   1  16
TORSDOF 6
ENDMDL
MODEL 7
REMARK VINA RESULT:     -11.5      2.240     10.723
REMARK  Name = 198752
REMARK  6 active torsions:
REMARK  status: ('A' for Active; 'I' for Inactive)
REMARK    1  A    between atoms: C_1  and  C_3
REMARK    2  A    between atoms: C_1  and  C_16
REMARK    3  A    between atoms: N_2  and  C_9
REMARK    4  A    between atoms: C_9  and  C_10
REMARK    5  A    between atoms: C_16  and  C_18
REMARK    6  A    between atoms: C_18  and  C_20
REMARK                            x       y       z     vdW  Elec       q    Type
REMARK                         _______ _______ _______ _____ _____    ______ ____
ROOT
ATOM      1  C   UNL     1      35.051 -21.134 -19.390  0.00  0.00    +0.008 C 
ENDROOT
BRANCH   1   3
ATOM      2  N   UNL     1      35.602 -22.702 -15.403  0.00  0.00    +0.390 N 
ATOM      3  C   UNL     1      35.022 -21.223 -17.867  0.00  0.00    -0.004 C 
ATOM      4  C   UNL     1      36.439 -21.347 -17.296  0.00  0.00    -0.023 C 
ATOM      5  C   UNL     1      34.170 -22.407 -17.399  0.00  0.00    -0.023 C 
ATOM      6  C   UNL     1      36.412 -21.536 -15.778  0.00  0.00    -0.077 C 
ATOM      7  C   UNL     1      34.219 -22.561 -15.878  0.00  0.00    -0.077 C 
ATOM      8  H   UNL     1      36.006 -23.524 -15.852  0.00  0.00    -0.079 HD
BRANCH   2   9
ATOM      9  C   UNL     1      35.628 -22.901 -13.954  0.00  0.00    -0.050 C 
BRANCH   9  10
ATOM     10  C   UNL     1      36.769 -23.787 -13.530  0.00  0.00    -0.043 C 
ATOM     11  C   UNL     1      36.823 -25.097 -13.988  0.00  0.00    -0.006 C 
ATOM     12  C   UNL     1      37.751 -23.284 -12.689  0.00  0.00    -0.006 C 
ATOM     13  C   UNL     1      37.880 -25.918 -13.594  0.00  0.00    -0.000 C 
ATOM     14  C   UNL     1      38.808 -24.104 -12.297  0.00  0.00    -0.000 C 
ATOM     15  C   UNL     1      38.872 -25.423 -12.749  0.00  0.00    -0.000 C 
ENDBRANCH   9  10
ENDBRANCH   2   9
ENDBRANCH   1   3
BRANCH   1  16
ATOM     16  C   UNL     1      34.579 -19.766 -19.882  0.00  0.00    +0.069 C 
BRANCH  16  18
ATOM     17  O   UNL     1      36.910 -19.163 -20.019  0.00  0.00    -0.291 OA
ATOM     18  C   UNL     1      35.734 -18.818 -20.259  0.00  0.00    +0.173 C 
BRANCH  18  20
ATOM     19  N   UNL     1      34.778 -16.280 -24.288  0.00  0.00    -0.333 N 
ATOM     20  C   UNL     1      35.446 -17.539 -20.887  0.00  0.00    +0.036 C 
ATOM     21  C   UNL     1      34.874 -15.077 -22.122  0.00  0.00    -0.009 C 
ATOM     22  C   UNL     1      34.522 -13.709 -22.674  0.00  0.00    +0.028 C 
ATOM     23  C   UNL     1      34.939 -16.247 -22.910  0.00  0.00    +0.041 C 
ATOM     24  C   UNL     1      33.376 -13.735 -23.684  0.00  0.00    +0.006 C 
ATOM     25  C   UNL     1      33.788 -14.174 -25.088  0.00  0.00    +0.022 C 
ATOM     26  C   UNL     1      35.211 -17.470 -22.261  0.00  0.00    +0.017 C 
ATOM     27  C   UNL     1      34.970 -15.130 -25.143  0.00  0.00    +0.087 C 
ATOM     28  C   UNL     1      35.417 -16.381 -20.126  0.00  0.00    +0.003 C 
ATOM     29  C   UNL     1      35.135 -15.161 -20.737  0.00  0.00    -0.003 C 
ATOM     30  H   UNL     1      34.520 -17.133 -24.707  0.00  0.00    +0.147 HD
ENDBRANCH  18  20
ENDBRANCH  16  18
ENDBRANCH   1  16
TORSDOF 6
ENDMDL
MODEL 8
REMARK VINA RESULT:     -11.4      3.006      4.496
REMARK  Name = 198752
REMARK  6 active torsions:
REMARK  status: ('A' for Active; 'I' for Inactive)
REMARK    1  A    between atoms: C_1  and  C_3
REMARK    2  A    between atoms: C_1  and  C_16
REMARK    3  A    between atoms: N_2  and  C_9
REMARK    4  A    between atoms: C_9  and  C_10
REMARK    5  A    between atoms: C_16  and  C_18
REMARK    6  A    between atoms: C_18  and  C_20
REMARK                            x       y       z     vdW  Elec       q    Type
REMARK                         _______ _______ _______ _____ _____    ______ ____
ROOT
ATOM      1  C   UNL     1      35.685 -20.162 -19.341  0.00  0.00    +0.008 C 
ENDROOT
BRANCH   1   3
ATOM      2  N   UNL     1      35.218 -17.192 -22.443  0.00  0.00    +0.390 N 
ATOM      3  C   UNL     1      35.785 -19.484 -20.704  0.00  0.00    -0.004 C 
ATOM      4  C   UNL     1      36.562 -18.167 -20.609  0.00  0.00    -0.023 C 
ATOM      5  C   UNL     1      34.395 -19.223 -21.294  0.00  0.00    -0.023 C 
ATOM      6  C   UNL     1      36.581 -17.433 -21.951  0.00  0.00    -0.077 C 
ATOM      7  C   UNL     1      34.486 -18.454 -22.614  0.00  0.00    -0.077 C 
ATOM      8  H   UNL     1      34.725 -16.635 -21.745  0.00  0.00    -0.079 HD
BRANCH   2   9
ATOM      9  C   UNL     1      35.251 -16.445 -23.700  0.00  0.00    -0.050 C 
BRANCH   9  10
ATOM     10  C   UNL     1      34.706 -15.051 -23.538  0.00  0.00    -0.043 C 
ATOM     11  C   UNL     1      33.975 -14.479 -24.571  0.00  0.00    -0.006 C 
ATOM     12  C   UNL     1      34.941 -14.357 -22.359  0.00  0.00    -0.006 C 
ATOM     13  C   UNL     1      33.471 -13.187 -24.421  0.00  0.00    -0.000 C 
ATOM     14  C   UNL     1      34.436 -13.066 -22.209  0.00  0.00    -0.000 C 
ATOM     15  C   UNL     1      33.701 -12.481 -23.241  0.00  0.00    -0.000 C 
ENDBRANCH   9  10
ENDBRANCH   2   9
ENDBRANCH   1   3
BRANCH   1  16
ATOM     16  C   UNL     1      34.248 -20.578 -19.026  0.00  0.00    +0.069 C 
BRANCH  16  18
ATOM     17  O   UNL     1      34.291 -22.962 -19.385  0.00  0.00    -0.291 OA
ATOM     18  C   UNL     1      34.122 -22.041 -18.559  0.00  0.00    +0.173 C 
BRANCH  18  20
ATOM     19  N   UNL     1      30.784 -22.862 -15.128  0.00  0.00    -0.333 N 
ATOM     20  C   UNL     1      33.809 -22.335 -17.170  0.00  0.00    +0.036 C 
ATOM     21  C   UNL     1      33.180 -22.919 -14.491  0.00  0.00    -0.009 C 
ATOM     22  C   UNL     1      32.958 -23.283 -13.036  0.00  0.00    +0.028 C 
ATOM     23  C   UNL     1      32.136 -22.775 -15.431  0.00  0.00    +0.041 C 
ATOM     24  C   UNL     1      31.907 -24.374 -12.834  0.00  0.00    +0.006 C 
ATOM     25  C   UNL     1      30.464 -23.874 -12.908  0.00  0.00    +0.022 C 
ATOM     26  C   UNL     1      32.482 -22.499 -16.771  0.00  0.00    +0.017 C 
ATOM     27  C   UNL     1      30.248 -22.661 -13.800  0.00  0.00    +0.087 C 
ATOM     28  C   UNL     1      34.826 -22.441 -16.235  0.00  0.00    +0.003 C 
ATOM     29  C   UNL     1      34.515 -22.728 -14.908  0.00  0.00    -0.003 C 
ATOM     30  H   UNL     1      30.155 -23.070 -15.857  0.00  0.00    +0.147 HD
ENDBRANCH  18  20
ENDBRANCH  16  18
ENDBRANCH   1  16
TORSDOF 6
ENDMDL
MODEL 9
REMARK VINA RESULT:     -11.4      5.523     12.911
REMARK  Name = 198752
REMARK  6 active torsions:
REMARK  status: ('A' for Active; 'I' for Inactive)
REMARK    1  A    between atoms: C_1  and  C_3
REMARK    2  A    between atoms: C_1  and  C_16
REMARK    3  A    between atoms: N_2  and  C_9
REMARK    4  A    between atoms: C_9  and  C_10
REMARK    5  A    between atoms: C_16  and  C_18
REMARK    6  A    between atoms: C_18  and  C_20
REMARK                            x       y       z     vdW  Elec       q    Type
REMARK                         _______ _______ _______ _____ _____    ______ ____
ROOT
ATOM      1  C   UNL     1      34.152 -12.828 -21.219  0.00  0.00    +0.008 C 
ENDROOT
BRANCH   1   3
ATOM      2  N   UNL     1      35.111 -17.035 -21.414  0.00  0.00    +0.390 N 
ATOM      3  C   UNL     1      34.978 -14.110 -21.278  0.00  0.00    -0.004 C 
ATOM      4  C   UNL     1      34.698 -14.887 -22.569  0.00  0.00    -0.023 C 
ATOM      5  C   UNL     1      34.698 -15.003 -20.065  0.00  0.00    -0.023 C 
ATOM      6  C   UNL     1      35.447 -16.221 -22.589  0.00  0.00    -0.077 C 
ATOM      7  C   UNL     1      35.447 -16.333 -20.168  0.00  0.00    -0.077 C 
ATOM      8  H   UNL     1      34.104 -17.198 -21.421  0.00  0.00    -0.079 HD
BRANCH   2   9
ATOM      9  C   UNL     1      35.794 -18.328 -21.473  0.00  0.00    -0.050 C 
BRANCH   9  10
ATOM     10  C   UNL     1      35.232 -19.304 -20.474  0.00  0.00    -0.043 C 
ATOM     11  C   UNL     1      33.858 -19.480 -20.389  0.00  0.00    -0.006 C 
ATOM     12  C   UNL     1      36.096 -20.016 -19.652  0.00  0.00    -0.006 C 
ATOM     13  C   UNL     1      33.338 -20.385 -19.463  0.00  0.00    -0.000 C 
ATOM     14  C   UNL     1      35.576 -20.920 -18.728  0.00  0.00    -0.000 C 
ATOM     15  C   UNL     1      34.196 -21.105 -18.633  0.00  0.00    -0.000 C 
ENDBRANCH   9  10
ENDBRANCH   2   9
ENDBRANCH   1   3
BRANCH   1  16
ATOM     16  C   UNL     1      32.726 -13.102 -20.741  0.00  0.00    +0.069 C 
BRANCH  16  18
ATOM     17  O   UNL     1      31.887 -12.373 -18.602  0.00  0.00    -0.291 OA
ATOM     18  C   UNL     1      32.191 -12.037 -19.766  0.00  0.00    +0.173 C 
BRANCH  18  20
ATOM     19  N   UNL     1      32.480  -7.295 -18.756  0.00  0.00    -0.333 N 
ATOM     20  C   UNL     1      32.046 -10.659 -20.204  0.00  0.00    +0.036 C 
ATOM     21  C   UNL     1      31.788  -7.983 -21.036  0.00  0.00    -0.009 C 
ATOM     22  C   UNL     1      31.665  -6.583 -21.604  0.00  0.00    +0.028 C 
ATOM     23  C   UNL     1      32.210  -8.260 -19.717  0.00  0.00    +0.041 C 
ATOM     24  C   UNL     1      32.819  -5.662 -21.211  0.00  0.00    +0.006 C 
ATOM     25  C   UNL     1      32.703  -5.079 -19.803  0.00  0.00    +0.022 C 
ATOM     26  C   UNL     1      32.348  -9.611 -19.333  0.00  0.00    +0.017 C 
ATOM     27  C   UNL     1      31.953  -5.949 -18.806  0.00  0.00    +0.087 C 
ATOM     28  C   UNL     1      31.597 -10.379 -21.485  0.00  0.00    +0.003 C 
ATOM     29  C   UNL     1      31.467  -9.055 -21.897  0.00  0.00    -0.003 C 
ATOM     30  H   UNL     1      33.060  -7.540 -17.999  0.00  0.00    +0.147 HD
ENDBRANCH  18  20
ENDBRANCH  16  18
ENDBRANCH   1  16
TORSDOF 6
ENDMDL
