MODEL 1
REMARK VINA RESULT:     -13.0      0.000      0.000
REMARK  Name = 24871491
REMARK  6 active torsions:
REMARK  status: ('A' for Active; 'I' for Inactive)
REMARK    1  A    between atoms: N_1  and  C_11
REMARK    2  A    between atoms: N_2  and  C_18
REMARK    3  A    between atoms: C_6  and  C_31
REMARK    4  A    between atoms: C_19  and  C_24
REMARK    5  A    between atoms: C_24  and  C_26
REMARK    6  A    between atoms: C_26  and  O_27
REMARK                            x       y       z     vdW  Elec       q    Type
REMARK                         _______ _______ _______ _____ _____    ______ ____
ROOT
ATOM      1  N   UNL     1      32.847 -22.681 -16.606  0.00  0.00    -0.287 N 
ATOM      2  N   UNL     1      34.450 -24.046 -12.388  0.00  0.00    -0.247 N 
ATOM      3  N   UNL     1      33.666 -23.368 -14.490  0.00  0.00    -0.322 NA
ATOM      4  N   UNL     1      32.142 -23.751 -12.664  0.00  0.00    -0.169 NA
ATOM      5  C   UNL     1      32.604 -23.047 -15.260  0.00  0.00    +0.202 C 
ATOM      6  C   UNL     1      31.300 -23.054 -14.808  0.00  0.00    +0.118 C 
ATOM      7  C   UNL     1      33.366 -23.705 -13.221  0.00  0.00    +0.150 C 
ATOM      8  C   UNL     1      31.127 -23.419 -13.489  0.00  0.00    +0.120 C 
ATOM      9  H   UNL     1      32.110 -22.906 -17.218  0.00  0.00    +0.155 HD
ATOM     10  H   UNL     1      34.184 -24.284 -11.471  0.00  0.00    +0.165 HD
ENDROOT
BRANCH   1  11
ATOM     11  C   UNL     1      33.937 -22.061 -17.238  0.00  0.00    +0.050 C 
ATOM     12  C   UNL     1      35.157 -21.944 -16.571  0.00  0.00    +0.010 C 
ATOM     13  C   UNL     1      36.239 -21.328 -17.199  0.00  0.00    -0.021 C 
ATOM     14  C   UNL     1      33.801 -21.561 -18.533  0.00  0.00    +0.015 C 
ATOM     15  C   UNL     1      36.103 -20.829 -18.494  0.00  0.00    -0.004 C 
ATOM     16  C   UNL     1      34.883 -20.944 -19.161  0.00  0.00    +0.001 C 
ATOM     17  C   UNL     1      37.543 -21.202 -16.485  0.00  0.00    +0.031 C 
ENDBRANCH   1  11
BRANCH   2  18
ATOM     18  C   UNL     1      35.841 -24.112 -12.610  0.00  0.00    +0.058 C 
ATOM     19  C   UNL     1      38.592 -24.244 -13.049  0.00  0.00    -0.011 C 
ATOM     20  C   UNL     1      36.332 -24.347 -13.893  0.00  0.00    +0.015 C 
ATOM     21  C   UNL     1      36.726 -23.944 -11.544  0.00  0.00    +0.015 C 
ATOM     22  C   UNL     1      37.708 -24.413 -14.113  0.00  0.00    -0.002 C 
ATOM     23  C   UNL     1      38.101 -24.010 -11.764  0.00  0.00    -0.002 C 
BRANCH  19  24
ATOM     24  C   UNL     1      40.064 -24.315 -13.283  0.00  0.00    +0.136 C 
BRANCH  24  26
ATOM     25  O   UNL     1      40.657 -26.561 -14.013  0.00  0.00    -0.250 OA
ATOM     26  C   UNL     1      40.467 -25.382 -14.281  0.00  0.00    +0.318 C 
BRANCH  26  27
ATOM     27  O   UNL     1      40.599 -24.878 -15.537  0.00  0.00    -0.480 OA
ATOM     28  H   UNL     1      39.897 -24.961 -16.151  0.00  0.00    +0.295 HD
ENDBRANCH  26  27
ENDBRANCH  24  26
ENDBRANCH  19  24
ENDBRANCH   2  18
BRANCH   6  31
ATOM     29  O   UNL     1      30.201 -21.769 -16.448  0.00  0.00    -0.270 OA
ATOM     30  N   UNL     1      29.006 -23.483 -15.505  0.00  0.00    -0.325 N 
ATOM     31  C   UNL     1      30.155 -22.710 -15.636  0.00  0.00    +0.248 C 
ATOM     32  H   UNL     1      28.211 -23.279 -16.049  0.00  0.00    +0.145 HD
ATOM     33  H   UNL     1      28.987 -24.233 -14.868  0.00  0.00    +0.145 HD
ENDBRANCH   6  31
TORSDOF 6
ENDMDL
MODEL 2
REMARK VINA RESULT:     -12.0      2.070      7.344
REMARK  Name = 24871491
REMARK  6 active torsions:
REMARK  status: ('A' for Active; 'I' for Inactive)
REMARK    1  A    between atoms: N_1  and  C_11
REMARK    2  A    between atoms: N_2  and  C_18
REMARK    3  A    between atoms: C_6  and  C_31
REMARK    4  A    between atoms: C_19  and  C_24
REMARK    5  A    between atoms: C_24  and  C_26
REMARK    6  A    between atoms: C_26  and  O_27
REMARK                            x       y       z     vdW  Elec       q    Type
REMARK                         _______ _______ _______ _____ _____    ______ ____
ROOT
ATOM      1  N   UNL     1      35.860 -21.887 -15.053  0.00  0.00    -0.287 N 
ATOM      2  N   UNL     1      32.109 -23.897 -13.025  0.00  0.00    -0.247 N 
ATOM      3  N   UNL     1      33.966 -22.893 -14.043  0.00  0.00    -0.322 NA
ATOM      4  N   UNL     1      34.192 -24.101 -11.971  0.00  0.00    -0.169 NA
ATOM      5  C   UNL     1      35.292 -22.644 -13.999  0.00  0.00    +0.202 C 
ATOM      6  C   UNL     1      36.121 -23.084 -12.988  0.00  0.00    +0.118 C 
ATOM      7  C   UNL     1      33.490 -23.617 -13.012  0.00  0.00    +0.150 C 
ATOM      8  C   UNL     1      35.511 -23.815 -11.990  0.00  0.00    +0.120 C 
ATOM      9  H   UNL     1      36.642 -21.354 -14.783  0.00  0.00    +0.155 HD
ATOM     10  H   UNL     1      31.807 -24.428 -12.254  0.00  0.00    +0.165 HD
ENDROOT
BRANCH   1  11
ATOM     11  C   UNL     1      35.524 -21.750 -16.410  0.00  0.00    +0.050 C 
ATOM     12  C   UNL     1      36.409 -21.125 -17.288  0.00  0.00    +0.010 C 
ATOM     13  C   UNL     1      36.074 -20.989 -18.635  0.00  0.00    -0.021 C 
ATOM     14  C   UNL     1      34.305 -22.239 -16.879  0.00  0.00    +0.015 C 
ATOM     15  C   UNL     1      34.856 -21.478 -19.105  0.00  0.00    -0.004 C 
ATOM     16  C   UNL     1      33.970 -22.103 -18.226  0.00  0.00    +0.001 C 
ATOM     17  C   UNL     1      37.020 -20.320 -19.575  0.00  0.00    +0.031 C 
ENDBRANCH   1  11
BRANCH   2  18
ATOM     18  C   UNL     1      31.076 -23.566 -13.925  0.00  0.00    +0.058 C 
ATOM     19  C   UNL     1      29.032 -22.913 -15.707  0.00  0.00    -0.011 C 
ATOM     20  C   UNL     1      30.301 -24.574 -14.497  0.00  0.00    +0.015 C 
ATOM     21  C   UNL     1      30.830 -22.231 -14.245  0.00  0.00    +0.015 C 
ATOM     22  C   UNL     1      29.278 -24.248 -15.388  0.00  0.00    -0.002 C 
ATOM     23  C   UNL     1      29.808 -21.904 -15.136  0.00  0.00    -0.002 C 
BRANCH  19  24
ATOM     24  C   UNL     1      27.939 -22.564 -16.660  0.00  0.00    +0.136 C 
BRANCH  24  26
ATOM     25  O   UNL     1      26.298 -21.779 -15.041  0.00  0.00    -0.250 OA
ATOM     26  C   UNL     1      26.916 -21.605 -16.082  0.00  0.00    +0.318 C 
BRANCH  26  27
ATOM     27  O   UNL     1      26.754 -20.505 -16.865  0.00  0.00    -0.480 OA
ATOM     28  H   UNL     1      26.949 -19.655 -16.524  0.00  0.00    +0.295 HD
ENDBRANCH  26  27
ENDBRANCH  24  26
ENDBRANCH  19  24
ENDBRANCH   2  18
BRANCH   6  31
ATOM     29  O   UNL     1      38.261 -22.897 -13.956  0.00  0.00    -0.270 OA
ATOM     30  N   UNL     1      38.096 -22.444 -11.714  0.00  0.00    -0.325 N 
ATOM     31  C   UNL     1      37.550 -22.816 -12.938  0.00  0.00    +0.248 C 
ATOM     32  H   UNL     1      39.060 -22.255 -11.642  0.00  0.00    +0.145 HD
ATOM     33  H   UNL     1      37.520 -22.371 -10.920  0.00  0.00    +0.145 HD
ENDBRANCH   6  31
TORSDOF 6
ENDMDL
MODEL 3
REMARK VINA RESULT:     -11.8      1.269      2.064
REMARK  Name = 24871491
REMARK  6 active torsions:
REMARK  status: ('A' for Active; 'I' for Inactive)
REMARK    1  A    between atoms: N_1  and  C_11
REMARK    2  A    between atoms: N_2  and  C_18
REMARK    3  A    between atoms: C_6  and  C_31
REMARK    4  A    between atoms: C_19  and  C_24
REMARK    5  A    between atoms: C_24  and  C_26
REMARK    6  A    between atoms: C_26  and  O_27
REMARK                            x       y       z     vdW  Elec       q    Type
REMARK                         _______ _______ _______ _____ _____    ______ ____
ROOT
ATOM      1  N   UNL     1      32.062 -22.165 -16.892  0.00  0.00    -0.287 N 
ATOM      2  N   UNL     1      34.280 -23.836 -13.083  0.00  0.00    -0.247 N 
ATOM      3  N   UNL     1      33.189 -23.006 -14.984  0.00  0.00    -0.322 NA
ATOM      4  N   UNL     1      31.995 -23.344 -12.919  0.00  0.00    -0.169 NA
ATOM      5  C   UNL     1      32.037 -22.568 -15.535  0.00  0.00    +0.202 C 
ATOM      6  C   UNL     1      30.842 -22.489 -14.850  0.00  0.00    +0.118 C 
ATOM      7  C   UNL     1      33.096 -23.373 -13.691  0.00  0.00    +0.150 C 
ATOM      8  C   UNL     1      30.880 -22.895 -13.532  0.00  0.00    +0.120 C 
ATOM      9  H   UNL     1      31.209 -22.302 -17.363  0.00  0.00    +0.155 HD
ATOM     10  H   UNL     1      34.166 -24.091 -12.140  0.00  0.00    +0.165 HD
ENDROOT
BRANCH   1  11
ATOM     11  C   UNL     1      33.069 -21.607 -17.697  0.00  0.00    +0.050 C 
ATOM     12  C   UNL     1      32.731 -20.738 -18.735  0.00  0.00    +0.010 C 
ATOM     13  C   UNL     1      33.731 -20.184 -19.534  0.00  0.00    -0.021 C 
ATOM     14  C   UNL     1      34.406 -21.922 -17.459  0.00  0.00    +0.015 C 
ATOM     15  C   UNL     1      35.069 -20.499 -19.296  0.00  0.00    -0.004 C 
ATOM     16  C   UNL     1      35.407 -21.369 -18.259  0.00  0.00    +0.001 C 
ATOM     17  C   UNL     1      33.370 -19.256 -20.644  0.00  0.00    +0.031 C 
ENDBRANCH   1  11
BRANCH   2  18
ATOM     18  C   UNL     1      35.597 -24.004 -13.560  0.00  0.00    +0.058 C 
ATOM     19  C   UNL     1      38.200 -24.338 -14.504  0.00  0.00    -0.011 C 
ATOM     20  C   UNL     1      36.478 -22.924 -13.570  0.00  0.00    +0.015 C 
ATOM     21  C   UNL     1      36.016 -25.252 -14.023  0.00  0.00    +0.015 C 
ATOM     22  C   UNL     1      37.781 -23.091 -14.042  0.00  0.00    -0.002 C 
ATOM     23  C   UNL     1      37.318 -25.418 -14.495  0.00  0.00    -0.002 C 
BRANCH  19  24
ATOM     24  C   UNL     1      39.592 -24.516 -15.008  0.00  0.00    +0.136 C 
BRANCH  24  26
ATOM     25  O   UNL     1      40.832 -24.202 -12.936  0.00  0.00    -0.250 OA
ATOM     26  C   UNL     1      40.586 -24.881 -13.924  0.00  0.00    +0.318 C 
BRANCH  26  27
ATOM     27  O   UNL     1      41.193 -26.072 -14.173  0.00  0.00    -0.480 OA
ATOM     28  H   UNL     1      42.096 -26.193 -13.954  0.00  0.00    +0.295 HD
ENDBRANCH  26  27
ENDBRANCH  24  26
ENDBRANCH  19  24
ENDBRANCH   2  18
BRANCH   6  31
ATOM     29  O   UNL     1      29.443 -21.979 -16.676  0.00  0.00    -0.270 OA
ATOM     30  N   UNL     1      28.579 -21.628 -14.581  0.00  0.00    -0.325 N 
ATOM     31  C   UNL     1      29.600 -22.018 -15.442  0.00  0.00    +0.248 C 
ATOM     32  H   UNL     1      27.724 -21.303 -14.945  0.00  0.00    +0.145 HD
ATOM     33  H   UNL     1      28.712 -21.676 -13.607  0.00  0.00    +0.145 HD
ENDBRANCH   6  31
TORSDOF 6
ENDMDL
MODEL 4
REMARK VINA RESULT:     -11.7      3.076      6.442
REMARK  Name = 24871491
REMARK  6 active torsions:
REMARK  status: ('A' for Active; 'I' for Inactive)
REMARK    1  A    between atoms: N_1  and  C_11
REMARK    2  A    between atoms: N_2  and  C_18
REMARK    3  A    between atoms: C_6  and  C_31
REMARK    4  A    between atoms: C_19  and  C_24
REMARK    5  A    between atoms: C_24  and  C_26
REMARK    6  A    between atoms: C_26  and  O_27
REMARK                            x       y       z     vdW  Elec       q    Type
REMARK                         _______ _______ _______ _____ _____    ______ ____
ROOT
ATOM      1  N   UNL     1      34.289 -22.970 -13.843  0.00  0.00    -0.287 N 
ATOM      2  N   UNL     1      32.362 -21.616 -17.927  0.00  0.00    -0.247 N 
ATOM      3  N   UNL     1      33.332 -22.283 -15.900  0.00  0.00    -0.322 NA
ATOM      4  N   UNL     1      31.015 -22.744 -16.376  0.00  0.00    -0.169 NA
ATOM      5  C   UNL     1      33.169 -22.893 -14.707  0.00  0.00    +0.202 C 
ATOM      6  C   UNL     1      31.977 -23.445 -14.284  0.00  0.00    +0.118 C 
ATOM      7  C   UNL     1      32.229 -22.245 -16.673  0.00  0.00    +0.150 C 
ATOM      8  C   UNL     1      30.923 -23.339 -15.168  0.00  0.00    +0.120 C 
ATOM      9  H   UNL     1      34.054 -22.975 -12.888  0.00  0.00    +0.155 HD
ATOM     10  H   UNL     1      31.533 -21.613 -18.457  0.00  0.00    +0.165 HD
ENDROOT
BRANCH   1  11
ATOM     11  C   UNL     1      35.671 -23.039 -14.086  0.00  0.00    +0.050 C 
ATOM     12  C   UNL     1      36.435 -24.041 -13.486  0.00  0.00    +0.010 C 
ATOM     13  C   UNL     1      37.807 -24.109 -13.728  0.00  0.00    -0.021 C 
ATOM     14  C   UNL     1      36.279 -22.108 -14.927  0.00  0.00    +0.015 C 
ATOM     15  C   UNL     1      38.415 -23.178 -14.569  0.00  0.00    -0.004 C 
ATOM     16  C   UNL     1      37.651 -22.176 -15.168  0.00  0.00    +0.001 C 
ATOM     17  C   UNL     1      38.624 -25.179 -13.086  0.00  0.00    +0.031 C 
ENDBRANCH   1  11
BRANCH   2  18
ATOM     18  C   UNL     1      33.449 -20.991 -18.572  0.00  0.00    +0.058 C 
ATOM     19  C   UNL     1      35.598 -19.755 -19.849  0.00  0.00    -0.011 C 
ATOM     20  C   UNL     1      33.217 -20.038 -19.562  0.00  0.00    +0.015 C 
ATOM     21  C   UNL     1      34.756 -21.328 -18.220  0.00  0.00    +0.015 C 
ATOM     22  C   UNL     1      34.292 -19.419 -20.201  0.00  0.00    -0.002 C 
ATOM     23  C   UNL     1      35.831 -20.710 -18.859  0.00  0.00    -0.002 C 
BRANCH  19  24
ATOM     24  C   UNL     1      36.748 -19.094 -20.532  0.00  0.00    +0.136 C 
BRANCH  24  26
ATOM     25  O   UNL     1      35.884 -16.821 -20.408  0.00  0.00    -0.250 OA
ATOM     26  C   UNL     1      36.426 -17.708 -21.053  0.00  0.00    +0.318 C 
BRANCH  26  27
ATOM     27  O   UNL     1      36.810 -17.552 -22.348  0.00  0.00    -0.480 OA
ATOM     28  H   UNL     1      36.492 -18.140 -23.005  0.00  0.00    +0.295 HD
ENDBRANCH  26  27
ENDBRANCH  24  26
ENDBRANCH  19  24
ENDBRANCH   2  18
BRANCH   6  31
ATOM     29  O   UNL     1      32.775 -24.439 -12.303  0.00  0.00    -0.270 OA
ATOM     30  N   UNL     1      30.499 -24.325 -12.560  0.00  0.00    -0.325 N 
ATOM     31  C   UNL     1      31.800 -24.101 -12.999  0.00  0.00    +0.248 C 
ATOM     32  H   UNL     1      30.340 -24.768 -11.695  0.00  0.00    +0.145 HD
ATOM     33  H   UNL     1      29.737 -24.042 -13.115  0.00  0.00    +0.145 HD
ENDBRANCH   6  31
TORSDOF 6
ENDMDL
MODEL 5
REMARK VINA RESULT:     -11.1      3.023      7.284
REMARK  Name = 24871491
REMARK  6 active torsions:
REMARK  status: ('A' for Active; 'I' for Inactive)
REMARK    1  A    between atoms: N_1  and  C_11
REMARK    2  A    between atoms: N_2  and  C_18
REMARK    3  A    between atoms: C_6  and  C_31
REMARK    4  A    between atoms: C_19  and  C_24
REMARK    5  A    between atoms: C_24  and  C_26
REMARK    6  A    between atoms: C_26  and  O_27
REMARK                            x       y       z     vdW  Elec       q    Type
REMARK                         _______ _______ _______ _____ _____    ______ ____
ROOT
ATOM      1  N   UNL     1      34.663 -24.215 -13.644  0.00  0.00    -0.287 N 
ATOM      2  N   UNL     1      37.557 -21.746 -16.428  0.00  0.00    -0.247 N 
ATOM      3  N   UNL     1      36.108 -22.971 -15.052  0.00  0.00    -0.322 NA
ATOM      4  N   UNL     1      38.463 -22.837 -14.563  0.00  0.00    -0.169 NA
ATOM      5  C   UNL     1      35.962 -23.746 -13.956  0.00  0.00    +0.202 C 
ATOM      6  C   UNL     1      37.005 -24.103 -13.126  0.00  0.00    +0.118 C 
ATOM      7  C   UNL     1      37.367 -22.558 -15.292  0.00  0.00    +0.150 C 
ATOM      8  C   UNL     1      38.246 -23.616 -13.482  0.00  0.00    +0.120 C 
ATOM      9  H   UNL     1      34.655 -25.083 -13.180  0.00  0.00    +0.155 HD
ATOM     10  H   UNL     1      38.491 -21.468 -16.563  0.00  0.00    +0.165 HD
ENDROOT
BRANCH   1  11
ATOM     11  C   UNL     1      33.383 -23.683 -13.867  0.00  0.00    +0.050 C 
ATOM     12  C   UNL     1      33.067 -23.124 -15.107  0.00  0.00    +0.010 C 
ATOM     13  C   UNL     1      31.795 -22.596 -15.328  0.00  0.00    -0.021 C 
ATOM     14  C   UNL     1      32.428 -23.712 -12.852  0.00  0.00    +0.015 C 
ATOM     15  C   UNL     1      30.840 -22.625 -14.312  0.00  0.00    -0.004 C 
ATOM     16  C   UNL     1      31.157 -23.183 -13.073  0.00  0.00    +0.001 C 
ATOM     17  C   UNL     1      31.457 -21.998 -16.652  0.00  0.00    +0.031 C 
ENDBRANCH   1  11
BRANCH   2  18
ATOM     18  C   UNL     1      36.672 -21.254 -17.409  0.00  0.00    +0.058 C 
ATOM     19  C   UNL     1      34.920 -20.282 -19.350  0.00  0.00    -0.011 C 
ATOM     20  C   UNL     1      35.329 -21.627 -17.386  0.00  0.00    +0.015 C 
ATOM     21  C   UNL     1      37.140 -20.395 -18.404  0.00  0.00    +0.015 C 
ATOM     22  C   UNL     1      34.452 -21.141 -18.357  0.00  0.00    -0.002 C 
ATOM     23  C   UNL     1      36.265 -19.909 -19.374  0.00  0.00    -0.002 C 
BRANCH  19  24
ATOM     24  C   UNL     1      33.984 -19.762 -20.388  0.00  0.00    +0.136 C 
BRANCH  24  26
ATOM     25  O   UNL     1      34.899 -19.023 -22.520  0.00  0.00    -0.250 OA
ATOM     26  C   UNL     1      34.630 -18.785 -21.351  0.00  0.00    +0.318 C 
BRANCH  26  27
ATOM     27  O   UNL     1      34.887 -17.587 -20.761  0.00  0.00    -0.480 OA
ATOM     28  H   UNL     1      35.771 -17.289 -20.674  0.00  0.00    +0.295 HD
ENDBRANCH  26  27
ENDBRANCH  24  26
ENDBRANCH  19  24
ENDBRANCH   2  18
BRANCH   6  31
ATOM     29  O   UNL     1      36.087 -24.616 -11.019  0.00  0.00    -0.270 OA
ATOM     30  N   UNL     1      37.573 -26.126 -11.894  0.00  0.00    -0.325 N 
ATOM     31  C   UNL     1      36.851 -24.938 -11.946  0.00  0.00    +0.248 C 
ATOM     32  H   UNL     1      37.494 -26.717 -11.110  0.00  0.00    +0.145 HD
ATOM     33  H   UNL     1      38.165 -26.375 -12.640  0.00  0.00    +0.145 HD
ENDBRANCH   6  31
TORSDOF 6
ENDMDL
MODEL 6
REMARK VINA RESULT:     -10.5      2.925      7.371
REMARK  Name = 24871491
REMARK  6 active torsions:
REMARK  status: ('A' for Active; 'I' for Inactive)
REMARK    1  A    between atoms: N_1  and  C_11
REMARK    2  A    between atoms: N_2  and  C_18
REMARK    3  A    between atoms: C_6  and  C_31
REMARK    4  A    between atoms: C_19  and  C_24
REMARK    5  A    between atoms: C_24  and  C_26
REMARK    6  A    between atoms: C_26  and  O_27
REMARK                            x       y       z     vdW  Elec       q    Type
REMARK                         _______ _______ _______ _____ _____    ______ ____
ROOT
ATOM      1  N   UNL     1      34.750 -24.236 -13.867  0.00  0.00    -0.287 N 
ATOM      2  N   UNL     1      37.616 -21.662 -16.584  0.00  0.00    -0.247 N 
ATOM      3  N   UNL     1      36.181 -22.939 -15.241  0.00  0.00    -0.322 NA
ATOM      4  N   UNL     1      38.529 -22.766 -14.730  0.00  0.00    -0.169 NA
ATOM      5  C   UNL     1      36.042 -23.735 -14.160  0.00  0.00    +0.202 C 
ATOM      6  C   UNL     1      37.085 -24.086 -13.328  0.00  0.00    +0.118 C 
ATOM      7  C   UNL     1      37.434 -22.497 -15.464  0.00  0.00    +0.150 C 
ATOM      8  C   UNL     1      38.319 -23.568 -13.664  0.00  0.00    +0.120 C 
ATOM      9  H   UNL     1      34.757 -25.112 -13.419  0.00  0.00    +0.155 HD
ATOM     10  H   UNL     1      38.546 -21.362 -16.706  0.00  0.00    +0.165 HD
ENDROOT
BRANCH   1  11
ATOM     11  C   UNL     1      33.462 -23.726 -14.093  0.00  0.00    +0.050 C 
ATOM     12  C   UNL     1      32.480 -23.851 -13.109  0.00  0.00    +0.010 C 
ATOM     13  C   UNL     1      31.200 -23.343 -13.334  0.00  0.00    -0.021 C 
ATOM     14  C   UNL     1      33.164 -23.092 -15.299  0.00  0.00    +0.015 C 
ATOM     15  C   UNL     1      30.902 -22.710 -14.540  0.00  0.00    -0.004 C 
ATOM     16  C   UNL     1      31.884 -22.585 -15.524  0.00  0.00    +0.001 C 
ATOM     17  C   UNL     1      30.150 -23.478 -12.284  0.00  0.00    +0.031 C 
ENDBRANCH   1  11
BRANCH   2  18
ATOM     18  C   UNL     1      36.729 -21.170 -17.564  0.00  0.00    +0.058 C 
ATOM     19  C   UNL     1      34.975 -20.198 -19.502  0.00  0.00    -0.011 C 
ATOM     20  C   UNL     1      37.211 -20.378 -18.605  0.00  0.00    +0.015 C 
ATOM     21  C   UNL     1      35.370 -21.477 -17.491  0.00  0.00    +0.015 C 
ATOM     22  C   UNL     1      36.334 -19.892 -19.575  0.00  0.00    -0.002 C 
ATOM     23  C   UNL     1      34.493 -20.990 -18.460  0.00  0.00    -0.002 C 
BRANCH  19  24
ATOM     24  C   UNL     1      34.037 -19.678 -20.539  0.00  0.00    +0.136 C 
BRANCH  24  26
ATOM     25  O   UNL     1      34.891 -18.885 -22.677  0.00  0.00    -0.250 OA
ATOM     26  C   UNL     1      34.676 -18.685 -21.489  0.00  0.00    +0.318 C 
BRANCH  26  27
ATOM     27  O   UNL     1      34.996 -17.520 -20.865  0.00  0.00    -0.480 OA
ATOM     28  H   UNL     1      35.866 -17.180 -20.926  0.00  0.00    +0.295 HD
ENDBRANCH  26  27
ENDBRANCH  24  26
ENDBRANCH  19  24
ENDBRANCH   2  18
BRANCH   6  31
ATOM     29  O   UNL     1      37.273 -26.142 -12.194  0.00  0.00    -0.270 OA
ATOM     30  N   UNL     1      36.425 -24.377 -11.001  0.00  0.00    -0.325 N 
ATOM     31  C   UNL     1      36.938 -24.945 -12.163  0.00  0.00    +0.248 C 
ATOM     32  H   UNL     1      36.311 -24.928 -10.193  0.00  0.00    +0.145 HD
ATOM     33  H   UNL     1      36.176 -23.425 -10.987  0.00  0.00    +0.145 HD
ENDBRANCH   6  31
TORSDOF 6
ENDMDL
MODEL 7
REMARK VINA RESULT:     -10.3      2.013      6.958
REMARK  Name = 24871491
REMARK  6 active torsions:
REMARK  status: ('A' for Active; 'I' for Inactive)
REMARK    1  A    between atoms: N_1  and  C_11
REMARK    2  A    between atoms: N_2  and  C_18
REMARK    3  A    between atoms: C_6  and  C_31
REMARK    4  A    between atoms: C_19  and  C_24
REMARK    5  A    between atoms: C_24  and  C_26
REMARK    6  A    between atoms: C_26  and  O_27
REMARK                            x       y       z     vdW  Elec       q    Type
REMARK                         _______ _______ _______ _____ _____    ______ ____
ROOT
ATOM      1  N   UNL     1      36.940 -22.066 -15.982  0.00  0.00    -0.287 N 
ATOM      2  N   UNL     1      33.903 -24.356 -13.197  0.00  0.00    -0.247 N 
ATOM      3  N   UNL     1      35.403 -23.210 -14.586  0.00  0.00    -0.322 NA
ATOM      4  N   UNL     1      36.178 -24.898 -13.052  0.00  0.00    -0.169 NA
ATOM      5  C   UNL     1      36.682 -23.033 -14.981  0.00  0.00    +0.202 C 
ATOM      6  C   UNL     1      37.747 -23.742 -14.464  0.00  0.00    +0.118 C 
ATOM      7  C   UNL     1      35.226 -24.144 -13.632  0.00  0.00    +0.150 C 
ATOM      8  C   UNL     1      37.433 -24.670 -13.492  0.00  0.00    +0.120 C 
ATOM      9  H   UNL     1      37.828 -21.648 -15.911  0.00  0.00    +0.155 HD
ATOM     10  H   UNL     1      33.822 -25.047 -12.501  0.00  0.00    +0.165 HD
ENDROOT
BRANCH   1  11
ATOM     11  C   UNL     1      36.174 -21.586 -17.057  0.00  0.00    +0.050 C 
ATOM     12  C   UNL     1      34.790 -21.766 -17.062  0.00  0.00    +0.010 C 
ATOM     13  C   UNL     1      34.030 -21.289 -18.130  0.00  0.00    -0.021 C 
ATOM     14  C   UNL     1      36.796 -20.929 -18.118  0.00  0.00    +0.015 C 
ATOM     15  C   UNL     1      34.652 -20.632 -19.191  0.00  0.00    -0.004 C 
ATOM     16  C   UNL     1      36.035 -20.453 -19.186  0.00  0.00    +0.001 C 
ATOM     17  C   UNL     1      32.551 -21.482 -18.137  0.00  0.00    +0.031 C 
ENDBRANCH   1  11
BRANCH   2  18
ATOM     18  C   UNL     1      32.672 -23.772 -13.562  0.00  0.00    +0.058 C 
ATOM     19  C   UNL     1      30.238 -22.617 -14.283  0.00  0.00    -0.011 C 
ATOM     20  C   UNL     1      32.653 -22.626 -14.355  0.00  0.00    +0.015 C 
ATOM     21  C   UNL     1      31.475 -24.341 -13.128  0.00  0.00    +0.015 C 
ATOM     22  C   UNL     1      31.435 -22.048 -14.716  0.00  0.00    -0.002 C 
ATOM     23  C   UNL     1      30.258 -23.763 -13.488  0.00  0.00    -0.002 C 
BRANCH  19  24
ATOM     24  C   UNL     1      28.936 -21.999 -14.669  0.00  0.00    +0.136 C 
BRANCH  24  26
ATOM     25  O   UNL     1      28.379 -23.614 -16.404  0.00  0.00    -0.250 OA
ATOM     26  C   UNL     1      28.430 -22.452 -16.024  0.00  0.00    +0.318 C 
BRANCH  26  27
ATOM     27  O   UNL     1      28.031 -21.403 -16.792  0.00  0.00    -0.480 OA
ATOM     28  H   UNL     1      27.756 -21.548 -17.675  0.00  0.00    +0.295 HD
ENDBRANCH  26  27
ENDBRANCH  24  26
ENDBRANCH  19  24
ENDBRANCH   2  18
BRANCH   6  31
ATOM     29  O   UNL     1      39.490 -22.514 -15.465  0.00  0.00    -0.270 OA
ATOM     30  N   UNL     1      40.034 -24.569 -14.606  0.00  0.00    -0.325 N 
ATOM     31  C   UNL     1      39.126 -23.553 -14.887  0.00  0.00    +0.248 C 
ATOM     32  H   UNL     1      40.976 -24.476 -14.877  0.00  0.00    +0.145 HD
ATOM     33  H   UNL     1      39.735 -25.380 -14.136  0.00  0.00    +0.145 HD
ENDBRANCH   6  31
TORSDOF 6
ENDMDL
MODEL 8
REMARK VINA RESULT:     -10.3      2.842      5.308
REMARK  Name = 24871491
REMARK  6 active torsions:
REMARK  status: ('A' for Active; 'I' for Inactive)
REMARK    1  A    between atoms: N_1  and  C_11
REMARK    2  A    between atoms: N_2  and  C_18
REMARK    3  A    between atoms: C_6  and  C_31
REMARK    4  A    between atoms: C_19  and  C_24
REMARK    5  A    between atoms: C_24  and  C_26
REMARK    6  A    between atoms: C_26  and  O_27
REMARK                            x       y       z     vdW  Elec       q    Type
REMARK                         _______ _______ _______ _____ _____    ______ ____
ROOT
ATOM      1  N   UNL     1      33.035 -21.596 -17.020  0.00  0.00    -0.287 N 
ATOM      2  N   UNL     1      37.654 -22.069 -16.210  0.00  0.00    -0.247 N 
ATOM      3  N   UNL     1      35.355 -21.838 -16.600  0.00  0.00    -0.322 NA
ATOM      4  N   UNL     1      36.964 -21.244 -18.291  0.00  0.00    -0.169 NA
ATOM      5  C   UNL     1      34.376 -21.475 -17.456  0.00  0.00    +0.202 C 
ATOM      6  C   UNL     1      34.611 -20.994 -18.728  0.00  0.00    +0.118 C 
ATOM      7  C   UNL     1      36.607 -21.698 -17.076  0.00  0.00    +0.150 C 
ATOM      8  C   UNL     1      35.937 -20.898 -19.096  0.00  0.00    +0.120 C 
ATOM      9  H   UNL     1      32.425 -20.938 -17.423  0.00  0.00    +0.155 HD
ATOM     10  H   UNL     1      38.550 -21.951 -16.600  0.00  0.00    +0.165 HD
ENDROOT
BRANCH   1  11
ATOM     11  C   UNL     1      32.405 -22.474 -16.122  0.00  0.00    +0.050 C 
ATOM     12  C   UNL     1      31.030 -22.691 -16.207  0.00  0.00    +0.010 C 
ATOM     13  C   UNL     1      30.405 -23.563 -15.316  0.00  0.00    -0.021 C 
ATOM     14  C   UNL     1      33.155 -23.131 -15.147  0.00  0.00    +0.015 C 
ATOM     15  C   UNL     1      31.155 -24.220 -14.340  0.00  0.00    -0.004 C 
ATOM     16  C   UNL     1      32.531 -24.002 -14.255  0.00  0.00    +0.001 C 
ATOM     17  C   UNL     1      28.935 -23.794 -15.405  0.00  0.00    +0.031 C 
ENDBRANCH   1  11
BRANCH   2  18
ATOM     18  C   UNL     1      37.672 -22.576 -14.894  0.00  0.00    +0.058 C 
ATOM     19  C   UNL     1      37.706 -23.577 -12.291  0.00  0.00    -0.011 C 
ATOM     20  C   UNL     1      36.873 -21.992 -13.912  0.00  0.00    +0.015 C 
ATOM     21  C   UNL     1      38.489 -23.660 -14.575  0.00  0.00    +0.015 C 
ATOM     22  C   UNL     1      36.890 -22.492 -12.610  0.00  0.00    -0.002 C 
ATOM     23  C   UNL     1      38.506 -24.161 -13.273  0.00  0.00    -0.002 C 
BRANCH  19  24
ATOM     24  C   UNL     1      37.725 -24.112 -10.899  0.00  0.00    +0.136 C 
BRANCH  24  26
ATOM     25  O   UNL     1      35.320 -24.427 -10.680  0.00  0.00    -0.250 OA
ATOM     26  C   UNL     1      36.379 -24.040 -10.205  0.00  0.00    +0.318 C 
BRANCH  26  27
ATOM     27  O   UNL     1      36.476 -23.482  -8.969  0.00  0.00    -0.480 OA
ATOM     28  H   UNL     1      36.642 -24.024  -8.223  0.00  0.00    +0.295 HD
ENDBRANCH  26  27
ENDBRANCH  24  26
ENDBRANCH  19  24
ENDBRANCH   2  18
BRANCH   6  31
ATOM     29  O   UNL     1      32.538 -21.297 -19.806  0.00  0.00    -0.270 OA
ATOM     30  N   UNL     1      33.719 -19.407 -20.346  0.00  0.00    -0.325 N 
ATOM     31  C   UNL     1      33.558 -20.601 -19.651  0.00  0.00    +0.248 C 
ATOM     32  H   UNL     1      33.027 -19.109 -20.980  0.00  0.00    +0.145 HD
ATOM     33  H   UNL     1      34.525 -18.860 -20.205  0.00  0.00    +0.145 HD
ENDBRANCH   6  31
TORSDOF 6
ENDMDL
