MODEL 1
REMARK VINA RESULT:     -13.1      0.000      0.000
REMARK  Name = 24743471
REMARK  3 active torsions:
REMARK  status: ('A' for Active; 'I' for Inactive)
REMARK    1  A    between atoms: C_1  and  N_7
REMARK    2  A    between atoms: C_6  and  C_17
REMARK    3  A    between atoms: C_22  and  N_24
REMARK                            x       y       z     vdW  Elec       q    Type
REMARK                         _______ _______ _______ _____ _____    ______ ____
ROOT
ATOM      1  C   UNL     1      36.328 -22.614 -15.365  0.00  0.00    +0.048 C 
ATOM      2  C   UNL     1      37.322 -21.766 -15.852  0.00  0.00    +0.015 C 
ATOM      3  C   UNL     1      35.107 -22.713 -16.032  0.00  0.00    +0.015 C 
ATOM      4  C   UNL     1      37.095 -21.016 -17.006  0.00  0.00    +0.001 C 
ATOM      5  C   UNL     1      34.881 -21.964 -17.187  0.00  0.00    +0.001 C 
ATOM      6  C   UNL     1      35.876 -21.116 -17.673  0.00  0.00    +0.000 C 
ENDROOT
BRANCH   1   7
ATOM      7  N   UNL     1      36.551 -23.357 -14.222  0.00  0.00    -0.311 N 
ATOM      8  N   UNL     1      39.089 -25.695 -13.688  0.00  0.00    +0.387 N 
ATOM      9  C   UNL     1      37.077 -25.125 -12.720  0.00  0.00    -0.003 C 
ATOM     10  C   UNL     1      36.973 -24.761 -14.212  0.00  0.00    +0.050 C 
ATOM     11  C   UNL     1      36.296 -24.048 -11.988  0.00  0.00    +0.021 C 
ATOM     12  C   UNL     1      38.573 -25.146 -12.435  0.00  0.00    -0.076 C 
ATOM     13  C   UNL     1      38.398 -24.952 -14.747  0.00  0.00    -0.057 C 
ATOM     14  C   UNL     1      36.436 -22.812 -12.871  0.00  0.00    +0.091 C 
ATOM     15  C   UNL     1      40.537 -25.589 -13.788  0.00  0.00    -0.101 C 
ATOM     16  H   UNL     1      38.910 -26.697 -13.758  0.00  0.00    -0.080 HD
ENDBRANCH   1   7
BRANCH   6  17
ATOM     17  C   UNL     1      35.640 -20.338 -18.872  0.00  0.00    +0.000 C 
ATOM     18  C   UNL     1      34.346 -20.215 -19.379  0.00  0.00    +0.001 C 
ATOM     19  C   UNL     1      36.706 -19.714 -19.519  0.00  0.00    +0.001 C 
ATOM     20  C   UNL     1      34.119 -19.466 -20.534  0.00  0.00    +0.017 C 
ATOM     21  C   UNL     1      36.478 -18.965 -20.673  0.00  0.00    +0.017 C 
ATOM     22  C   UNL     1      35.185 -18.842 -21.181  0.00  0.00    +0.077 C 
BRANCH  22  24
ATOM     23  O   UNL     1      35.761 -15.966 -21.683  0.00  0.00    -0.268 OA
ATOM     24  N   UNL     1      34.949 -18.066 -22.376  0.00  0.00    -0.155 N 
ATOM     25  N   UNL     1      34.418 -18.805 -23.408  0.00  0.00    -0.170 NA
ATOM     26  C   UNL     1      35.230 -16.702 -22.514  0.00  0.00    +0.272 C 
ATOM     27  C   UNL     1      34.866 -16.074 -23.809  0.00  0.00    +0.062 C 
ATOM     28  C   UNL     1      34.145 -18.204 -24.514  0.00  0.00    +0.118 C 
ATOM     29  C   UNL     1      34.338 -16.787 -24.797  0.00  0.00    +0.027 C 
ENDBRANCH  22  24
ENDBRANCH   6  17
TORSDOF 3
ENDMDL
MODEL 2
REMARK VINA RESULT:     -11.0      1.122      1.903
REMARK  Name = 24743471
REMARK  3 active torsions:
REMARK  status: ('A' for Active; 'I' for Inactive)
REMARK    1  A    between atoms: C_1  and  N_7
REMARK    2  A    between atoms: C_6  and  C_17
REMARK    3  A    between atoms: C_22  and  N_24
REMARK                            x       y       z     vdW  Elec       q    Type
REMARK                         _______ _______ _______ _____ _____    ______ ____
ROOT
ATOM      1  C   UNL     1      36.736 -22.996 -15.291  0.00  0.00    +0.048 C 
ATOM      2  C   UNL     1      37.730 -22.140 -15.766  0.00  0.00    +0.015 C 
ATOM      3  C   UNL     1      35.478 -23.005 -15.894  0.00  0.00    +0.015 C 
ATOM      4  C   UNL     1      37.466 -21.293 -16.842  0.00  0.00    +0.001 C 
ATOM      5  C   UNL     1      35.215 -22.159 -16.971  0.00  0.00    +0.001 C 
ATOM      6  C   UNL     1      36.209 -21.303 -17.445  0.00  0.00    +0.000 C 
ENDROOT
BRANCH   1   7
ATOM      7  N   UNL     1      36.996 -23.836 -14.226  0.00  0.00    -0.311 N 
ATOM      8  N   UNL     1      37.527 -22.920 -10.899  0.00  0.00    +0.387 N 
ATOM      9  C   UNL     1      37.877 -24.772 -12.225  0.00  0.00    -0.003 C 
ATOM     10  C   UNL     1      37.945 -23.543 -13.148  0.00  0.00    +0.050 C 
ATOM     11  C   UNL     1      37.225 -25.863 -13.055  0.00  0.00    +0.021 C 
ATOM     12  C   UNL     1      37.067 -24.302 -11.023  0.00  0.00    -0.076 C 
ATOM     13  C   UNL     1      37.490 -22.378 -12.261  0.00  0.00    -0.057 C 
ATOM     14  C   UNL     1      36.314 -25.111 -14.020  0.00  0.00    +0.091 C 
ATOM     15  C   UNL     1      36.719 -22.146  -9.969  0.00  0.00    -0.101 C 
ATOM     16  H   UNL     1      38.468 -22.874 -10.505  0.00  0.00    -0.080 HD
ENDBRANCH   1   7
BRANCH   6  17
ATOM     17  C   UNL     1      35.935 -20.425 -18.562  0.00  0.00    +0.000 C 
ATOM     18  C   UNL     1      34.643 -20.343 -19.083  0.00  0.00    +0.001 C 
ATOM     19  C   UNL     1      36.961 -19.661 -19.117  0.00  0.00    +0.001 C 
ATOM     20  C   UNL     1      34.378 -19.497 -20.159  0.00  0.00    +0.017 C 
ATOM     21  C   UNL     1      36.696 -18.815 -20.194  0.00  0.00    +0.017 C 
ATOM     22  C   UNL     1      35.404 -18.733 -20.715  0.00  0.00    +0.077 C 
BRANCH  22  24
ATOM     23  O   UNL     1      35.552 -15.764 -20.834  0.00  0.00    -0.268 OA
ATOM     24  N   UNL     1      35.130 -17.857 -21.830  0.00  0.00    -0.155 N 
ATOM     25  N   UNL     1      34.793 -18.531 -22.981  0.00  0.00    -0.170 NA
ATOM     26  C   UNL     1      35.200 -16.460 -21.786  0.00  0.00    +0.272 C 
ATOM     27  C   UNL     1      34.829 -15.735 -23.028  0.00  0.00    +0.062 C 
ATOM     28  C   UNL     1      34.503 -17.842 -24.031  0.00  0.00    +0.118 C 
ATOM     29  C   UNL     1      34.488 -16.388 -24.133  0.00  0.00    +0.027 C 
ENDBRANCH  22  24
ENDBRANCH   6  17
TORSDOF 3
ENDMDL
MODEL 3
REMARK VINA RESULT:     -10.5      6.357     13.326
REMARK  Name = 24743471
REMARK  3 active torsions:
REMARK  status: ('A' for Active; 'I' for Inactive)
REMARK    1  A    between atoms: C_1  and  N_7
REMARK    2  A    between atoms: C_6  and  C_17
REMARK    3  A    between atoms: C_22  and  N_24
REMARK                            x       y       z     vdW  Elec       q    Type
REMARK                         _______ _______ _______ _____ _____    ______ ____
ROOT
ATOM      1  C   UNL     1      33.067 -10.202 -22.469  0.00  0.00    +0.048 C 
ATOM      2  C   UNL     1      34.096 -10.795 -23.200  0.00  0.00    +0.015 C 
ATOM      3  C   UNL     1      32.474 -10.894 -21.411  0.00  0.00    +0.015 C 
ATOM      4  C   UNL     1      34.533 -12.080 -22.874  0.00  0.00    +0.001 C 
ATOM      5  C   UNL     1      32.912 -12.178 -21.086  0.00  0.00    +0.001 C 
ATOM      6  C   UNL     1      33.941 -12.770 -21.818  0.00  0.00    +0.000 C 
ENDROOT
BRANCH   1   7
ATOM      7  N   UNL     1      32.633  -8.931 -22.789  0.00  0.00    -0.311 N 
ATOM      8  N   UNL     1      31.899  -6.332 -20.576  0.00  0.00    +0.387 N 
ATOM      9  C   UNL     1      31.493  -6.844 -22.786  0.00  0.00    -0.003 C 
ATOM     10  C   UNL     1      31.625  -8.180 -22.036  0.00  0.00    +0.050 C 
ATOM     11  C   UNL     1      32.108  -7.087 -24.153  0.00  0.00    +0.021 C 
ATOM     12  C   UNL     1      32.234  -5.840 -21.912  0.00  0.00    -0.076 C 
ATOM     13  C   UNL     1      32.110  -7.782 -20.636  0.00  0.00    -0.057 C 
ATOM     14  C   UNL     1      33.170  -8.154 -23.905  0.00  0.00    +0.091 C 
ATOM     15  C   UNL     1      32.692  -5.697 -19.535  0.00  0.00    -0.101 C 
ATOM     16  H   UNL     1      30.936  -6.105 -20.326  0.00  0.00    -0.080 HD
ENDBRANCH   1   7
BRANCH   6  17
ATOM     17  C   UNL     1      34.394 -14.102 -21.479  0.00  0.00    +0.000 C 
ATOM     18  C   UNL     1      34.470 -14.494 -20.142  0.00  0.00    +0.001 C 
ATOM     19  C   UNL     1      34.756 -14.994 -22.489  0.00  0.00    +0.001 C 
ATOM     20  C   UNL     1      34.906 -15.778 -19.815  0.00  0.00    +0.017 C 
ATOM     21  C   UNL     1      35.192 -16.278 -22.162  0.00  0.00    +0.017 C 
ATOM     22  C   UNL     1      35.268 -16.669 -20.825  0.00  0.00    +0.077 C 
BRANCH  22  24
ATOM     23  O   UNL     1      33.654 -19.123 -20.350  0.00  0.00    -0.268 OA
ATOM     24  N   UNL     1      35.720 -17.998 -20.487  0.00  0.00    -0.155 N 
ATOM     25  N   UNL     1      37.089 -18.107 -20.421  0.00  0.00    -0.170 NA
ATOM     26  C   UNL     1      34.881 -19.094 -20.254  0.00  0.00    +0.272 C 
ATOM     27  C   UNL     1      35.539 -20.367 -19.867  0.00  0.00    +0.062 C 
ATOM     28  C   UNL     1      37.599 -19.246 -20.101  0.00  0.00    +0.118 C 
ATOM     29  C   UNL     1      36.862 -20.464 -19.788  0.00  0.00    +0.027 C 
ENDBRANCH  22  24
ENDBRANCH   6  17
TORSDOF 3
ENDMDL
MODEL 4
REMARK VINA RESULT:     -10.4      1.562      2.291
REMARK  Name = 24743471
REMARK  3 active torsions:
REMARK  status: ('A' for Active; 'I' for Inactive)
REMARK    1  A    between atoms: C_1  and  N_7
REMARK    2  A    between atoms: C_6  and  C_17
REMARK    3  A    between atoms: C_22  and  N_24
REMARK                            x       y       z     vdW  Elec       q    Type
REMARK                         _______ _______ _______ _____ _____    ______ ____
ROOT
ATOM      1  C   UNL     1      35.957 -22.598 -16.149  0.00  0.00    +0.048 C 
ATOM      2  C   UNL     1      37.015 -21.771 -16.522  0.00  0.00    +0.015 C 
ATOM      3  C   UNL     1      34.742 -22.529 -16.832  0.00  0.00    +0.015 C 
ATOM      4  C   UNL     1      36.860 -20.873 -17.579  0.00  0.00    +0.001 C 
ATOM      5  C   UNL     1      34.587 -21.632 -17.889  0.00  0.00    +0.001 C 
ATOM      6  C   UNL     1      35.646 -20.804 -18.262  0.00  0.00    +0.000 C 
ENDROOT
BRANCH   1   7
ATOM      7  N   UNL     1      36.109 -23.488 -15.103  0.00  0.00    -0.311 N 
ATOM      8  N   UNL     1      37.863 -22.968 -12.129  0.00  0.00    +0.387 N 
ATOM      9  C   UNL     1      37.009 -24.756 -13.304  0.00  0.00    -0.003 C 
ATOM     10  C   UNL     1      37.345 -23.666 -14.335  0.00  0.00    +0.050 C 
ATOM     11  C   UNL     1      35.753 -25.431 -13.827  0.00  0.00    +0.021 C 
ATOM     12  C   UNL     1      36.840 -24.002 -11.991  0.00  0.00    -0.076 C 
ATOM     13  C   UNL     1      37.694 -22.437 -13.486  0.00  0.00    -0.057 C 
ATOM     14  C   UNL     1      35.030 -24.335 -14.602  0.00  0.00    +0.091 C 
ATOM     15  C   UNL     1      37.752 -21.935 -11.110  0.00  0.00    -0.101 C 
ATOM     16  H   UNL     1      38.800 -23.349 -11.993  0.00  0.00    -0.080 HD
ENDBRANCH   1   7
BRANCH   6  17
ATOM     17  C   UNL     1      35.485 -19.873 -19.358  0.00  0.00    +0.000 C 
ATOM     18  C   UNL     1      36.574 -19.123 -19.801  0.00  0.00    +0.001 C 
ATOM     19  C   UNL     1      34.240 -19.727 -19.971  0.00  0.00    +0.001 C 
ATOM     20  C   UNL     1      36.419 -18.225 -20.858  0.00  0.00    +0.017 C 
ATOM     21  C   UNL     1      34.085 -18.829 -21.028  0.00  0.00    +0.017 C 
ATOM     22  C   UNL     1      35.174 -18.079 -21.471  0.00  0.00    +0.077 C 
BRANCH  22  24
ATOM     23  O   UNL     1      34.316 -18.621 -24.267  0.00  0.00    -0.268 OA
ATOM     24  N   UNL     1      35.014 -17.150 -22.565  0.00  0.00    -0.155 N 
ATOM     25  N   UNL     1      35.267 -15.845 -22.212  0.00  0.00    -0.170 NA
ATOM     26  C   UNL     1      34.628 -17.501 -23.863  0.00  0.00    +0.272 C 
ATOM     27  C   UNL     1      34.569 -16.404 -24.861  0.00  0.00    +0.062 C 
ATOM     28  C   UNL     1      35.178 -14.936 -23.121  0.00  0.00    +0.118 C 
ATOM     29  C   UNL     1      34.832 -15.147 -24.521  0.00  0.00    +0.027 C 
ENDBRANCH  22  24
ENDBRANCH   6  17
TORSDOF 3
ENDMDL
MODEL 5
REMARK VINA RESULT:     -10.2      7.386     14.695
REMARK  Name = 24743471
REMARK  3 active torsions:
REMARK  status: ('A' for Active; 'I' for Inactive)
REMARK    1  A    between atoms: C_1  and  N_7
REMARK    2  A    between atoms: C_6  and  C_17
REMARK    3  A    between atoms: C_22  and  N_24
REMARK                            x       y       z     vdW  Elec       q    Type
REMARK                         _______ _______ _______ _____ _____    ______ ____
ROOT
ATOM      1  C   UNL     1      33.221  -8.427 -23.470  0.00  0.00    +0.048 C 
ATOM      2  C   UNL     1      32.557  -9.098 -22.443  0.00  0.00    +0.015 C 
ATOM      3  C   UNL     1      34.190  -9.090 -24.224  0.00  0.00    +0.015 C 
ATOM      4  C   UNL     1      32.863 -10.432 -22.169  0.00  0.00    +0.001 C 
ATOM      5  C   UNL     1      34.495 -10.423 -23.951  0.00  0.00    +0.001 C 
ATOM      6  C   UNL     1      33.831 -11.093 -22.923  0.00  0.00    +0.000 C 
ENDROOT
BRANCH   1   7
ATOM      7  N   UNL     1      32.919  -7.107 -23.742  0.00  0.00    -0.311 N 
ATOM      8  N   UNL     1      31.100  -4.902 -21.737  0.00  0.00    +0.387 N 
ATOM      9  C   UNL     1      31.797  -5.019 -23.930  0.00  0.00    -0.003 C 
ATOM     10  C   UNL     1      31.636  -6.467 -23.436  0.00  0.00    +0.050 C 
ATOM     11  C   UNL     1      32.990  -5.044 -24.869  0.00  0.00    +0.021 C 
ATOM     12  C   UNL     1      31.990  -4.201 -22.660  0.00  0.00    -0.076 C 
ATOM     13  C   UNL     1      31.392  -6.326 -21.928  0.00  0.00    -0.057 C 
ATOM     14  C   UNL     1      33.870  -6.168 -24.333  0.00  0.00    +0.091 C 
ATOM     15  C   UNL     1      31.281  -4.477 -20.358  0.00  0.00    -0.101 C 
ATOM     16  H   UNL     1      30.119  -4.693 -21.933  0.00  0.00    -0.080 HD
ENDBRANCH   1   7
BRANCH   6  17
ATOM     17  C   UNL     1      34.149 -12.477 -22.640  0.00  0.00    +0.000 C 
ATOM     18  C   UNL     1      34.380 -12.883 -21.326  0.00  0.00    +0.001 C 
ATOM     19  C   UNL     1      34.224 -13.402 -23.681  0.00  0.00    +0.001 C 
ATOM     20  C   UNL     1      34.686 -14.217 -21.052  0.00  0.00    +0.017 C 
ATOM     21  C   UNL     1      34.530 -14.736 -23.407  0.00  0.00    +0.017 C 
ATOM     22  C   UNL     1      34.761 -15.142 -22.093  0.00  0.00    +0.077 C 
BRANCH  22  24
ATOM     23  O   UNL     1      35.714 -16.353 -19.547  0.00  0.00    -0.268 OA
ATOM     24  N   UNL     1      35.078 -16.523 -21.809  0.00  0.00    -0.155 N 
ATOM     25  N   UNL     1      34.862 -17.361 -22.878  0.00  0.00    -0.170 NA
ATOM     26  C   UNL     1      35.548 -17.000 -20.581  0.00  0.00    +0.272 C 
ATOM     27  C   UNL     1      35.866 -18.449 -20.506  0.00  0.00    +0.062 C 
ATOM     28  C   UNL     1      35.137 -18.612 -22.741  0.00  0.00    +0.118 C 
ATOM     29  C   UNL     1      35.672 -19.252 -21.546  0.00  0.00    +0.027 C 
ENDBRANCH  22  24
ENDBRANCH   6  17
TORSDOF 3
ENDMDL
MODEL 6
REMARK VINA RESULT:     -10.2      7.349     14.643
REMARK  Name = 24743471
REMARK  3 active torsions:
REMARK  status: ('A' for Active; 'I' for Inactive)
REMARK    1  A    between atoms: C_1  and  N_7
REMARK    2  A    between atoms: C_6  and  C_17
REMARK    3  A    between atoms: C_22  and  N_24
REMARK                            x       y       z     vdW  Elec       q    Type
REMARK                         _______ _______ _______ _____ _____    ______ ____
ROOT
ATOM      1  C   UNL     1      33.225  -8.488 -23.433  0.00  0.00    +0.048 C 
ATOM      2  C   UNL     1      34.228  -9.122 -24.165  0.00  0.00    +0.015 C 
ATOM      3  C   UNL     1      32.530  -9.189 -22.447  0.00  0.00    +0.015 C 
ATOM      4  C   UNL     1      34.537 -10.459 -23.911  0.00  0.00    +0.001 C 
ATOM      5  C   UNL     1      32.841 -10.526 -22.193  0.00  0.00    +0.001 C 
ATOM      6  C   UNL     1      33.844 -11.160 -22.926  0.00  0.00    +0.000 C 
ENDROOT
BRANCH   1   7
ATOM      7  N   UNL     1      32.918  -7.164 -23.682  0.00  0.00    -0.311 N 
ATOM      8  N   UNL     1      31.104  -4.997 -21.633  0.00  0.00    +0.387 N 
ATOM      9  C   UNL     1      31.789  -5.076 -23.831  0.00  0.00    -0.003 C 
ATOM     10  C   UNL     1      31.635  -6.532 -23.359  0.00  0.00    +0.050 C 
ATOM     11  C   UNL     1      32.978  -5.083 -24.777  0.00  0.00    +0.021 C 
ATOM     12  C   UNL     1      31.987  -4.278 -22.549  0.00  0.00    -0.076 C 
ATOM     13  C   UNL     1      31.398  -6.417 -21.848  0.00  0.00    -0.057 C 
ATOM     14  C   UNL     1      33.863  -6.213 -24.263  0.00  0.00    +0.091 C 
ATOM     15  C   UNL     1      31.291  -4.594 -20.247  0.00  0.00    -0.101 C 
ATOM     16  H   UNL     1      30.122  -4.787 -21.820  0.00  0.00    -0.080 HD
ENDBRANCH   1   7
BRANCH   6  17
ATOM     17  C   UNL     1      34.165 -12.546 -22.662  0.00  0.00    +0.000 C 
ATOM     18  C   UNL     1      34.434 -12.963 -21.358  0.00  0.00    +0.001 C 
ATOM     19  C   UNL     1      34.205 -13.465 -23.710  0.00  0.00    +0.001 C 
ATOM     20  C   UNL     1      34.743 -14.299 -21.103  0.00  0.00    +0.017 C 
ATOM     21  C   UNL     1      34.514 -14.801 -23.455  0.00  0.00    +0.017 C 
ATOM     22  C   UNL     1      34.784 -15.217 -22.151  0.00  0.00    +0.077 C 
BRANCH  22  24
ATOM     23  O   UNL     1      34.400 -17.589 -23.907  0.00  0.00    -0.268 OA
ATOM     24  N   UNL     1      35.104 -16.601 -21.887  0.00  0.00    -0.155 N 
ATOM     25  N   UNL     1      35.697 -16.797 -20.662  0.00  0.00    -0.170 NA
ATOM     26  C   UNL     1      34.862 -17.661 -22.769  0.00  0.00    +0.272 C 
ATOM     27  C   UNL     1      35.217 -19.020 -22.289  0.00  0.00    +0.062 C 
ATOM     28  C   UNL     1      36.001 -18.000 -20.315  0.00  0.00    +0.118 C 
ATOM     29  C   UNL     1      35.773 -19.209 -21.098  0.00  0.00    +0.027 C 
ENDBRANCH  22  24
ENDBRANCH   6  17
TORSDOF 3
ENDMDL
MODEL 7
REMARK VINA RESULT:     -10.1      2.373     10.404
REMARK  Name = 24743471
REMARK  3 active torsions:
REMARK  status: ('A' for Active; 'I' for Inactive)
REMARK    1  A    between atoms: C_1  and  N_7
REMARK    2  A    between atoms: C_6  and  C_17
REMARK    3  A    between atoms: C_22  and  N_24
REMARK                            x       y       z     vdW  Elec       q    Type
REMARK                         _______ _______ _______ _____ _____    ______ ____
ROOT
ATOM      1  C   UNL     1      35.439 -18.210 -21.064  0.00  0.00    +0.048 C 
ATOM      2  C   UNL     1      34.362 -18.940 -20.562  0.00  0.00    +0.015 C 
ATOM      3  C   UNL     1      36.708 -18.368 -20.505  0.00  0.00    +0.015 C 
ATOM      4  C   UNL     1      34.552 -19.826 -19.502  0.00  0.00    +0.001 C 
ATOM      5  C   UNL     1      36.898 -19.255 -19.445  0.00  0.00    +0.001 C 
ATOM      6  C   UNL     1      35.820 -19.984 -18.944  0.00  0.00    +0.000 C 
ENDROOT
BRANCH   1   7
ATOM      7  N   UNL     1      35.253 -17.333 -22.114  0.00  0.00    -0.311 N 
ATOM      8  N   UNL     1      33.562 -17.952 -25.105  0.00  0.00    +0.387 N 
ATOM      9  C   UNL     1      35.049 -16.393 -24.289  0.00  0.00    -0.003 C 
ATOM     10  C   UNL     1      35.317 -17.705 -23.530  0.00  0.00    +0.050 C 
ATOM     11  C   UNL     1      35.279 -15.287 -23.274  0.00  0.00    +0.021 C 
ATOM     12  C   UNL     1      33.617 -16.526 -24.788  0.00  0.00    -0.076 C 
ATOM     13  C   UNL     1      34.165 -18.626 -23.951  0.00  0.00    -0.057 C 
ATOM     14  C   UNL     1      34.919 -15.922 -21.935  0.00  0.00    +0.091 C 
ATOM     15  C   UNL     1      32.207 -18.412 -25.372  0.00  0.00    -0.101 C 
ATOM     16  H   UNL     1      34.068 -18.163 -25.967  0.00  0.00    -0.080 HD
ENDBRANCH   1   7
BRANCH   6  17
ATOM     17  C   UNL     1      36.018 -20.903 -17.845  0.00  0.00    +0.000 C 
ATOM     18  C   UNL     1      37.230 -20.912 -17.153  0.00  0.00    +0.001 C 
ATOM     19  C   UNL     1      34.999 -21.781 -17.477  0.00  0.00    +0.001 C 
ATOM     20  C   UNL     1      37.422 -21.798 -16.093  0.00  0.00    +0.017 C 
ATOM     21  C   UNL     1      35.190 -22.667 -16.416  0.00  0.00    +0.017 C 
ATOM     22  C   UNL     1      36.402 -22.676 -15.725  0.00  0.00    +0.077 C 
BRANCH  22  24
ATOM     23  O   UNL     1      36.676 -22.081 -12.823  0.00  0.00    -0.268 OA
ATOM     24  N   UNL     1      36.601 -23.593 -14.628  0.00  0.00    -0.155 N 
ATOM     25  N   UNL     1      36.624 -24.912 -15.019  0.00  0.00    -0.170 NA
ATOM     26  C   UNL     1      36.746 -23.218 -13.287  0.00  0.00    +0.272 C 
ATOM     27  C   UNL     1      36.993 -24.311 -12.313  0.00  0.00    +0.062 C 
ATOM     28  C   UNL     1      36.822 -25.814 -14.120  0.00  0.00    +0.118 C 
ATOM     29  C   UNL     1      37.033 -25.582 -12.696  0.00  0.00    +0.027 C 
ENDBRANCH  22  24
ENDBRANCH   6  17
TORSDOF 3
ENDMDL
