MODEL 1
REMARK VINA RESULT:     -10.9      0.000      0.000
REMARK  Name = 6918852
REMARK  5 active torsions:
REMARK  status: ('A' for Active; 'I' for Inactive)
REMARK    1  A    between atoms: N_1  and  C_13
REMARK    2  A    between atoms: C_7  and  C_23
REMARK    3  A    between atoms: N_12  and  S_18
REMARK    4  A    between atoms: C_23  and  C_26
REMARK    5  A    between atoms: C_27  and  O_32
REMARK                            x       y       z     vdW  Elec       q    Type
REMARK                         _______ _______ _______ _____ _____    ______ ____
ROOT
ATOM      1  N   UNL     1      36.027 -17.284 -20.736  0.00  0.00    -0.270 N 
ATOM      2  N   UNL     1      34.316 -18.787 -20.167  0.00  0.00    -0.323 NA
ATOM      3  N   UNL     1      36.617 -19.267 -19.630  0.00  0.00    -0.170 NA
ATOM      4  N   UNL     1      32.606 -20.321 -19.582  0.00  0.00    -0.332 N 
ATOM      5  C   UNL     1      35.642 -18.482 -20.160  0.00  0.00    +0.146 C 
ATOM      6  C   UNL     1      33.977 -19.963 -19.598  0.00  0.00    +0.194 C 
ATOM      7  C   UNL     1      34.887 -20.831 -19.031  0.00  0.00    +0.103 C 
ATOM      8  C   UNL     1      36.206 -20.427 -19.076  0.00  0.00    +0.119 C 
ATOM      9  H   UNL     1      36.984 -17.053 -20.735  0.00  0.00    +0.159 HD
ATOM     10  H   UNL     1      31.936 -19.719 -19.979  0.00  0.00    +0.145 HD
ATOM     11  H   UNL     1      32.324 -21.171 -19.174  0.00  0.00    +0.145 HD
ENDROOT
BRANCH   1  13
ATOM     12  N   UNL     1      34.642 -13.733 -22.519  0.00  0.00    -0.159 NA
ATOM     13  C   UNL     1      35.098 -16.353 -21.339  0.00  0.00    +0.082 C 
ATOM     14  C   UNL     1      35.011 -15.083 -20.488  0.00  0.00    +0.039 C 
ATOM     15  C   UNL     1      35.557 -16.011 -22.759  0.00  0.00    +0.039 C 
ATOM     16  C   UNL     1      34.125 -14.032 -21.150  0.00  0.00    +0.097 C 
ATOM     17  C   UNL     1      34.663 -14.946 -23.388  0.00  0.00    +0.097 C 
BRANCH  12  18
ATOM     18  S   UNL     1      34.001 -12.321 -23.248  0.00  0.00    +0.046 S 
ATOM     19  O   UNL     1      33.536 -12.656 -24.576  0.00  0.00    -0.157 OA
ATOM     20  O   UNL     1      34.913 -11.224 -23.015  0.00  0.00    -0.157 OA
ATOM     21  C   UNL     1      32.581 -12.086 -22.212  0.00  0.00    +0.196 C 
ENDBRANCH  12  18
ENDBRANCH   1  13
BRANCH   7  23
ATOM     22  O   UNL     1      34.369 -23.110 -19.116  0.00  0.00    -0.286 OA
ATOM     23  C   UNL     1      34.523 -22.099 -18.416  0.00  0.00    +0.206 C 
BRANCH  23  26
ATOM     24  F   UNL     1      31.976 -22.351 -17.304  0.00  0.00    -0.202 F 
ATOM     25  F   UNL     1      31.584 -22.621 -14.622  0.00  0.00    -0.202 F 
ATOM     26  C   UNL     1      34.323 -22.246 -16.944  0.00  0.00    +0.103 C 
ATOM     27  C   UNL     1      35.418 -22.258 -16.111  0.00  0.00    +0.144 C 
ATOM     28  C   UNL     1      33.032 -22.364 -16.478  0.00  0.00    +0.173 C 
ATOM     29  C   UNL     1      35.213 -22.397 -14.738  0.00  0.00    +0.039 C 
ATOM     30  C   UNL     1      32.828 -22.504 -15.105  0.00  0.00    +0.168 C 
ATOM     31  C   UNL     1      33.918 -22.520 -14.235  0.00  0.00    +0.035 C 
BRANCH  27  32
ATOM     32  O   UNL     1      36.691 -22.140 -16.582  0.00  0.00    -0.471 OA
ATOM     33  C   UNL     1      37.614 -21.407 -15.780  0.00  0.00    +0.252 C 
ENDBRANCH  27  32
ENDBRANCH  23  26
ENDBRANCH   7  23
TORSDOF 5
ENDMDL
MODEL 2
REMARK VINA RESULT:     -10.7      1.655      2.325
REMARK  Name = 6918852
REMARK  5 active torsions:
REMARK  status: ('A' for Active; 'I' for Inactive)
REMARK    1  A    between atoms: N_1  and  C_13
REMARK    2  A    between atoms: C_7  and  C_23
REMARK    3  A    between atoms: N_12  and  S_18
REMARK    4  A    between atoms: C_23  and  C_26
REMARK    5  A    between atoms: C_27  and  O_32
REMARK                            x       y       z     vdW  Elec       q    Type
REMARK                         _______ _______ _______ _____ _____    ______ ____
ROOT
ATOM      1  N   UNL     1      36.006 -17.244 -20.809  0.00  0.00    -0.270 N 
ATOM      2  N   UNL     1      34.317 -18.733 -20.146  0.00  0.00    -0.323 NA
ATOM      3  N   UNL     1      36.640 -19.235 -19.743  0.00  0.00    -0.170 NA
ATOM      4  N   UNL     1      32.630 -20.253 -19.467  0.00  0.00    -0.332 N 
ATOM      5  C   UNL     1      35.644 -18.440 -20.215  0.00  0.00    +0.146 C 
ATOM      6  C   UNL     1      34.001 -19.907 -19.561  0.00  0.00    +0.194 C 
ATOM      7  C   UNL     1      34.934 -20.785 -19.049  0.00  0.00    +0.103 C 
ATOM      8  C   UNL     1      36.252 -20.393 -19.170  0.00  0.00    +0.119 C 
ATOM      9  H   UNL     1      36.963 -17.022 -20.863  0.00  0.00    +0.159 HD
ATOM     10  H   UNL     1      31.943 -19.643 -19.823  0.00  0.00    +0.145 HD
ATOM     11  H   UNL     1      32.364 -21.101 -19.045  0.00  0.00    +0.145 HD
ENDROOT
BRANCH   1  13
ATOM     12  N   UNL     1      34.539 -13.647 -22.428  0.00  0.00    -0.159 NA
ATOM     13  C   UNL     1      35.053 -16.302 -21.356  0.00  0.00    +0.082 C 
ATOM     14  C   UNL     1      34.972 -15.065 -20.458  0.00  0.00    +0.039 C 
ATOM     15  C   UNL     1      35.472 -15.904 -22.773  0.00  0.00    +0.039 C 
ATOM     16  C   UNL     1      34.059 -14.002 -21.060  0.00  0.00    +0.097 C 
ATOM     17  C   UNL     1      34.552 -14.828 -23.341  0.00  0.00    +0.097 C 
BRANCH  12  18
ATOM     18  S   UNL     1      33.865 -12.218 -23.091  0.00  0.00    +0.046 S 
ATOM     19  O   UNL     1      34.910 -11.227 -23.214  0.00  0.00    -0.157 OA
ATOM     20  O   UNL     1      32.621 -11.933 -22.411  0.00  0.00    -0.157 OA
ATOM     21  C   UNL     1      33.480 -12.813 -24.716  0.00  0.00    +0.196 C 
ENDBRANCH  12  18
ENDBRANCH   1  13
BRANCH   7  23
ATOM     22  O   UNL     1      34.371 -23.054 -19.111  0.00  0.00    -0.286 OA
ATOM     23  C   UNL     1      34.594 -22.051 -18.418  0.00  0.00    +0.206 C 
BRANCH  23  26
ATOM     24  F   UNL     1      36.865 -22.008 -16.795  0.00  0.00    -0.202 F 
ATOM     25  F   UNL     1      36.721 -22.289 -14.090  0.00  0.00    -0.202 F 
ATOM     26  C   UNL     1      34.501 -22.206 -16.935  0.00  0.00    +0.103 C 
ATOM     27  C   UNL     1      33.266 -22.375 -16.351  0.00  0.00    +0.144 C 
ATOM     28  C   UNL     1      35.670 -22.174 -16.209  0.00  0.00    +0.173 C 
ATOM     29  C   UNL     1      33.197 -22.518 -14.964  0.00  0.00    +0.039 C 
ATOM     30  C   UNL     1      35.600 -22.316 -14.823  0.00  0.00    +0.168 C 
ATOM     31  C   UNL     1      34.364 -22.489 -14.201  0.00  0.00    +0.035 C 
BRANCH  27  32
ATOM     32  O   UNL     1      32.115 -22.405 -17.078  0.00  0.00    -0.471 OA
ATOM     33  C   UNL     1      30.892 -22.246 -16.363  0.00  0.00    +0.252 C 
ENDBRANCH  27  32
ENDBRANCH  23  26
ENDBRANCH   7  23
TORSDOF 5
ENDMDL
MODEL 3
REMARK VINA RESULT:     -10.7      3.995      6.063
REMARK  Name = 6918852
REMARK  5 active torsions:
REMARK  status: ('A' for Active; 'I' for Inactive)
REMARK    1  A    between atoms: N_1  and  C_13
REMARK    2  A    between atoms: C_7  and  C_23
REMARK    3  A    between atoms: N_12  and  S_18
REMARK    4  A    between atoms: C_23  and  C_26
REMARK    5  A    between atoms: C_27  and  O_32
REMARK                            x       y       z     vdW  Elec       q    Type
REMARK                         _______ _______ _______ _____ _____    ______ ____
ROOT
ATOM      1  N   UNL     1      33.022 -22.031 -18.013  0.00  0.00    -0.270 N 
ATOM      2  N   UNL     1      34.874 -22.152 -16.577  0.00  0.00    -0.323 NA
ATOM      3  N   UNL     1      32.722 -23.000 -15.898  0.00  0.00    -0.170 NA
ATOM      4  N   UNL     1      36.730 -22.287 -15.108  0.00  0.00    -0.332 N 
ATOM      5  C   UNL     1      33.555 -22.406 -16.793  0.00  0.00    +0.146 C 
ATOM      6  C   UNL     1      35.360 -22.531 -15.376  0.00  0.00    +0.194 C 
ATOM      7  C   UNL     1      34.600 -23.142 -14.399  0.00  0.00    +0.103 C 
ATOM      8  C   UNL     1      33.274 -23.353 -14.719  0.00  0.00    +0.119 C 
ATOM      9  H   UNL     1      32.069 -22.211 -18.180  0.00  0.00    +0.159 HD
ATOM     10  H   UNL     1      37.294 -21.853 -15.788  0.00  0.00    +0.145 HD
ATOM     11  H   UNL     1      37.116 -22.551 -14.242  0.00  0.00    +0.145 HD
ENDROOT
BRANCH   1  13
ATOM     12  N   UNL     1      35.173 -19.008 -20.000  0.00  0.00    -0.159 NA
ATOM     13  C   UNL     1      33.791 -21.388 -19.058  0.00  0.00    +0.082 C 
ATOM     14  C   UNL     1      33.035 -20.163 -19.578  0.00  0.00    +0.039 C 
ATOM     15  C   UNL     1      35.161 -20.976 -18.513  0.00  0.00    +0.039 C 
ATOM     16  C   UNL     1      33.864 -19.395 -20.604  0.00  0.00    +0.097 C 
ATOM     17  C   UNL     1      35.958 -20.196 -19.554  0.00  0.00    +0.097 C 
BRANCH  12  18
ATOM     18  S   UNL     1      36.059 -17.830 -20.872  0.00  0.00    +0.046 S 
ATOM     19  O   UNL     1      37.454 -18.212 -20.880  0.00  0.00    -0.157 OA
ATOM     20  O   UNL     1      35.632 -16.516 -20.445  0.00  0.00    -0.157 OA
ATOM     21  C   UNL     1      35.401 -18.123 -22.493  0.00  0.00    +0.196 C 
ENDBRANCH  12  18
ENDBRANCH   1  13
BRANCH   7  23
ATOM     22  O   UNL     1      34.397 -23.518 -12.100  0.00  0.00    -0.286 OA
ATOM     23  C   UNL     1      35.122 -23.551 -13.105  0.00  0.00    +0.206 C 
BRANCH  23  26
ATOM     24  F   UNL     1      36.936 -22.162 -11.500  0.00  0.00    -0.202 F 
ATOM     25  F   UNL     1      39.502 -23.003 -11.149  0.00  0.00    -0.202 F 
ATOM     26  C   UNL     1      36.527 -24.023 -12.921  0.00  0.00    +0.103 C 
ATOM     27  C   UNL     1      36.942 -25.171 -13.557  0.00  0.00    +0.144 C 
ATOM     28  C   UNL     1      37.357 -23.279 -12.113  0.00  0.00    +0.173 C 
ATOM     29  C   UNL     1      38.258 -25.598 -13.374  0.00  0.00    +0.039 C 
ATOM     30  C   UNL     1      38.672 -23.707 -11.930  0.00  0.00    +0.168 C 
ATOM     31  C   UNL     1      39.122 -24.866 -12.560  0.00  0.00    +0.035 C 
BRANCH  27  32
ATOM     32  O   UNL     1      36.113 -25.901 -14.354  0.00  0.00    -0.471 OA
ATOM     33  C   UNL     1      36.690 -26.500 -15.512  0.00  0.00    +0.252 C 
ENDBRANCH  27  32
ENDBRANCH  23  26
ENDBRANCH   7  23
TORSDOF 5
ENDMDL
MODEL 4
REMARK VINA RESULT:     -10.6      3.935      5.912
REMARK  Name = 6918852
REMARK  5 active torsions:
REMARK  status: ('A' for Active; 'I' for Inactive)
REMARK    1  A    between atoms: N_1  and  C_13
REMARK    2  A    between atoms: C_7  and  C_23
REMARK    3  A    between atoms: N_12  and  S_18
REMARK    4  A    between atoms: C_23  and  C_26
REMARK    5  A    between atoms: C_27  and  O_32
REMARK                            x       y       z     vdW  Elec       q    Type
REMARK                         _______ _______ _______ _____ _____    ______ ____
ROOT
ATOM      1  N   UNL     1      33.041 -21.981 -18.098  0.00  0.00    -0.270 N 
ATOM      2  N   UNL     1      34.907 -22.107 -16.681  0.00  0.00    -0.323 NA
ATOM      3  N   UNL     1      32.767 -22.977 -15.992  0.00  0.00    -0.170 NA
ATOM      4  N   UNL     1      36.778 -22.247 -15.232  0.00  0.00    -0.332 N 
ATOM      5  C   UNL     1      33.588 -22.367 -16.888  0.00  0.00    +0.146 C 
ATOM      6  C   UNL     1      35.407 -22.497 -15.490  0.00  0.00    +0.194 C 
ATOM      7  C   UNL     1      34.661 -23.124 -14.513  0.00  0.00    +0.103 C 
ATOM      8  C   UNL     1      33.334 -23.341 -14.823  0.00  0.00    +0.119 C 
ATOM      9  H   UNL     1      32.087 -22.165 -18.258  0.00  0.00    +0.159 HD
ATOM     10  H   UNL     1      37.333 -21.800 -15.912  0.00  0.00    +0.145 HD
ATOM     11  H   UNL     1      37.175 -22.518 -14.373  0.00  0.00    +0.145 HD
ENDROOT
BRANCH   1  13
ATOM     12  N   UNL     1      35.150 -18.918 -20.070  0.00  0.00    -0.159 NA
ATOM     13  C   UNL     1      33.795 -21.320 -19.142  0.00  0.00    +0.082 C 
ATOM     14  C   UNL     1      33.025 -20.095 -19.642  0.00  0.00    +0.039 C 
ATOM     15  C   UNL     1      35.167 -20.904 -18.605  0.00  0.00    +0.039 C 
ATOM     16  C   UNL     1      33.839 -19.310 -20.666  0.00  0.00    +0.097 C 
ATOM     17  C   UNL     1      35.949 -20.105 -19.644  0.00  0.00    +0.097 C 
BRANCH  12  18
ATOM     18  S   UNL     1      36.020 -17.724 -20.937  0.00  0.00    +0.046 S 
ATOM     19  O   UNL     1      37.411 -18.114 -20.993  0.00  0.00    -0.157 OA
ATOM     20  O   UNL     1      35.613 -16.420 -20.465  0.00  0.00    -0.157 OA
ATOM     21  C   UNL     1      35.315 -17.972 -22.545  0.00  0.00    +0.196 C 
ENDBRANCH  12  18
ENDBRANCH   1  13
BRANCH   7  23
ATOM     22  O   UNL     1      34.501 -23.472 -12.206  0.00  0.00    -0.286 OA
ATOM     23  C   UNL     1      35.199 -23.545 -13.229  0.00  0.00    +0.206 C 
BRANCH  23  26
ATOM     24  F   UNL     1      36.020 -25.882 -14.514  0.00  0.00    -0.202 F 
ATOM     25  F   UNL     1      38.544 -26.872 -14.253  0.00  0.00    -0.202 F 
ATOM     26  C   UNL     1      36.586 -24.076 -13.077  0.00  0.00    +0.103 C 
ATOM     27  C   UNL     1      37.485 -23.400 -12.284  0.00  0.00    +0.144 C 
ATOM     28  C   UNL     1      36.909 -25.236 -13.746  0.00  0.00    +0.173 C 
ATOM     29  C   UNL     1      38.777 -23.911 -12.153  0.00  0.00    +0.039 C 
ATOM     30  C   UNL     1      38.201 -25.745 -13.615  0.00  0.00    +0.168 C 
ATOM     31  C   UNL     1      39.134 -25.083 -12.819  0.00  0.00    +0.035 C 
BRANCH  27  32
ATOM     32  O   UNL     1      37.156 -22.253 -11.626  0.00  0.00    -0.471 OA
ATOM     33  C   UNL     1      37.024 -22.334 -10.209  0.00  0.00    +0.252 C 
ENDBRANCH  27  32
ENDBRANCH  23  26
ENDBRANCH   7  23
TORSDOF 5
ENDMDL
MODEL 5
REMARK VINA RESULT:     -10.4      2.208      2.907
REMARK  Name = 6918852
REMARK  5 active torsions:
REMARK  status: ('A' for Active; 'I' for Inactive)
REMARK    1  A    between atoms: N_1  and  C_13
REMARK    2  A    between atoms: C_7  and  C_23
REMARK    3  A    between atoms: N_12  and  S_18
REMARK    4  A    between atoms: C_23  and  C_26
REMARK    5  A    between atoms: C_27  and  O_32
REMARK                            x       y       z     vdW  Elec       q    Type
REMARK                         _______ _______ _______ _____ _____    ______ ____
ROOT
ATOM      1  N   UNL     1      35.936 -18.480 -20.277  0.00  0.00    -0.270 N 
ATOM      2  N   UNL     1      34.138 -19.885 -19.732  0.00  0.00    -0.323 NA
ATOM      3  N   UNL     1      36.320 -20.234 -18.768  0.00  0.00    -0.170 NA
ATOM      4  N   UNL     1      32.337 -21.319 -19.164  0.00  0.00    -0.332 N 
ATOM      5  C   UNL     1      35.450 -19.565 -19.571  0.00  0.00    +0.146 C 
ATOM      6  C   UNL     1      33.698 -20.950 -19.028  0.00  0.00    +0.194 C 
ATOM      7  C   UNL     1      34.497 -21.695 -18.185  0.00  0.00    +0.103 C 
ATOM      8  C   UNL     1      35.813 -21.287 -18.094  0.00  0.00    +0.119 C 
ATOM      9  H   UNL     1      36.884 -18.239 -20.168  0.00  0.00    +0.159 HD
ATOM     10  H   UNL     1      31.745 -20.804 -19.758  0.00  0.00    +0.145 HD
ATOM     11  H   UNL     1      31.983 -22.090 -18.665  0.00  0.00    +0.145 HD
ENDROOT
BRANCH   1  13
ATOM     12  N   UNL     1      34.925 -16.191 -23.662  0.00  0.00    -0.159 NA
ATOM     13  C   UNL     1      35.125 -17.679 -21.170  0.00  0.00    +0.082 C 
ATOM     14  C   UNL     1      35.756 -16.295 -21.342  0.00  0.00    +0.039 C 
ATOM     15  C   UNL     1      35.000 -18.379 -22.525  0.00  0.00    +0.039 C 
ATOM     16  C   UNL     1      34.989 -15.459 -22.362  0.00  0.00    +0.097 C 
ATOM     17  C   UNL     1      34.244 -17.512 -23.528  0.00  0.00    +0.097 C 
BRANCH  12  18
ATOM     18  S   UNL     1      34.436 -15.249 -25.007  0.00  0.00    +0.046 S 
ATOM     19  O   UNL     1      33.421 -15.976 -25.737  0.00  0.00    -0.157 OA
ATOM     20  O   UNL     1      35.616 -14.726 -25.659  0.00  0.00    -0.157 OA
ATOM     21  C   UNL     1      33.645 -13.915 -24.146  0.00  0.00    +0.196 C 
ENDBRANCH  12  18
ENDBRANCH   1  13
BRANCH   7  23
ATOM     22  O   UNL     1      33.880 -23.942 -17.981  0.00  0.00    -0.286 OA
ATOM     23  C   UNL     1      34.025 -22.843 -17.426  0.00  0.00    +0.206 C 
BRANCH  23  26
ATOM     24  F   UNL     1      35.959 -23.294 -15.464  0.00  0.00    -0.202 F 
ATOM     25  F   UNL     1      35.389 -23.149 -12.805  0.00  0.00    -0.202 F 
ATOM     26  C   UNL     1      33.699 -22.760 -15.971  0.00  0.00    +0.103 C 
ATOM     27  C   UNL     1      32.415 -22.455 -15.583  0.00  0.00    +0.144 C 
ATOM     28  C   UNL     1      34.712 -22.997 -15.069  0.00  0.00    +0.173 C 
ATOM     29  C   UNL     1      32.127 -22.382 -14.219  0.00  0.00    +0.039 C 
ATOM     30  C   UNL     1      34.424 -22.923 -13.706  0.00  0.00    +0.168 C 
ATOM     31  C   UNL     1      33.132 -22.616 -13.281  0.00  0.00    +0.035 C 
BRANCH  27  32
ATOM     32  O   UNL     1      31.419 -22.221 -16.483  0.00  0.00    -0.471 OA
ATOM     33  C   UNL     1      30.079 -22.315 -16.006  0.00  0.00    +0.252 C 
ENDBRANCH  27  32
ENDBRANCH  23  26
ENDBRANCH   7  23
TORSDOF 5
ENDMDL
MODEL 6
REMARK VINA RESULT:     -10.3      4.334      9.477
REMARK  Name = 6918852
REMARK  5 active torsions:
REMARK  status: ('A' for Active; 'I' for Inactive)
REMARK    1  A    between atoms: N_1  and  C_13
REMARK    2  A    between atoms: C_7  and  C_23
REMARK    3  A    between atoms: N_12  and  S_18
REMARK    4  A    between atoms: C_23  and  C_26
REMARK    5  A    between atoms: C_27  and  O_32
REMARK                            x       y       z     vdW  Elec       q    Type
REMARK                         _______ _______ _______ _____ _____    ______ ____
ROOT
ATOM      1  N   UNL     1      33.061 -21.515 -18.373  0.00  0.00    -0.270 N 
ATOM      2  N   UNL     1      35.114 -20.568 -19.003  0.00  0.00    -0.323 NA
ATOM      3  N   UNL     1      33.057 -19.877 -20.053  0.00  0.00    -0.170 NA
ATOM      4  N   UNL     1      37.175 -19.595 -19.656  0.00  0.00    -0.332 N 
ATOM      5  C   UNL     1      33.765 -20.626 -19.167  0.00  0.00    +0.146 C 
ATOM      6  C   UNL     1      35.768 -19.690 -19.793  0.00  0.00    +0.194 C 
ATOM      7  C   UNL     1      35.145 -18.883 -20.723  0.00  0.00    +0.103 C 
ATOM      8  C   UNL     1      33.774 -19.021 -20.809  0.00  0.00    +0.119 C 
ATOM      9  H   UNL     1      32.084 -21.565 -18.483  0.00  0.00    +0.159 HD
ATOM     10  H   UNL     1      37.645 -20.159 -18.999  0.00  0.00    +0.145 HD
ATOM     11  H   UNL     1      37.683 -18.965 -20.216  0.00  0.00    +0.145 HD
ENDROOT
BRANCH   1  13
ATOM     12  N   UNL     1      34.652 -22.723 -14.669  0.00  0.00    -0.159 NA
ATOM     13  C   UNL     1      33.685 -22.376 -17.391  0.00  0.00    +0.082 C 
ATOM     14  C   UNL     1      34.994 -21.747 -16.908  0.00  0.00    +0.039 C 
ATOM     15  C   UNL     1      32.732 -22.591 -16.212  0.00  0.00    +0.039 C 
ATOM     16  C   UNL     1      35.626 -22.572 -15.791  0.00  0.00    +0.097 C 
ATOM     17  C   UNL     1      33.397 -23.403 -15.105  0.00  0.00    +0.097 C 
BRANCH  12  18
ATOM     18  S   UNL     1      35.317 -23.290 -13.196  0.00  0.00    +0.046 S 
ATOM     19  O   UNL     1      34.235 -23.629 -12.299  0.00  0.00    -0.157 OA
ATOM     20  O   UNL     1      36.386 -22.401 -12.797  0.00  0.00    -0.157 OA
ATOM     21  C   UNL     1      36.044 -24.800 -13.775  0.00  0.00    +0.196 C 
ENDBRANCH  12  18
ENDBRANCH   1  13
BRANCH   7  23
ATOM     22  O   UNL     1      36.940 -18.241 -22.078  0.00  0.00    -0.286 OA
ATOM     23  C   UNL     1      35.848 -17.937 -21.575  0.00  0.00    +0.206 C 
BRANCH  23  26
ATOM     24  F   UNL     1      35.578 -15.983 -19.600  0.00  0.00    -0.202 F 
ATOM     25  F   UNL     1      34.590 -13.503 -20.138  0.00  0.00    -0.202 F 
ATOM     26  C   UNL     1      35.305 -16.581 -21.884  0.00  0.00    +0.103 C 
ATOM     27  C   UNL     1      34.926 -16.282 -23.173  0.00  0.00    +0.144 C 
ATOM     28  C   UNL     1      35.204 -15.676 -20.851  0.00  0.00    +0.173 C 
ATOM     29  C   UNL     1      34.421 -15.010 -23.444  0.00  0.00    +0.039 C 
ATOM     30  C   UNL     1      34.699 -14.404 -21.123  0.00  0.00    +0.168 C 
ATOM     31  C   UNL     1      34.308 -14.071 -22.419  0.00  0.00    +0.035 C 
BRANCH  27  32
ATOM     32  O   UNL     1      35.030 -17.184 -24.189  0.00  0.00    -0.471 OA
ATOM     33  C   UNL     1      33.818 -17.762 -24.669  0.00  0.00    +0.252 C 
ENDBRANCH  27  32
ENDBRANCH  23  26
ENDBRANCH   7  23
TORSDOF 5
ENDMDL
MODEL 7
REMARK VINA RESULT:      -9.9      4.494      9.554
REMARK  Name = 6918852
REMARK  5 active torsions:
REMARK  status: ('A' for Active; 'I' for Inactive)
REMARK    1  A    between atoms: N_1  and  C_13
REMARK    2  A    between atoms: C_7  and  C_23
REMARK    3  A    between atoms: N_12  and  S_18
REMARK    4  A    between atoms: C_23  and  C_26
REMARK    5  A    between atoms: C_27  and  O_32
REMARK                            x       y       z     vdW  Elec       q    Type
REMARK                         _______ _______ _______ _____ _____    ______ ____
ROOT
ATOM      1  N   UNL     1      32.973 -21.682 -17.949  0.00  0.00    -0.270 N 
ATOM      2  N   UNL     1      35.084 -20.889 -18.600  0.00  0.00    -0.323 NA
ATOM      3  N   UNL     1      33.075 -20.072 -19.652  0.00  0.00    -0.170 NA
ATOM      4  N   UNL     1      37.205 -20.072 -19.274  0.00  0.00    -0.332 N 
ATOM      5  C   UNL     1      33.733 -20.857 -18.758  0.00  0.00    +0.146 C 
ATOM      6  C   UNL     1      35.794 -20.071 -19.405  0.00  0.00    +0.194 C 
ATOM      7  C   UNL     1      35.224 -19.236 -20.344  0.00  0.00    +0.103 C 
ATOM      8  C   UNL     1      33.847 -19.279 -20.424  0.00  0.00    +0.119 C 
ATOM      9  H   UNL     1      31.995 -21.665 -18.054  0.00  0.00    +0.159 HD
ATOM     10  H   UNL     1      37.637 -20.659 -18.612  0.00  0.00    +0.145 HD
ATOM     11  H   UNL     1      37.753 -19.487 -19.845  0.00  0.00    +0.145 HD
ENDROOT
BRANCH   1  13
ATOM     12  N   UNL     1      34.626 -22.912 -14.279  0.00  0.00    -0.159 NA
ATOM     13  C   UNL     1      33.540 -22.570 -16.956  0.00  0.00    +0.082 C 
ATOM     14  C   UNL     1      34.949 -22.102 -16.586  0.00  0.00    +0.039 C 
ATOM     15  C   UNL     1      32.645 -22.598 -15.714  0.00  0.00    +0.039 C 
ATOM     16  C   UNL     1      35.537 -22.949 -15.461  0.00  0.00    +0.097 C 
ATOM     17  C   UNL     1      33.267 -23.437 -14.602  0.00  0.00    +0.097 C 
BRANCH  12  18
ATOM     18  S   UNL     1      35.305 -23.491 -12.816  0.00  0.00    +0.046 S 
ATOM     19  O   UNL     1      34.235 -23.955 -11.961  0.00  0.00    -0.157 OA
ATOM     20  O   UNL     1      36.291 -22.539 -12.354  0.00  0.00    -0.157 OA
ATOM     21  C   UNL     1      36.162 -24.911 -13.443  0.00  0.00    +0.196 C 
ENDBRANCH  12  18
ENDBRANCH   1  13
BRANCH   7  23
ATOM     22  O   UNL     1      37.224 -18.318 -21.135  0.00  0.00    -0.286 OA
ATOM     23  C   UNL     1      35.987 -18.353 -21.212  0.00  0.00    +0.206 C 
BRANCH  23  26
ATOM     24  F   UNL     1      35.042 -19.346 -23.644  0.00  0.00    -0.202 F 
ATOM     25  F   UNL     1      33.853 -17.747 -25.500  0.00  0.00    -0.202 F 
ATOM     26  C   UNL     1      35.338 -17.465 -22.222  0.00  0.00    +0.103 C 
ATOM     27  C   UNL     1      35.199 -16.123 -21.951  0.00  0.00    +0.144 C 
ATOM     28  C   UNL     1      34.899 -18.036 -23.396  0.00  0.00    +0.173 C 
ATOM     29  C   UNL     1      34.590 -15.307 -22.904  0.00  0.00    +0.039 C 
ATOM     30  C   UNL     1      34.289 -17.220 -24.349  0.00  0.00    +0.168 C 
ATOM     31  C   UNL     1      34.135 -15.856 -24.103  0.00  0.00    +0.035 C 
BRANCH  27  32
ATOM     32  O   UNL     1      35.636 -15.567 -20.786  0.00  0.00    -0.471 OA
ATOM     33  C   UNL     1      34.774 -14.624 -20.154  0.00  0.00    +0.252 C 
ENDBRANCH  27  32
ENDBRANCH  23  26
ENDBRANCH   7  23
TORSDOF 5
ENDMDL
MODEL 8
REMARK VINA RESULT:      -9.9      6.867     12.063
REMARK  Name = 6918852
REMARK  5 active torsions:
REMARK  status: ('A' for Active; 'I' for Inactive)
REMARK    1  A    between atoms: N_1  and  C_13
REMARK    2  A    between atoms: C_7  and  C_23
REMARK    3  A    between atoms: N_12  and  S_18
REMARK    4  A    between atoms: C_23  and  C_26
REMARK    5  A    between atoms: C_27  and  O_32
REMARK                            x       y       z     vdW  Elec       q    Type
REMARK                         _______ _______ _______ _____ _____    ______ ____
ROOT
ATOM      1  N   UNL     1      34.847 -12.429 -22.988  0.00  0.00    -0.270 N 
ATOM      2  N   UNL     1      32.876 -11.567 -22.052  0.00  0.00    -0.323 NA
ATOM      3  N   UNL     1      34.422 -10.134 -23.221  0.00  0.00    -0.170 NA
ATOM      4  N   UNL     1      30.890 -10.671 -21.115  0.00  0.00    -0.332 N 
ATOM      5  C   UNL     1      34.024 -11.344 -22.747  0.00  0.00    +0.146 C 
ATOM      6  C   UNL     1      32.097 -10.486 -21.835  0.00  0.00    +0.194 C 
ATOM      7  C   UNL     1      32.409  -9.215 -22.274  0.00  0.00    +0.103 C 
ATOM      8  C   UNL     1      33.595  -9.098 -22.969  0.00  0.00    +0.119 C 
ATOM      9  H   UNL     1      35.679 -12.279 -23.491  0.00  0.00    +0.159 HD
ATOM     10  H   UNL     1      30.644 -11.568 -20.791  0.00  0.00    +0.145 HD
ATOM     11  H   UNL     1      30.299  -9.904 -20.940  0.00  0.00    +0.145 HD
ENDROOT
BRANCH   1  13
ATOM     12  N   UNL     1      35.543 -16.349 -21.622  0.00  0.00    -0.159 NA
ATOM     13  C   UNL     1      34.549 -13.773 -22.541  0.00  0.00    +0.082 C 
ATOM     14  C   UNL     1      35.179 -14.789 -23.497  0.00  0.00    +0.039 C 
ATOM     15  C   UNL     1      35.085 -13.977 -21.121  0.00  0.00    +0.039 C 
ATOM     16  C   UNL     1      34.980 -16.217 -22.998  0.00  0.00    +0.097 C 
ATOM     17  C   UNL     1      34.888 -15.417 -20.657  0.00  0.00    +0.097 C 
BRANCH  12  18
ATOM     18  S   UNL     1      35.743 -17.956 -21.065  0.00  0.00    +0.046 S 
ATOM     19  O   UNL     1      34.818 -18.189 -19.978  0.00  0.00    -0.157 OA
ATOM     20  O   UNL     1      37.158 -18.228 -20.933  0.00  0.00    -0.157 OA
ATOM     21  C   UNL     1      35.146 -18.826 -22.490  0.00  0.00    +0.196 C 
ENDBRANCH  12  18
ENDBRANCH   1  13
BRANCH   7  23
ATOM     22  O   UNL     1      30.523  -7.894 -22.686  0.00  0.00    -0.286 OA
ATOM     23  C   UNL     1      31.571  -8.049 -22.041  0.00  0.00    +0.206 C 
BRANCH  23  26
ATOM     24  F   UNL     1      32.143  -5.424 -22.796  0.00  0.00    -0.202 F 
ATOM     25  F   UNL     1      32.778  -3.497 -20.980  0.00  0.00    -0.202 F 
ATOM     26  C   UNL     1      31.918  -7.002 -21.034  0.00  0.00    +0.103 C 
ATOM     27  C   UNL     1      31.958  -7.335 -19.699  0.00  0.00    +0.144 C 
ATOM     28  C   UNL     1      32.187  -5.732 -21.492  0.00  0.00    +0.173 C 
ATOM     29  C   UNL     1      32.284  -6.345 -18.772  0.00  0.00    +0.039 C 
ATOM     30  C   UNL     1      32.512  -4.742 -20.564  0.00  0.00    +0.168 C 
ATOM     31  C   UNL     1      32.561  -5.048 -19.205  0.00  0.00    +0.035 C 
BRANCH  27  32
ATOM     32  O   UNL     1      31.690  -8.596 -19.256  0.00  0.00    -0.471 OA
ATOM     33  C   UNL     1      32.618  -9.171 -18.339  0.00  0.00    +0.252 C 
ENDBRANCH  27  32
ENDBRANCH  23  26
ENDBRANCH   7  23
TORSDOF 5
ENDMDL
MODEL 9
REMARK VINA RESULT:      -9.5      6.354     12.385
REMARK  Name = 6918852
REMARK  5 active torsions:
REMARK  status: ('A' for Active; 'I' for Inactive)
REMARK    1  A    between atoms: N_1  and  C_13
REMARK    2  A    between atoms: C_7  and  C_23
REMARK    3  A    between atoms: N_12  and  S_18
REMARK    4  A    between atoms: C_23  and  C_26
REMARK    5  A    between atoms: C_27  and  O_32
REMARK                            x       y       z     vdW  Elec       q    Type
REMARK                         _______ _______ _______ _____ _____    ______ ____
ROOT
ATOM      1  N   UNL     1      34.771 -12.197 -23.055  0.00  0.00    -0.270 N 
ATOM      2  N   UNL     1      32.772 -11.389 -22.127  0.00  0.00    -0.323 NA
ATOM      3  N   UNL     1      34.277  -9.917 -23.300  0.00  0.00    -0.170 NA
ATOM      4  N   UNL     1      30.759 -10.549 -21.199  0.00  0.00    -0.332 N 
ATOM      5  C   UNL     1      33.915 -11.136 -22.821  0.00  0.00    +0.146 C 
ATOM      6  C   UNL     1      31.961 -10.331 -21.917  0.00  0.00    +0.194 C 
ATOM      7  C   UNL     1      32.235  -9.054 -22.361  0.00  0.00    +0.103 C 
ATOM      8  C   UNL     1      33.420  -8.905 -23.054  0.00  0.00    +0.119 C 
ATOM      9  H   UNL     1      35.599 -12.025 -23.557  0.00  0.00    +0.159 HD
ATOM     10  H   UNL     1      30.538 -11.451 -20.871  0.00  0.00    +0.145 HD
ATOM     11  H   UNL     1      30.144  -9.799 -21.028  0.00  0.00    +0.145 HD
ENDROOT
BRANCH   1  13
ATOM     12  N   UNL     1      35.583 -16.107 -21.726  0.00  0.00    -0.159 NA
ATOM     13  C   UNL     1      34.512 -13.547 -22.601  0.00  0.00    +0.082 C 
ATOM     14  C   UNL     1      35.125 -14.550 -23.582  0.00  0.00    +0.039 C 
ATOM     15  C   UNL     1      35.101 -13.745 -21.202  0.00  0.00    +0.039 C 
ATOM     16  C   UNL     1      34.969 -15.982 -23.081  0.00  0.00    +0.097 C 
ATOM     17  C   UNL     1      34.946 -15.189 -20.736  0.00  0.00    +0.097 C 
BRANCH  12  18
ATOM     18  S   UNL     1      35.830 -17.712 -21.181  0.00  0.00    +0.046 S 
ATOM     19  O   UNL     1      35.035 -17.926 -19.993  0.00  0.00    -0.157 OA
ATOM     20  O   UNL     1      37.247 -17.998 -21.211  0.00  0.00    -0.157 OA
ATOM     21  C   UNL     1      35.063 -18.587 -22.519  0.00  0.00    +0.196 C 
ENDBRANCH  12  18
ENDBRANCH   1  13
BRANCH   7  23
ATOM     22  O   UNL     1      30.211  -7.906 -22.596  0.00  0.00    -0.286 OA
ATOM     23  C   UNL     1      31.362  -7.913 -22.136  0.00  0.00    +0.206 C 
BRANCH  23  26
ATOM     24  F   UNL     1      32.005  -8.087 -19.426  0.00  0.00    -0.202 F 
ATOM     25  F   UNL     1      32.797  -5.920 -17.979  0.00  0.00    -0.202 F 
ATOM     26  C   UNL     1      31.795  -6.716 -21.355  0.00  0.00    +0.103 C 
ATOM     27  C   UNL     1      31.880  -5.494 -21.982  0.00  0.00    +0.144 C 
ATOM     28  C   UNL     1      32.094  -6.889 -20.022  0.00  0.00    +0.173 C 
ATOM     29  C   UNL     1      32.286  -4.386 -21.238  0.00  0.00    +0.039 C 
ATOM     30  C   UNL     1      32.500  -5.781 -19.278  0.00  0.00    +0.168 C 
ATOM     31  C   UNL     1      32.596  -4.530 -19.885  0.00  0.00    +0.035 C 
BRANCH  27  32
ATOM     32  O   UNL     1      31.583  -5.332 -23.302  0.00  0.00    -0.471 OA
ATOM     33  C   UNL     1      32.667  -5.035 -24.179  0.00  0.00    +0.252 C 
ENDBRANCH  27  32
ENDBRANCH  23  26
ENDBRANCH   7  23
TORSDOF 5
ENDMDL
