MODEL 1
REMARK VINA RESULT:     -12.8      0.000      0.000
REMARK  Name = 11224409
REMARK  8 active torsions:
REMARK  status: ('A' for Active; 'I' for Inactive)
REMARK    1  A    between atoms: C_2  and  N_10
REMARK    2  A    between atoms: C_5  and  C_20
REMARK    3  A    between atoms: C_11  and  C_14
REMARK    4  A    between atoms: C_14  and  N_16
REMARK    5  A    between atoms: C_21  and  C_26
REMARK    6  A    between atoms: C_26  and  N_27
REMARK    7  A    between atoms: N_27  and  C_30
REMARK    8  A    between atoms: C_30  and  C_34
REMARK                            x       y       z     vdW  Elec       q    Type
REMARK                         _______ _______ _______ _____ _____    ______ ____
ROOT
ATOM      1  F   UNL     1      33.443 -22.002 -17.946  0.00  0.00    -0.204 F 
ATOM      2  C   UNL     1      36.122 -22.577 -15.559  0.00  0.00    +0.059 C 
ATOM      3  C   UNL     1      34.880 -22.653 -16.191  0.00  0.00    +0.045 C 
ATOM      4  C   UNL     1      37.125 -21.766 -16.090  0.00  0.00    +0.015 C 
ATOM      5  C   UNL     1      35.645 -21.106 -17.881  0.00  0.00    +0.028 C 
ATOM      6  C   UNL     1      34.642 -21.917 -17.351  0.00  0.00    +0.141 C 
ATOM      7  C   UNL     1      36.887 -21.030 -17.251  0.00  0.00    +0.004 C 
ENDROOT
BRANCH   2  10
ATOM      8  O   UNL     1      36.754 -25.030 -12.943  0.00  0.00    -0.434 OA
ATOM      9  O   UNL     1      36.528 -25.562 -15.136  0.00  0.00    -0.226 OA
ATOM     10  N   UNL     1      36.366 -23.328 -14.374  0.00  0.00    -0.221 N 
ATOM     11  C   UNL     1      36.935 -23.826 -12.186  0.00  0.00    +0.210 C 
ATOM     12  C   UNL     1      36.344 -22.741 -13.061  0.00  0.00    +0.147 C 
ATOM     13  C   UNL     1      36.552 -24.704 -14.266  0.00  0.00    +0.409 C 
BRANCH  11  14
ATOM     14  C   UNL     1      38.421 -23.635 -11.915  0.00  0.00    +0.135 C 
BRANCH  14  16
ATOM     15  O   UNL     1      39.850 -23.598 -14.443  0.00  0.00    -0.275 OA
ATOM     16  N   UNL     1      39.194 -24.694 -12.494  0.00  0.00    -0.301 N 
ATOM     17  C   UNL     1      39.848 -24.589 -13.717  0.00  0.00    +0.223 C 
ATOM     18  C   UNL     1      40.606 -25.839 -14.077  0.00  0.00    +0.095 C 
ATOM     19  H   UNL     1      39.264 -25.543 -11.999  0.00  0.00    +0.150 HD
ENDBRANCH  14  16
ENDBRANCH  11  14
ENDBRANCH   2  10
BRANCH   5  20
ATOM     20  C   UNL     1      35.402 -20.341 -19.085  0.00  0.00    +0.002 C 
ATOM     21  C   UNL     1      34.933 -18.864 -21.404  0.00  0.00    -0.044 C 
ATOM     22  C   UNL     1      34.097 -20.156 -19.542  0.00  0.00    -0.000 C 
ATOM     23  C   UNL     1      36.472 -19.787 -19.788  0.00  0.00    -0.000 C 
ATOM     24  C   UNL     1      33.863 -19.416 -20.701  0.00  0.00    -0.006 C 
ATOM     25  C   UNL     1      36.238 -19.050 -20.948  0.00  0.00    -0.006 C 
BRANCH  21  26
ATOM     26  C   UNL     1      34.682 -18.073 -22.644  0.00  0.00    -0.054 C 
BRANCH  26  27
ATOM     27  N   UNL     1      35.777 -17.152 -22.950  0.00  0.00    +0.390 N 
ATOM     28  H   UNL     1      35.995 -17.209 -23.945  0.00  0.00    -0.083 HD
ATOM     29  H   UNL     1      36.591 -17.415 -22.395  0.00  0.00    -0.083 HD
BRANCH  27  30
ATOM     30  C   UNL     1      35.407 -15.785 -22.620  0.00  0.00    -0.031 C 
BRANCH  30  34
ATOM     31  N   UNL     1      34.793 -15.546 -25.006  0.00  0.00    -0.170 NA
ATOM     32  N   UNL     1      33.980 -14.694 -25.649  0.00  0.00    -0.157 N 
ATOM     33  N   UNL     1      33.336 -13.758 -24.933  0.00  0.00    -0.162 NA
ATOM     34  C   UNL     1      34.662 -15.119 -23.746  0.00  0.00    +0.077 C 
ATOM     35  C   UNL     1      33.777 -14.033 -23.702  0.00  0.00    +0.133 C 
ATOM     36  H   UNL     1      33.858 -14.754 -26.624  0.00  0.00    +0.197 HD
ENDBRANCH  30  34
ENDBRANCH  27  30
ENDBRANCH  26  27
ENDBRANCH  21  26
ENDBRANCH   5  20
TORSDOF 8
ENDMDL
MODEL 2
REMARK VINA RESULT:     -12.2      1.166      1.652
REMARK  Name = 11224409
REMARK  8 active torsions:
REMARK  status: ('A' for Active; 'I' for Inactive)
REMARK    1  A    between atoms: C_2  and  N_10
REMARK    2  A    between atoms: C_5  and  C_20
REMARK    3  A    between atoms: C_11  and  C_14
REMARK    4  A    between atoms: C_14  and  N_16
REMARK    5  A    between atoms: C_21  and  C_26
REMARK    6  A    between atoms: C_26  and  N_27
REMARK    7  A    between atoms: N_27  and  C_30
REMARK    8  A    between atoms: C_30  and  C_34
REMARK                            x       y       z     vdW  Elec       q    Type
REMARK                         _______ _______ _______ _____ _____    ______ ____
ROOT
ATOM      1  F   UNL     1      33.483 -22.173 -17.436  0.00  0.00    -0.204 F 
ATOM      2  C   UNL     1      35.929 -22.559 -14.776  0.00  0.00    +0.059 C 
ATOM      3  C   UNL     1      34.747 -22.680 -15.507  0.00  0.00    +0.045 C 
ATOM      4  C   UNL     1      36.989 -21.808 -15.283  0.00  0.00    +0.015 C 
ATOM      5  C   UNL     1      35.686 -21.297 -17.252  0.00  0.00    +0.028 C 
ATOM      6  C   UNL     1      34.625 -22.048 -16.745  0.00  0.00    +0.141 C 
ATOM      7  C   UNL     1      36.868 -21.177 -16.521  0.00  0.00    +0.004 C 
ENDROOT
BRANCH   2  10
ATOM      8  O   UNL     1      35.584 -24.325 -11.610  0.00  0.00    -0.434 OA
ATOM      9  O   UNL     1      33.860 -23.957 -13.038  0.00  0.00    -0.226 OA
ATOM     10  N   UNL     1      36.053 -23.204 -13.512  0.00  0.00    -0.221 N 
ATOM     11  C   UNL     1      37.013 -24.222 -11.668  0.00  0.00    +0.210 C 
ATOM     12  C   UNL     1      37.270 -23.191 -12.747  0.00  0.00    +0.147 C 
ATOM     13  C   UNL     1      35.049 -23.834 -12.780  0.00  0.00    +0.409 C 
BRANCH  11  14
ATOM     14  C   UNL     1      37.591 -25.591 -11.996  0.00  0.00    +0.135 C 
BRANCH  14  16
ATOM     15  O   UNL     1      38.367 -25.946 -14.772  0.00  0.00    -0.275 OA
ATOM     16  N   UNL     1      38.907 -25.478 -12.555  0.00  0.00    -0.301 N 
ATOM     17  C   UNL     1      39.189 -25.666 -13.904  0.00  0.00    +0.223 C 
ATOM     18  C   UNL     1      40.646 -25.463 -14.224  0.00  0.00    +0.095 C 
ATOM     19  H   UNL     1      39.651 -25.255 -11.949  0.00  0.00    +0.150 HD
ENDBRANCH  14  16
ENDBRANCH  11  14
ENDBRANCH   2  10
BRANCH   5  20
ATOM     20  C   UNL     1      35.564 -20.640 -18.535  0.00  0.00    +0.002 C 
ATOM     21  C   UNL     1      35.330 -19.376 -21.011  0.00  0.00    -0.044 C 
ATOM     22  C   UNL     1      36.706 -20.202 -19.206  0.00  0.00    -0.000 C 
ATOM     23  C   UNL     1      34.304 -20.446 -19.104  0.00  0.00    -0.000 C 
ATOM     24  C   UNL     1      36.589 -19.571 -20.444  0.00  0.00    -0.006 C 
ATOM     25  C   UNL     1      34.187 -19.813 -20.341  0.00  0.00    -0.006 C 
BRANCH  21  26
ATOM     26  C   UNL     1      35.205 -18.701 -22.335  0.00  0.00    -0.054 C 
BRANCH  26  27
ATOM     27  N   UNL     1      36.104 -17.552 -22.462  0.00  0.00    +0.390 N 
ATOM     28  H   UNL     1      36.454 -17.505 -23.419  0.00  0.00    -0.083 HD
ATOM     29  H   UNL     1      36.877 -17.666 -21.808  0.00  0.00    -0.083 HD
BRANCH  27  30
ATOM     30  C   UNL     1      35.404 -16.316 -22.149  0.00  0.00    -0.031 C 
BRANCH  30  34
ATOM     31  N   UNL     1      34.337 -14.424 -23.335  0.00  0.00    -0.170 NA
ATOM     32  N   UNL     1      33.975 -14.247 -24.615  0.00  0.00    -0.157 N 
ATOM     33  N   UNL     1      34.200 -15.243 -25.488  0.00  0.00    -0.162 NA
ATOM     34  C   UNL     1      34.849 -15.657 -23.384  0.00  0.00    +0.077 C 
ATOM     35  C   UNL     1      34.765 -16.155 -24.692  0.00  0.00    +0.133 C 
ATOM     36  H   UNL     1      33.554 -13.407 -24.908  0.00  0.00    +0.197 HD
ENDBRANCH  30  34
ENDBRANCH  27  30
ENDBRANCH  26  27
ENDBRANCH  21  26
ENDBRANCH   5  20
TORSDOF 8
ENDMDL
MODEL 3
REMARK VINA RESULT:     -12.2      4.375     11.827
REMARK  Name = 11224409
REMARK  8 active torsions:
REMARK  status: ('A' for Active; 'I' for Inactive)
REMARK    1  A    between atoms: C_2  and  N_10
REMARK    2  A    between atoms: C_5  and  C_20
REMARK    3  A    between atoms: C_11  and  C_14
REMARK    4  A    between atoms: C_14  and  N_16
REMARK    5  A    between atoms: C_21  and  C_26
REMARK    6  A    between atoms: C_26  and  N_27
REMARK    7  A    between atoms: N_27  and  C_30
REMARK    8  A    between atoms: C_30  and  C_34
REMARK                            x       y       z     vdW  Elec       q    Type
REMARK                         _______ _______ _______ _____ _____    ______ ____
ROOT
ATOM      1  F   UNL     1      33.136 -20.186 -20.053  0.00  0.00    -0.204 F 
ATOM      2  C   UNL     1      35.131 -17.953 -22.113  0.00  0.00    +0.059 C 
ATOM      3  C   UNL     1      34.042 -18.679 -21.628  0.00  0.00    +0.045 C 
ATOM      4  C   UNL     1      36.369 -18.044 -21.476  0.00  0.00    +0.015 C 
ATOM      5  C   UNL     1      35.429 -19.586 -19.870  0.00  0.00    +0.028 C 
ATOM      6  C   UNL     1      34.192 -19.495 -20.507  0.00  0.00    +0.141 C 
ATOM      7  C   UNL     1      36.518 -18.860 -20.354  0.00  0.00    +0.004 C 
ENDROOT
BRANCH   2  10
ATOM      8  O   UNL     1      34.491 -16.378 -25.333  0.00  0.00    -0.434 OA
ATOM      9  O   UNL     1      34.043 -18.557 -24.889  0.00  0.00    -0.226 OA
ATOM     10  N   UNL     1      34.979 -17.121 -23.258  0.00  0.00    -0.221 N 
ATOM     11  C   UNL     1      34.825 -15.215 -24.563  0.00  0.00    +0.210 C 
ATOM     12  C   UNL     1      35.466 -15.768 -23.308  0.00  0.00    +0.147 C 
ATOM     13  C   UNL     1      34.457 -17.474 -24.500  0.00  0.00    +0.409 C 
BRANCH  11  14
ATOM     14  C   UNL     1      33.554 -14.424 -24.289  0.00  0.00    +0.135 C 
BRANCH  14  16
ATOM     15  O   UNL     1      34.357 -12.549 -22.223  0.00  0.00    -0.275 OA
ATOM     16  N   UNL     1      33.779 -13.016 -24.431  0.00  0.00    -0.301 N 
ATOM     17  C   UNL     1      34.164 -12.189 -23.381  0.00  0.00    +0.223 C 
ATOM     18  C   UNL     1      34.355 -10.759 -23.810  0.00  0.00    +0.095 C 
ATOM     19  H   UNL     1      33.652 -12.612 -25.320  0.00  0.00    +0.150 HD
ENDBRANCH  14  16
ENDBRANCH  11  14
ENDBRANCH   2  10
BRANCH   5  20
ATOM     20  C   UNL     1      35.589 -20.432 -18.707  0.00  0.00    +0.002 C 
ATOM     21  C   UNL     1      35.896 -22.060 -16.463  0.00  0.00    -0.044 C 
ATOM     22  C   UNL     1      36.810 -20.471 -18.036  0.00  0.00    -0.000 C 
ATOM     23  C   UNL     1      34.520 -21.206 -18.255  0.00  0.00    -0.000 C 
ATOM     24  C   UNL     1      36.964 -21.285 -16.913  0.00  0.00    -0.006 C 
ATOM     25  C   UNL     1      34.673 -22.021 -17.134  0.00  0.00    -0.006 C 
BRANCH  21  26
ATOM     26  C   UNL     1      36.060 -22.930 -15.263  0.00  0.00    -0.054 C 
BRANCH  26  27
ATOM     27  N   UNL     1      37.463 -23.252 -14.995  0.00  0.00    +0.390 N 
ATOM     28  H   UNL     1      37.893 -22.479 -14.486  0.00  0.00    -0.083 HD
ATOM     29  H   UNL     1      37.941 -23.399 -15.883  0.00  0.00    -0.083 HD
BRANCH  27  30
ATOM     30  C   UNL     1      37.568 -24.465 -14.200  0.00  0.00    -0.031 C 
BRANCH  30  34
ATOM     31  N   UNL     1      38.685 -23.306 -12.319  0.00  0.00    -0.170 NA
ATOM     32  N   UNL     1      38.489 -23.340 -10.992  0.00  0.00    -0.157 N 
ATOM     33  N   UNL     1      37.519 -24.133 -10.507  0.00  0.00    -0.162 NA
ATOM     34  C   UNL     1      37.746 -24.161 -12.735  0.00  0.00    +0.077 C 
ATOM     35  C   UNL     1      37.038 -24.664 -11.635  0.00  0.00    +0.133 C 
ATOM     36  H   UNL     1      39.044 -22.798 -10.387  0.00  0.00    +0.197 HD
ENDBRANCH  30  34
ENDBRANCH  27  30
ENDBRANCH  26  27
ENDBRANCH  21  26
ENDBRANCH   5  20
TORSDOF 8
ENDMDL
MODEL 4
REMARK VINA RESULT:     -12.1      3.083      4.798
REMARK  Name = 11224409
REMARK  8 active torsions:
REMARK  status: ('A' for Active; 'I' for Inactive)
REMARK    1  A    between atoms: C_2  and  N_10
REMARK    2  A    between atoms: C_5  and  C_20
REMARK    3  A    between atoms: C_11  and  C_14
REMARK    4  A    between atoms: C_14  and  N_16
REMARK    5  A    between atoms: C_21  and  C_26
REMARK    6  A    between atoms: C_26  and  N_27
REMARK    7  A    between atoms: N_27  and  C_30
REMARK    8  A    between atoms: C_30  and  C_34
REMARK                            x       y       z     vdW  Elec       q    Type
REMARK                         _______ _______ _______ _____ _____    ______ ____
ROOT
ATOM      1  F   UNL     1      37.317 -19.066 -20.421  0.00  0.00    -0.204 F 
ATOM      2  C   UNL     1      34.928 -20.945 -18.427  0.00  0.00    +0.059 C 
ATOM      3  C   UNL     1      36.138 -20.438 -18.904  0.00  0.00    +0.045 C 
ATOM      4  C   UNL     1      33.728 -20.556 -19.022  0.00  0.00    +0.015 C 
ATOM      5  C   UNL     1      34.946 -19.157 -20.569  0.00  0.00    +0.028 C 
ATOM      6  C   UNL     1      36.146 -19.544 -19.975  0.00  0.00    +0.141 C 
ATOM      7  C   UNL     1      33.736 -19.662 -20.093  0.00  0.00    +0.004 C 
ENDROOT
BRANCH   2  10
ATOM      8  O   UNL     1      35.501 -22.999 -15.477  0.00  0.00    -0.434 OA
ATOM      9  O   UNL     1      36.948 -21.410 -16.201  0.00  0.00    -0.226 OA
ATOM     10  N   UNL     1      34.920 -21.857 -17.335  0.00  0.00    -0.221 N 
ATOM     11  C   UNL     1      34.145 -23.367 -15.761  0.00  0.00    +0.210 C 
ATOM     12  C   UNL     1      33.908 -22.866 -17.170  0.00  0.00    +0.147 C 
ATOM     13  C   UNL     1      35.888 -22.002 -16.344  0.00  0.00    +0.409 C 
BRANCH  11  14
ATOM     14  C   UNL     1      33.232 -22.716 -14.731  0.00  0.00    +0.135 C 
BRANCH  14  16
ATOM     15  O   UNL     1      32.048 -24.422 -12.701  0.00  0.00    -0.275 OA
ATOM     16  N   UNL     1      31.928 -23.309 -14.745  0.00  0.00    -0.301 N 
ATOM     17  C   UNL     1      31.439 -24.119 -13.724  0.00  0.00    +0.223 C 
ATOM     18  C   UNL     1      30.033 -24.589 -13.981  0.00  0.00    +0.095 C 
ATOM     19  H   UNL     1      31.346 -23.135 -15.520  0.00  0.00    +0.150 HD
ENDBRANCH  14  16
ENDBRANCH  11  14
ENDBRANCH   2  10
BRANCH   5  20
ATOM     20  C   UNL     1      34.950 -18.230 -21.680  0.00  0.00    +0.002 C 
ATOM     21  C   UNL     1      34.956 -16.442 -23.822  0.00  0.00    -0.044 C 
ATOM     22  C   UNL     1      34.468 -18.632 -22.925  0.00  0.00    -0.000 C 
ATOM     23  C   UNL     1      35.435 -16.933 -21.506  0.00  0.00    -0.000 C 
ATOM     24  C   UNL     1      34.470 -17.738 -23.996  0.00  0.00    -0.006 C 
ATOM     25  C   UNL     1      35.439 -16.040 -22.576  0.00  0.00    -0.006 C 
BRANCH  21  26
ATOM     26  C   UNL     1      34.958 -15.487 -24.967  0.00  0.00    -0.054 C 
BRANCH  26  27
ATOM     27  N   UNL     1      33.658 -14.840 -25.156  0.00  0.00    +0.390 N 
ATOM     28  H   UNL     1      32.926 -15.550 -25.146  0.00  0.00    -0.083 HD
ATOM     29  H   UNL     1      33.663 -14.350 -26.050  0.00  0.00    -0.083 HD
BRANCH  27  30
ATOM     30  C   UNL     1      33.404 -13.877 -24.096  0.00  0.00    -0.031 C 
BRANCH  30  34
ATOM     31  N   UNL     1      33.743 -12.116 -25.803  0.00  0.00    -0.170 NA
ATOM     32  N   UNL     1      34.115 -10.830 -25.713  0.00  0.00    -0.157 N 
ATOM     33  N   UNL     1      34.373 -10.320 -24.497  0.00  0.00    -0.162 NA
ATOM     34  C   UNL     1      33.761 -12.475 -24.515  0.00  0.00    +0.077 C 
ATOM     35  C   UNL     1      34.145 -11.385 -23.723  0.00  0.00    +0.133 C 
ATOM     36  H   UNL     1      34.198 -10.272 -26.520  0.00  0.00    +0.197 HD
ENDBRANCH  30  34
ENDBRANCH  27  30
ENDBRANCH  26  27
ENDBRANCH  21  26
ENDBRANCH   5  20
TORSDOF 8
ENDMDL
MODEL 5
REMARK VINA RESULT:     -11.8      4.295     11.562
REMARK  Name = 11224409
REMARK  8 active torsions:
REMARK  status: ('A' for Active; 'I' for Inactive)
REMARK    1  A    between atoms: C_2  and  N_10
REMARK    2  A    between atoms: C_5  and  C_20
REMARK    3  A    between atoms: C_11  and  C_14
REMARK    4  A    between atoms: C_14  and  N_16
REMARK    5  A    between atoms: C_21  and  C_26
REMARK    6  A    between atoms: C_26  and  N_27
REMARK    7  A    between atoms: N_27  and  C_30
REMARK    8  A    between atoms: C_30  and  C_34
REMARK                            x       y       z     vdW  Elec       q    Type
REMARK                         _______ _______ _______ _____ _____    ______ ____
ROOT
ATOM      1  F   UNL     1      37.256 -19.709 -19.280  0.00  0.00    -0.204 F 
ATOM      2  C   UNL     1      34.918 -18.339 -21.702  0.00  0.00    +0.059 C 
ATOM      3  C   UNL     1      36.107 -18.605 -21.022  0.00  0.00    +0.045 C 
ATOM      4  C   UNL     1      33.727 -18.933 -21.283  0.00  0.00    +0.015 C 
ATOM      5  C   UNL     1      34.914 -20.057 -19.504  0.00  0.00    +0.028 C 
ATOM      6  C   UNL     1      36.105 -19.464 -19.923  0.00  0.00    +0.141 C 
ATOM      7  C   UNL     1      33.725 -19.792 -20.184  0.00  0.00    +0.004 C 
ENDROOT
BRANCH   2  10
ATOM      8  O   UNL     1      34.717 -16.639 -24.916  0.00  0.00    -0.434 OA
ATOM      9  O   UNL     1      34.215 -18.831 -24.621  0.00  0.00    -0.226 OA
ATOM     10  N   UNL     1      34.921 -17.463 -22.824  0.00  0.00    -0.221 N 
ATOM     11  C   UNL     1      34.943 -15.508 -24.064  0.00  0.00    +0.210 C 
ATOM     12  C   UNL     1      35.409 -16.111 -22.756  0.00  0.00    +0.147 C 
ATOM     13  C   UNL     1      34.572 -17.766 -24.138  0.00  0.00    +0.409 C 
BRANCH  11  14
ATOM     14  C   UNL     1      33.645 -14.723 -23.934  0.00  0.00    +0.135 C 
BRANCH  14  16
ATOM     15  O   UNL     1      34.326 -12.679 -21.987  0.00  0.00    -0.275 OA
ATOM     16  N   UNL     1      33.858 -13.326 -24.176  0.00  0.00    -0.301 N 
ATOM     17  C   UNL     1      34.182 -12.413 -23.178  0.00  0.00    +0.223 C 
ATOM     18  C   UNL     1      34.374 -11.018 -23.710  0.00  0.00    +0.095 C 
ATOM     19  H   UNL     1      33.768 -12.995 -25.099  0.00  0.00    +0.150 HD
ENDBRANCH  14  16
ENDBRANCH  11  14
ENDBRANCH   2  10
BRANCH   5  20
ATOM     20  C   UNL     1      34.907 -20.948 -18.364  0.00  0.00    +0.002 C 
ATOM     21  C   UNL     1      34.894 -22.668 -16.168  0.00  0.00    -0.044 C 
ATOM     22  C   UNL     1      33.749 -21.654 -18.038  0.00  0.00    -0.000 C 
ATOM     23  C   UNL     1      36.058 -21.102 -17.591  0.00  0.00    -0.000 C 
ATOM     24  C   UNL     1      33.743 -22.515 -16.940  0.00  0.00    -0.006 C 
ATOM     25  C   UNL     1      36.052 -21.961 -16.493  0.00  0.00    -0.006 C 
BRANCH  21  26
ATOM     26  C   UNL     1      34.886 -23.588 -14.994  0.00  0.00    -0.054 C 
BRANCH  26  27
ATOM     27  N   UNL     1      36.203 -23.700 -14.364  0.00  0.00    +0.390 N 
ATOM     28  H   UNL     1      36.114 -23.508 -13.366  0.00  0.00    -0.083 HD
ATOM     29  H   UNL     1      36.833 -23.027 -14.799  0.00  0.00    -0.083 HD
BRANCH  27  30
ATOM     30  C   UNL     1      36.748 -25.036 -14.547  0.00  0.00    -0.031 C 
BRANCH  30  34
ATOM     31  N   UNL     1      38.802 -26.244 -13.877  0.00  0.00    -0.170 NA
ATOM     32  N   UNL     1      40.066 -25.838 -13.680  0.00  0.00    -0.157 N 
ATOM     33  N   UNL     1      40.358 -24.539 -13.858  0.00  0.00    -0.162 NA
ATOM     34  C   UNL     1      38.217 -25.092 -14.219  0.00  0.00    +0.077 C 
ATOM     35  C   UNL     1      39.162 -24.057 -14.207  0.00  0.00    +0.133 C 
ATOM     36  H   UNL     1      40.764 -26.478 -13.409  0.00  0.00    +0.197 HD
ENDBRANCH  30  34
ENDBRANCH  27  30
ENDBRANCH  26  27
ENDBRANCH  21  26
ENDBRANCH   5  20
TORSDOF 8
ENDMDL
MODEL 6
REMARK VINA RESULT:     -11.8      4.568     11.503
REMARK  Name = 11224409
REMARK  8 active torsions:
REMARK  status: ('A' for Active; 'I' for Inactive)
REMARK    1  A    between atoms: C_2  and  N_10
REMARK    2  A    between atoms: C_5  and  C_20
REMARK    3  A    between atoms: C_11  and  C_14
REMARK    4  A    between atoms: C_14  and  N_16
REMARK    5  A    between atoms: C_21  and  C_26
REMARK    6  A    between atoms: C_26  and  N_27
REMARK    7  A    between atoms: N_27  and  C_30
REMARK    8  A    between atoms: C_30  and  C_34
REMARK                            x       y       z     vdW  Elec       q    Type
REMARK                         _______ _______ _______ _____ _____    ______ ____
ROOT
ATOM      1  F   UNL     1      37.222 -19.850 -19.477  0.00  0.00    -0.204 F 
ATOM      2  C   UNL     1      34.862 -18.432 -21.850  0.00  0.00    +0.059 C 
ATOM      3  C   UNL     1      36.063 -18.740 -21.208  0.00  0.00    +0.045 C 
ATOM      4  C   UNL     1      33.661 -18.948 -21.366  0.00  0.00    +0.015 C 
ATOM      5  C   UNL     1      34.858 -20.079 -19.599  0.00  0.00    +0.028 C 
ATOM      6  C   UNL     1      36.060 -19.563 -20.083  0.00  0.00    +0.141 C 
ATOM      7  C   UNL     1      33.658 -19.773 -20.241  0.00  0.00    +0.004 C 
ENDROOT
BRANCH   2  10
ATOM      8  O   UNL     1      34.517 -16.779 -25.076  0.00  0.00    -0.434 OA
ATOM      9  O   UNL     1      33.667 -18.832 -24.619  0.00  0.00    -0.226 OA
ATOM     10  N   UNL     1      34.865 -17.591 -22.999  0.00  0.00    -0.221 N 
ATOM     11  C   UNL     1      35.069 -15.697 -24.315  0.00  0.00    +0.210 C 
ATOM     12  C   UNL     1      35.599 -16.355 -23.059  0.00  0.00    +0.147 C 
ATOM     13  C   UNL     1      34.281 -17.845 -24.238  0.00  0.00    +0.409 C 
BRANCH  11  14
ATOM     14  C   UNL     1      33.971 -14.679 -24.041  0.00  0.00    +0.135 C 
BRANCH  14  16
ATOM     15  O   UNL     1      34.497 -12.060 -22.902  0.00  0.00    -0.275 OA
ATOM     16  N   UNL     1      33.941 -14.309 -22.657  0.00  0.00    -0.301 N 
ATOM     17  C   UNL     1      34.208 -13.023 -22.197  0.00  0.00    +0.223 C 
ATOM     18  C   UNL     1      34.082 -12.905 -20.702  0.00  0.00    +0.095 C 
ATOM     19  H   UNL     1      33.720 -15.004 -21.994  0.00  0.00    +0.150 HD
ENDBRANCH  14  16
ENDBRANCH  11  14
ENDBRANCH   2  10
BRANCH   5  20
ATOM     20  C   UNL     1      34.851 -20.934 -18.431  0.00  0.00    +0.002 C 
ATOM     21  C   UNL     1      34.838 -22.583 -16.182  0.00  0.00    -0.044 C 
ATOM     22  C   UNL     1      33.688 -21.615 -18.073  0.00  0.00    -0.000 C 
ATOM     23  C   UNL     1      36.008 -21.078 -17.665  0.00  0.00    -0.000 C 
ATOM     24  C   UNL     1      33.681 -22.440 -16.948  0.00  0.00    -0.006 C 
ATOM     25  C   UNL     1      36.001 -21.902 -16.540  0.00  0.00    -0.006 C 
BRANCH  21  26
ATOM     26  C   UNL     1      34.830 -23.466 -14.980  0.00  0.00    -0.054 C 
BRANCH  26  27
ATOM     27  N   UNL     1      34.801 -22.706 -13.729  0.00  0.00    +0.390 N 
ATOM     28  H   UNL     1      33.980 -22.100 -13.724  0.00  0.00    -0.083 HD
ATOM     29  H   UNL     1      35.652 -22.148 -13.664  0.00  0.00    -0.083 HD
BRANCH  27  30
ATOM     30  C   UNL     1      34.740 -23.601 -12.585  0.00  0.00    -0.031 C 
BRANCH  30  34
ATOM     31  N   UNL     1      35.688 -23.703 -10.301  0.00  0.00    -0.170 NA
ATOM     32  N   UNL     1      36.812 -23.203  -9.765  0.00  0.00    -0.157 N 
ATOM     33  N   UNL     1      37.639 -22.496 -10.554  0.00  0.00    -0.162 NA
ATOM     34  C   UNL     1      35.798 -23.279 -11.563  0.00  0.00    +0.077 C 
ATOM     35  C   UNL     1      36.983 -22.546 -11.717  0.00  0.00    +0.133 C 
ATOM     36  H   UNL     1      37.026 -23.350  -8.816  0.00  0.00    +0.197 HD
ENDBRANCH  30  34
ENDBRANCH  27  30
ENDBRANCH  26  27
ENDBRANCH  21  26
ENDBRANCH   5  20
TORSDOF 8
ENDMDL
MODEL 7
REMARK VINA RESULT:     -11.8      1.971      2.589
REMARK  Name = 11224409
REMARK  8 active torsions:
REMARK  status: ('A' for Active; 'I' for Inactive)
REMARK    1  A    between atoms: C_2  and  N_10
REMARK    2  A    between atoms: C_5  and  C_20
REMARK    3  A    between atoms: C_11  and  C_14
REMARK    4  A    between atoms: C_14  and  N_16
REMARK    5  A    between atoms: C_21  and  C_26
REMARK    6  A    between atoms: C_26  and  N_27
REMARK    7  A    between atoms: N_27  and  C_30
REMARK    8  A    between atoms: C_30  and  C_34
REMARK                            x       y       z     vdW  Elec       q    Type
REMARK                         _______ _______ _______ _____ _____    ______ ____
ROOT
ATOM      1  F   UNL     1      32.968 -20.250 -19.446  0.00  0.00    -0.204 F 
ATOM      2  C   UNL     1      35.349 -21.676 -17.099  0.00  0.00    +0.059 C 
ATOM      3  C   UNL     1      34.144 -21.369 -17.732  0.00  0.00    +0.045 C 
ATOM      4  C   UNL     1      36.545 -21.148 -17.586  0.00  0.00    +0.015 C 
ATOM      5  C   UNL     1      35.331 -20.007 -19.336  0.00  0.00    +0.028 C 
ATOM      6  C   UNL     1      34.135 -20.535 -18.849  0.00  0.00    +0.141 C 
ATOM      7  C   UNL     1      36.537 -20.314 -18.705  0.00  0.00    +0.004 C 
ENDROOT
BRANCH   2  10
ATOM      8  O   UNL     1      34.724 -23.960 -14.334  0.00  0.00    -0.434 OA
ATOM      9  O   UNL     1      33.147 -23.361 -15.850  0.00  0.00    -0.226 OA
ATOM     10  N   UNL     1      35.358 -22.527 -15.958  0.00  0.00    -0.221 N 
ATOM     11  C   UNL     1      36.148 -23.842 -14.225  0.00  0.00    +0.210 C 
ATOM     12  C   UNL     1      36.491 -22.640 -15.079  0.00  0.00    +0.147 C 
ATOM     13  C   UNL     1      34.300 -23.278 -15.453  0.00  0.00    +0.409 C 
BRANCH  11  14
ATOM     14  C   UNL     1      36.788 -25.131 -14.719  0.00  0.00    +0.135 C 
BRANCH  14  16
ATOM     15  O   UNL     1      38.627 -25.924 -12.617  0.00  0.00    -0.275 OA
ATOM     16  N   UNL     1      38.218 -25.030 -14.729  0.00  0.00    -0.301 N 
ATOM     17  C   UNL     1      39.025 -25.437 -13.672  0.00  0.00    +0.223 C 
ATOM     18  C   UNL     1      40.491 -25.242 -13.954  0.00  0.00    +0.095 C 
ATOM     19  H   UNL     1      38.652 -24.651 -15.528  0.00  0.00    +0.150 HD
ENDBRANCH  14  16
ENDBRANCH  11  14
ENDBRANCH   2  10
BRANCH   5  20
ATOM     20  C   UNL     1      35.326 -19.141 -20.495  0.00  0.00    +0.002 C 
ATOM     21  C   UNL     1      35.316 -17.471 -22.729  0.00  0.00    -0.044 C 
ATOM     22  C   UNL     1      34.443 -19.387 -21.546  0.00  0.00    -0.000 C 
ATOM     23  C   UNL     1      36.205 -18.059 -20.561  0.00  0.00    -0.000 C 
ATOM     24  C   UNL     1      34.437 -18.551 -22.662  0.00  0.00    -0.006 C 
ATOM     25  C   UNL     1      36.200 -17.224 -21.678  0.00  0.00    -0.006 C 
BRANCH  21  26
ATOM     26  C   UNL     1      35.309 -16.577 -23.923  0.00  0.00    -0.054 C 
BRANCH  26  27
ATOM     27  N   UNL     1      35.467 -15.166 -23.565  0.00  0.00    +0.390 N 
ATOM     28  H   UNL     1      36.153 -14.738 -24.187  0.00  0.00    -0.083 HD
ATOM     29  H   UNL     1      35.781 -15.106 -22.597  0.00  0.00    -0.083 HD
BRANCH  27  30
ATOM     30  C   UNL     1      34.202 -14.460 -23.691  0.00  0.00    -0.031 C 
BRANCH  30  34
ATOM     31  N   UNL     1      34.353 -14.100 -21.247  0.00  0.00    -0.170 NA
ATOM     32  N   UNL     1      33.774 -13.209 -20.427  0.00  0.00    -0.157 N 
ATOM     33  N   UNL     1      32.935 -12.302 -20.955  0.00  0.00    -0.162 NA
ATOM     34  C   UNL     1      33.838 -13.732 -22.424  0.00  0.00    +0.077 C 
ATOM     35  C   UNL     1      32.976 -12.641 -22.246  0.00  0.00    +0.133 C 
ATOM     36  H   UNL     1      33.959 -13.220 -19.460  0.00  0.00    +0.197 HD
ENDBRANCH  30  34
ENDBRANCH  27  30
ENDBRANCH  26  27
ENDBRANCH  21  26
ENDBRANCH   5  20
TORSDOF 8
ENDMDL
MODEL 8
REMARK VINA RESULT:     -11.6      1.566      2.135
REMARK  Name = 11224409
REMARK  8 active torsions:
REMARK  status: ('A' for Active; 'I' for Inactive)
REMARK    1  A    between atoms: C_2  and  N_10
REMARK    2  A    between atoms: C_5  and  C_20
REMARK    3  A    between atoms: C_11  and  C_14
REMARK    4  A    between atoms: C_14  and  N_16
REMARK    5  A    between atoms: C_21  and  C_26
REMARK    6  A    between atoms: C_26  and  N_27
REMARK    7  A    between atoms: N_27  and  C_30
REMARK    8  A    between atoms: C_30  and  C_34
REMARK                            x       y       z     vdW  Elec       q    Type
REMARK                         _______ _______ _______ _____ _____    ______ ____
ROOT
ATOM      1  F   UNL     1      37.592 -20.480 -17.280  0.00  0.00    -0.204 F 
ATOM      2  C   UNL     1      35.854 -22.915 -15.217  0.00  0.00    +0.059 C 
ATOM      3  C   UNL     1      36.847 -22.055 -15.688  0.00  0.00    +0.045 C 
ATOM      4  C   UNL     1      34.642 -23.020 -15.901  0.00  0.00    +0.015 C 
ATOM      5  C   UNL     1      35.417 -21.407 -17.523  0.00  0.00    +0.028 C 
ATOM      6  C   UNL     1      36.628 -21.302 -16.841  0.00  0.00    +0.141 C 
ATOM      7  C   UNL     1      34.423 -22.266 -17.053  0.00  0.00    +0.004 C 
ENDROOT
BRANCH   2  10
ATOM      8  O   UNL     1      36.420 -25.412 -12.628  0.00  0.00    -0.434 OA
ATOM      9  O   UNL     1      36.178 -25.915 -14.827  0.00  0.00    -0.226 OA
ATOM     10  N   UNL     1      36.077 -23.685 -14.041  0.00  0.00    -0.221 N 
ATOM     11  C   UNL     1      36.635 -24.221 -11.859  0.00  0.00    +0.210 C 
ATOM     12  C   UNL     1      36.073 -23.111 -12.722  0.00  0.00    +0.147 C 
ATOM     13  C   UNL     1      36.226 -25.067 -13.947  0.00  0.00    +0.409 C 
BRANCH  11  14
ATOM     14  C   UNL     1      38.125 -24.074 -11.587  0.00  0.00    +0.135 C 
BRANCH  14  16
ATOM     15  O   UNL     1      39.626 -25.992 -13.168  0.00  0.00    -0.275 OA
ATOM     16  N   UNL     1      38.851 -23.827 -12.799  0.00  0.00    -0.301 N 
ATOM     17  C   UNL     1      39.546 -24.811 -13.494  0.00  0.00    +0.223 C 
ATOM     18  C   UNL     1      40.198 -24.286 -14.745  0.00  0.00    +0.095 C 
ATOM     19  H   UNL     1      38.858 -22.909 -13.158  0.00  0.00    +0.150 HD
ENDBRANCH  14  16
ENDBRANCH  11  14
ENDBRANCH   2  10
BRANCH   5  20
ATOM     20  C   UNL     1      35.185 -20.627 -18.720  0.00  0.00    +0.002 C 
ATOM     21  C   UNL     1      34.740 -19.126 -21.028  0.00  0.00    -0.044 C 
ATOM     22  C   UNL     1      36.263 -20.072 -19.409  0.00  0.00    -0.000 C 
ATOM     23  C   UNL     1      33.885 -20.432 -19.186  0.00  0.00    -0.000 C 
ATOM     24  C   UNL     1      36.040 -19.321 -20.564  0.00  0.00    -0.006 C 
ATOM     25  C   UNL     1      33.662 -19.681 -20.339  0.00  0.00    -0.006 C 
BRANCH  21  26
ATOM     26  C   UNL     1      34.502 -18.324 -22.263  0.00  0.00    -0.054 C 
BRANCH  26  27
ATOM     27  N   UNL     1      35.631 -17.449 -22.587  0.00  0.00    +0.390 N 
ATOM     28  H   UNL     1      36.285 -17.954 -23.185  0.00  0.00    -0.083 HD
ATOM     29  H   UNL     1      36.089 -17.170 -21.719  0.00  0.00    -0.083 HD
BRANCH  27  30
ATOM     30  C   UNL     1      35.174 -16.255 -23.279  0.00  0.00    -0.031 C 
BRANCH  30  34
ATOM     31  N   UNL     1      34.782 -13.859 -22.799  0.00  0.00    -0.170 NA
ATOM     32  N   UNL     1      34.681 -13.172 -21.651  0.00  0.00    -0.157 N 
ATOM     33  N   UNL     1      34.806 -13.838 -20.491  0.00  0.00    -0.162 NA
ATOM     34  C   UNL     1      34.992 -15.095 -22.336  0.00  0.00    +0.077 C 
ATOM     35  C   UNL     1      35.007 -15.082 -20.935  0.00  0.00    +0.133 C 
ATOM     36  H   UNL     1      34.520 -12.200 -21.658  0.00  0.00    +0.197 HD
ENDBRANCH  30  34
ENDBRANCH  27  30
ENDBRANCH  26  27
ENDBRANCH  21  26
ENDBRANCH   5  20
TORSDOF 8
ENDMDL
MODEL 9
REMARK VINA RESULT:     -11.3      4.699     11.380
REMARK  Name = 11224409
REMARK  8 active torsions:
REMARK  status: ('A' for Active; 'I' for Inactive)
REMARK    1  A    between atoms: C_2  and  N_10
REMARK    2  A    between atoms: C_5  and  C_20
REMARK    3  A    between atoms: C_11  and  C_14
REMARK    4  A    between atoms: C_14  and  N_16
REMARK    5  A    between atoms: C_21  and  C_26
REMARK    6  A    between atoms: C_26  and  N_27
REMARK    7  A    between atoms: N_27  and  C_30
REMARK    8  A    between atoms: C_30  and  C_34
REMARK                            x       y       z     vdW  Elec       q    Type
REMARK                         _______ _______ _______ _____ _____    ______ ____
ROOT
ATOM      1  F   UNL     1      33.001 -20.230 -19.780  0.00  0.00    -0.204 F 
ATOM      2  C   UNL     1      35.089 -18.166 -21.923  0.00  0.00    +0.059 C 
ATOM      3  C   UNL     1      33.966 -18.808 -21.399  0.00  0.00    +0.045 C 
ATOM      4  C   UNL     1      36.335 -18.337 -21.318  0.00  0.00    +0.015 C 
ATOM      5  C   UNL     1      35.335 -19.791 -19.668  0.00  0.00    +0.028 C 
ATOM      6  C   UNL     1      34.090 -19.620 -20.272  0.00  0.00    +0.141 C 
ATOM      7  C   UNL     1      36.458 -19.149 -20.191  0.00  0.00    +0.004 C 
ENDROOT
BRANCH   2  10
ATOM      8  O   UNL     1      34.517 -16.600 -25.159  0.00  0.00    -0.434 OA
ATOM      9  O   UNL     1      34.042 -18.773 -24.714  0.00  0.00    -0.226 OA
ATOM     10  N   UNL     1      34.963 -17.337 -23.073  0.00  0.00    -0.221 N 
ATOM     11  C   UNL     1      34.849 -15.437 -24.389  0.00  0.00    +0.210 C 
ATOM     12  C   UNL     1      35.463 -15.989 -23.121  0.00  0.00    +0.147 C 
ATOM     13  C   UNL     1      34.460 -17.692 -24.323  0.00  0.00    +0.409 C 
BRANCH  11  14
ATOM     14  C   UNL     1      33.580 -14.633 -24.141  0.00  0.00    +0.135 C 
BRANCH  14  16
ATOM     15  O   UNL     1      34.229 -12.612 -22.160  0.00  0.00    -0.275 OA
ATOM     16  N   UNL     1      33.799 -13.235 -24.363  0.00  0.00    -0.301 N 
ATOM     17  C   UNL     1      34.108 -12.333 -23.350  0.00  0.00    +0.223 C 
ATOM     18  C   UNL     1      34.312 -10.933 -23.863  0.00  0.00    +0.095 C 
ATOM     19  H   UNL     1      33.727 -12.893 -25.284  0.00  0.00    +0.150 HD
ENDBRANCH  14  16
ENDBRANCH  11  14
ENDBRANCH   2  10
BRANCH   5  20
ATOM     20  C   UNL     1      35.468 -20.633 -18.499  0.00  0.00    +0.002 C 
ATOM     21  C   UNL     1      35.723 -22.255 -16.243  0.00  0.00    -0.044 C 
ATOM     22  C   UNL     1      36.668 -20.658 -17.790  0.00  0.00    -0.000 C 
ATOM     23  C   UNL     1      34.394 -21.419 -18.079  0.00  0.00    -0.000 C 
ATOM     24  C   UNL     1      36.796 -21.469 -16.662  0.00  0.00    -0.006 C 
ATOM     25  C   UNL     1      34.521 -22.230 -16.952  0.00  0.00    -0.006 C 
BRANCH  21  26
ATOM     26  C   UNL     1      35.859 -23.121 -15.037  0.00  0.00    -0.054 C 
BRANCH  26  27
ATOM     27  N   UNL     1      34.682 -23.963 -14.818  0.00  0.00    +0.390 N 
ATOM     28  H   UNL     1      34.967 -24.942 -14.814  0.00  0.00    -0.083 HD
ATOM     29  H   UNL     1      34.013 -23.793 -15.568  0.00  0.00    -0.083 HD
BRANCH  27  30
ATOM     30  C   UNL     1      34.051 -23.644 -13.547  0.00  0.00    -0.031 C 
BRANCH  30  34
ATOM     31  N   UNL     1      31.907 -24.398 -12.568  0.00  0.00    -0.170 NA
ATOM     32  N   UNL     1      30.647 -24.383 -13.030  0.00  0.00    -0.157 N 
ATOM     33  N   UNL     1      30.418 -23.880 -14.254  0.00  0.00    -0.162 NA
ATOM     34  C   UNL     1      32.559 -23.847 -13.596  0.00  0.00    +0.077 C 
ATOM     35  C   UNL     1      31.655 -23.533 -14.620  0.00  0.00    +0.133 C 
ATOM     36  H   UNL     1      29.906 -24.735 -12.484  0.00  0.00    +0.197 HD
ENDBRANCH  30  34
ENDBRANCH  27  30
ENDBRANCH  26  27
ENDBRANCH  21  26
ENDBRANCH   5  20
TORSDOF 8
ENDMDL
