MODEL 1
REMARK VINA RESULT:     -11.6      0.000      0.000
REMARK  Name = 56640146
REMARK  6 active torsions:
REMARK  status: ('A' for Active; 'I' for Inactive)
REMARK    1  A    between atoms: C_1  and  C_32
REMARK    2  A    between atoms: C_2  and  O_36
REMARK    3  A    between atoms: C_3  and  C_7
REMARK    4  A    between atoms: C_5  and  N_25
REMARK    5  A    between atoms: C_15  and  N_17
REMARK    6  A    between atoms: N_17  and  S_19
REMARK                            x       y       z     vdW  Elec       q    Type
REMARK                         _______ _______ _______ _____ _____    ______ ____
ROOT
ATOM      1  C   UNL     1      35.660 -23.194 -14.989  0.00  0.00    +0.012 C 
ATOM      2  C   UNL     1      35.751 -22.383 -16.120  0.00  0.00    +0.135 C 
ATOM      3  C   UNL     1      34.597 -22.028 -16.819  0.00  0.00    +0.035 C 
ATOM      4  C   UNL     1      34.416 -23.652 -14.557  0.00  0.00    +0.014 C 
ATOM      5  C   UNL     1      33.262 -23.299 -15.256  0.00  0.00    +0.059 C 
ATOM      6  C   UNL     1      33.352 -22.487 -16.387  0.00  0.00    +0.018 C 
ENDROOT
BRANCH   3   7
ATOM      7  C   UNL     1      34.668 -21.187 -17.994  0.00  0.00    +0.003 C 
ATOM      8  C   UNL     1      35.879 -20.602 -18.361  0.00  0.00    +0.000 C 
ATOM      9  C   UNL     1      35.963 -19.782 -19.499  0.00  0.00    +0.000 C 
ATOM     10  C   UNL     1      33.525 -20.962 -18.757  0.00  0.00    +0.000 C 
ATOM     11  C   UNL     1      34.802 -19.554 -20.274  0.00  0.00    +0.001 C 
ATOM     12  C   UNL     1      33.590 -20.151 -19.890  0.00  0.00    +0.000 C 
ATOM     13  C   UNL     1      37.175 -19.186 -19.884  0.00  0.00    +0.001 C 
ATOM     14  C   UNL     1      34.887 -18.734 -21.413  0.00  0.00    +0.016 C 
ATOM     15  C   UNL     1      36.099 -18.149 -21.779  0.00  0.00    +0.064 C 
ATOM     16  C   UNL     1      37.241 -18.374 -21.017  0.00  0.00    +0.016 C 
BRANCH  15  17
ATOM     17  N   UNL     1      36.167 -17.318 -22.938  0.00  0.00    -0.219 N 
ATOM     18  H   UNL     1      36.724 -17.571 -23.710  0.00  0.00    +0.173 HD
BRANCH  17  19
ATOM     19  S   UNL     1      35.249 -15.860 -22.949  0.00  0.00    +0.056 S 
ATOM     20  O   UNL     1      34.546 -15.751 -21.685  0.00  0.00    -0.154 OA
ATOM     21  O   UNL     1      36.039 -14.754 -23.450  0.00  0.00    -0.154 OA
ATOM     22  C   UNL     1      34.033 -16.265 -24.182  0.00  0.00    +0.200 C 
ENDBRANCH  17  19
ENDBRANCH  15  17
ENDBRANCH   3   7
BRANCH   5  25
ATOM     23  O   UNL     1      32.663 -24.200 -12.585  0.00  0.00    -0.251 OA
ATOM     24  O   UNL     1      28.297 -25.115 -13.650  0.00  0.00    -0.270 OA
ATOM     25  N   UNL     1      31.968 -23.775 -14.807  0.00  0.00    -0.220 N 
ATOM     26  N   UNL     1      30.522 -24.708 -13.165  0.00  0.00    -0.235 N 
ATOM     27  C   UNL     1      31.805 -24.233 -13.472  0.00  0.00    +0.318 C 
ATOM     28  C   UNL     1      30.873 -23.768 -15.667  0.00  0.00    +0.078 C 
ATOM     29  C   UNL     1      29.653 -24.193 -15.338  0.00  0.00    +0.075 C 
ATOM     30  C   UNL     1      29.409 -24.716 -13.985  0.00  0.00    +0.254 C 
ATOM     31  H   UNL     1      30.398 -25.078 -12.261  0.00  0.00    +0.159 HD
ENDBRANCH   5  25
BRANCH   1  32
ATOM     32  C   UNL     1      36.884 -23.583 -14.227  0.00  0.00    +0.022 C 
ATOM     33  C   UNL     1      36.844 -25.090 -13.828  0.00  0.00    +0.004 C 
ATOM     34  C   UNL     1      38.237 -23.388 -14.987  0.00  0.00    +0.004 C 
ATOM     35  C   UNL     1      37.020 -22.751 -12.914  0.00  0.00    +0.004 C 
ENDBRANCH   1  32
BRANCH   2  36
ATOM     36  O   UNL     1      36.974 -21.939 -16.534  0.00  0.00    -0.472 OA
ATOM     37  C   UNL     1      37.444 -20.721 -15.963  0.00  0.00    +0.252 C 
ENDBRANCH   2  36
TORSDOF 6
ENDMDL
MODEL 2
REMARK VINA RESULT:     -11.5      2.267      4.724
REMARK  Name = 56640146
REMARK  6 active torsions:
REMARK  status: ('A' for Active; 'I' for Inactive)
REMARK    1  A    between atoms: C_1  and  C_32
REMARK    2  A    between atoms: C_2  and  O_36
REMARK    3  A    between atoms: C_3  and  C_7
REMARK    4  A    between atoms: C_5  and  N_25
REMARK    5  A    between atoms: C_15  and  N_17
REMARK    6  A    between atoms: N_17  and  S_19
REMARK                            x       y       z     vdW  Elec       q    Type
REMARK                         _______ _______ _______ _____ _____    ______ ____
ROOT
ATOM      1  C   UNL     1      33.309 -23.304 -14.572  0.00  0.00    +0.012 C 
ATOM      2  C   UNL     1      33.247 -22.506 -15.714  0.00  0.00    +0.135 C 
ATOM      3  C   UNL     1      34.391 -22.301 -16.486  0.00  0.00    +0.035 C 
ATOM      4  C   UNL     1      34.516 -23.895 -14.198  0.00  0.00    +0.014 C 
ATOM      5  C   UNL     1      35.661 -23.689 -14.968  0.00  0.00    +0.059 C 
ATOM      6  C   UNL     1      35.598 -22.892 -16.112  0.00  0.00    +0.018 C 
ENDROOT
BRANCH   3   7
ATOM      7  C   UNL     1      34.349 -21.479 -17.675  0.00  0.00    +0.003 C 
ATOM      8  C   UNL     1      35.512 -20.873 -18.146  0.00  0.00    +0.000 C 
ATOM      9  C   UNL     1      35.486 -20.071 -19.299  0.00  0.00    +0.000 C 
ATOM     10  C   UNL     1      33.144 -21.294 -18.348  0.00  0.00    +0.000 C 
ATOM     11  C   UNL     1      34.262 -19.882 -19.983  0.00  0.00    +0.001 C 
ATOM     12  C   UNL     1      33.100 -20.501 -19.495  0.00  0.00    +0.000 C 
ATOM     13  C   UNL     1      36.649 -19.453 -19.788  0.00  0.00    +0.001 C 
ATOM     14  C   UNL     1      34.237 -19.080 -21.137  0.00  0.00    +0.016 C 
ATOM     15  C   UNL     1      35.401 -18.474 -21.608  0.00  0.00    +0.064 C 
ATOM     16  C   UNL     1      36.606 -18.660 -20.935  0.00  0.00    +0.016 C 
BRANCH  15  17
ATOM     17  N   UNL     1      35.358 -17.661 -22.781  0.00  0.00    -0.219 N 
ATOM     18  H   UNL     1      35.412 -18.064 -23.677  0.00  0.00    +0.173 HD
BRANCH  17  19
ATOM     19  S   UNL     1      35.208 -15.956 -22.584  0.00  0.00    +0.056 S 
ATOM     20  O   UNL     1      34.528 -15.697 -21.329  0.00  0.00    -0.154 OA
ATOM     21  O   UNL     1      36.454 -15.286 -22.899  0.00  0.00    -0.154 OA
ATOM     22  C   UNL     1      34.049 -15.592 -23.883  0.00  0.00    +0.200 C 
ENDBRANCH  17  19
ENDBRANCH  15  17
ENDBRANCH   3   7
BRANCH   5  25
ATOM     23  O   UNL     1      36.330 -26.467 -15.343  0.00  0.00    -0.251 OA
ATOM     24  O   UNL     1      40.467 -25.940 -13.436  0.00  0.00    -0.270 OA
ATOM     25  N   UNL     1      36.915 -24.303 -14.581  0.00  0.00    -0.220 N 
ATOM     26  N   UNL     1      38.348 -26.185 -14.329  0.00  0.00    -0.235 N 
ATOM     27  C   UNL     1      37.114 -25.697 -14.780  0.00  0.00    +0.318 C 
ATOM     28  C   UNL     1      37.940 -23.538 -14.033  0.00  0.00    +0.078 C 
ATOM     29  C   UNL     1      39.120 -24.023 -13.645  0.00  0.00    +0.075 C 
ATOM     30  C   UNL     1      39.392 -25.461 -13.784  0.00  0.00    +0.254 C 
ATOM     31  H   UNL     1      38.489 -27.157 -14.409  0.00  0.00    +0.159 HD
ENDBRANCH   5  25
BRANCH   1  32
ATOM     32  C   UNL     1      32.095 -23.536 -13.734  0.00  0.00    +0.022 C 
ATOM     33  C   UNL     1      31.370 -22.195 -13.407  0.00  0.00    +0.004 C 
ATOM     34  C   UNL     1      31.004 -24.455 -14.375  0.00  0.00    +0.004 C 
ATOM     35  C   UNL     1      32.466 -24.213 -12.379  0.00  0.00    +0.004 C 
ENDBRANCH   1  32
BRANCH   2  36
ATOM     36  O   UNL     1      32.060 -21.933 -16.071  0.00  0.00    -0.472 OA
ATOM     37  C   UNL     1      31.074 -22.793 -16.637  0.00  0.00    +0.252 C 
ENDBRANCH   2  36
TORSDOF 6
ENDMDL
MODEL 3
REMARK VINA RESULT:     -11.3     10.350     14.522
REMARK  Name = 56640146
REMARK  6 active torsions:
REMARK  status: ('A' for Active; 'I' for Inactive)
REMARK    1  A    between atoms: C_1  and  C_32
REMARK    2  A    between atoms: C_2  and  O_36
REMARK    3  A    between atoms: C_3  and  C_7
REMARK    4  A    between atoms: C_5  and  N_25
REMARK    5  A    between atoms: C_15  and  N_17
REMARK    6  A    between atoms: N_17  and  S_19
REMARK                            x       y       z     vdW  Elec       q    Type
REMARK                         _______ _______ _______ _____ _____    ______ ____
ROOT
ATOM      1  C   UNL     1      32.354 -10.751 -20.830  0.00  0.00    +0.012 C 
ATOM      2  C   UNL     1      32.587  -9.546 -21.492  0.00  0.00    +0.135 C 
ATOM      3  C   UNL     1      33.222  -9.543 -22.734  0.00  0.00    +0.035 C 
ATOM      4  C   UNL     1      32.758 -11.954 -21.409  0.00  0.00    +0.014 C 
ATOM      5  C   UNL     1      33.394 -11.952 -22.651  0.00  0.00    +0.059 C 
ATOM      6  C   UNL     1      33.626 -10.746 -23.313  0.00  0.00    +0.018 C 
ENDROOT
BRANCH   3   7
ATOM      7  C   UNL     1      33.473  -8.304 -23.438  0.00  0.00    +0.003 C 
ATOM      8  C   UNL     1      32.446  -7.375 -23.603  0.00  0.00    +0.000 C 
ATOM      9  C   UNL     1      32.674  -6.168 -24.285  0.00  0.00    +0.000 C 
ATOM     10  C   UNL     1      34.740  -8.041 -23.952  0.00  0.00    +0.000 C 
ATOM     11  C   UNL     1      33.961  -5.901 -24.807  0.00  0.00    +0.001 C 
ATOM     12  C   UNL     1      34.984  -6.848 -24.631  0.00  0.00    +0.000 C 
ATOM     13  C   UNL     1      31.651  -5.221 -24.459  0.00  0.00    +0.001 C 
ATOM     14  C   UNL     1      34.189  -4.694 -25.488  0.00  0.00    +0.016 C 
ATOM     15  C   UNL     1      33.161  -3.765 -25.653  0.00  0.00    +0.064 C 
ATOM     16  C   UNL     1      31.895  -4.027 -25.139  0.00  0.00    +0.016 C 
BRANCH  15  17
ATOM     17  N   UNL     1      33.409  -2.544 -26.349  0.00  0.00    -0.219 N 
ATOM     18  H   UNL     1      33.358  -1.677 -25.885  0.00  0.00    +0.173 HD
BRANCH  17  19
ATOM     19  S   UNL     1      33.801  -2.627 -28.025  0.00  0.00    +0.056 S 
ATOM     20  O   UNL     1      34.957  -1.786 -28.269  0.00  0.00    -0.154 OA
ATOM     21  O   UNL     1      33.775  -3.998 -28.496  0.00  0.00    -0.154 OA
ATOM     22  C   UNL     1      32.395  -1.786 -28.718  0.00  0.00    +0.200 C 
ENDBRANCH  17  19
ENDBRANCH  15  17
ENDBRANCH   3   7
BRANCH   5  25
ATOM     23  O   UNL     1      35.211 -13.841 -21.453  0.00  0.00    -0.251 OA
ATOM     24  O   UNL     1      34.944 -16.684 -25.042  0.00  0.00    -0.270 OA
ATOM     25  N   UNL     1      33.813 -13.202 -23.253  0.00  0.00    -0.220 N 
ATOM     26  N   UNL     1      35.110 -15.196 -23.280  0.00  0.00    -0.235 N 
ATOM     27  C   UNL     1      34.749 -14.034 -22.581  0.00  0.00    +0.318 C 
ATOM     28  C   UNL     1      33.290 -13.608 -24.477  0.00  0.00    +0.078 C 
ATOM     29  C   UNL     1      33.625 -14.737 -25.103  0.00  0.00    +0.075 C 
ATOM     30  C   UNL     1      34.615 -15.637 -24.492  0.00  0.00    +0.254 C 
ATOM     31  H   UNL     1      35.796 -15.763 -22.858  0.00  0.00    +0.159 HD
ENDBRANCH   5  25
BRANCH   1  32
ATOM     32  C   UNL     1      31.675 -10.775 -19.500  0.00  0.00    +0.022 C 
ATOM     33  C   UNL     1      31.832 -12.165 -18.812  0.00  0.00    +0.004 C 
ATOM     34  C   UNL     1      32.200  -9.732 -18.460  0.00  0.00    +0.004 C 
ATOM     35  C   UNL     1      30.148 -10.489 -19.642  0.00  0.00    +0.004 C 
ENDBRANCH   1  32
BRANCH   2  36
ATOM     36  O   UNL     1      32.188  -8.374 -20.916  0.00  0.00    -0.472 OA
ATOM     37  C   UNL     1      33.215  -7.495 -20.465  0.00  0.00    +0.252 C 
ENDBRANCH   2  36
TORSDOF 6
ENDMDL
MODEL 4
REMARK VINA RESULT:     -10.7      1.377      2.048
REMARK  Name = 56640146
REMARK  6 active torsions:
REMARK  status: ('A' for Active; 'I' for Inactive)
REMARK    1  A    between atoms: C_1  and  C_32
REMARK    2  A    between atoms: C_2  and  O_36
REMARK    3  A    between atoms: C_3  and  C_7
REMARK    4  A    between atoms: C_5  and  N_25
REMARK    5  A    between atoms: C_15  and  N_17
REMARK    6  A    between atoms: N_17  and  S_19
REMARK                            x       y       z     vdW  Elec       q    Type
REMARK                         _______ _______ _______ _____ _____    ______ ____
ROOT
ATOM      1  C   UNL     1      35.922 -23.497 -14.425  0.00  0.00    +0.012 C 
ATOM      2  C   UNL     1      36.169 -22.706 -15.546  0.00  0.00    +0.135 C 
ATOM      3  C   UNL     1      35.110 -22.286 -16.352  0.00  0.00    +0.035 C 
ATOM      4  C   UNL     1      34.617 -23.872 -14.109  0.00  0.00    +0.014 C 
ATOM      5  C   UNL     1      33.557 -23.454 -14.915  0.00  0.00    +0.059 C 
ATOM      6  C   UNL     1      33.804 -22.661 -16.036  0.00  0.00    +0.018 C 
ENDROOT
BRANCH   3   7
ATOM      7  C   UNL     1      35.344 -21.464 -17.519  0.00  0.00    +0.003 C 
ATOM      8  C   UNL     1      34.267 -21.002 -18.273  0.00  0.00    +0.000 C 
ATOM      9  C   UNL     1      34.478 -20.203 -19.410  0.00  0.00    +0.000 C 
ATOM     10  C   UNL     1      36.646 -21.136 -17.887  0.00  0.00    +0.000 C 
ATOM     11  C   UNL     1      35.801 -19.869 -19.784  0.00  0.00    +0.001 C 
ATOM     12  C   UNL     1      36.874 -20.343 -19.012  0.00  0.00    +0.000 C 
ATOM     13  C   UNL     1      33.404 -19.728 -20.181  0.00  0.00    +0.001 C 
ATOM     14  C   UNL     1      36.012 -19.070 -20.920  0.00  0.00    +0.016 C 
ATOM     15  C   UNL     1      34.934 -18.608 -21.675  0.00  0.00    +0.064 C 
ATOM     16  C   UNL     1      33.633 -18.936 -21.307  0.00  0.00    +0.016 C 
BRANCH  15  17
ATOM     17  N   UNL     1      35.165 -17.798 -22.828  0.00  0.00    -0.219 N 
ATOM     18  H   UNL     1      35.780 -17.029 -22.791  0.00  0.00    +0.173 HD
BRANCH  17  19
ATOM     19  S   UNL     1      34.341 -18.201 -24.285  0.00  0.00    +0.056 S 
ATOM     20  O   UNL     1      35.090 -19.242 -24.963  0.00  0.00    -0.154 OA
ATOM     21  O   UNL     1      32.918 -18.350 -24.052  0.00  0.00    -0.154 OA
ATOM     22  C   UNL     1      34.588 -16.703 -25.211  0.00  0.00    +0.200 C 
ENDBRANCH  17  19
ENDBRANCH  15  17
ENDBRANCH   3   7
BRANCH   5  25
ATOM     23  O   UNL     1      32.668 -24.340 -12.320  0.00  0.00    -0.251 OA
ATOM     24  O   UNL     1      28.359 -24.933 -13.772  0.00  0.00    -0.270 OA
ATOM     25  N   UNL     1      32.199 -23.842 -14.586  0.00  0.00    -0.220 N 
ATOM     26  N   UNL     1      30.555 -24.689 -13.091  0.00  0.00    -0.235 N 
ATOM     27  C   UNL     1      31.890 -24.303 -13.278  0.00  0.00    +0.318 C 
ATOM     28  C   UNL     1      31.187 -23.748 -15.536  0.00  0.00    +0.078 C 
ATOM     29  C   UNL     1      29.916 -24.090 -15.320  0.00  0.00    +0.075 C 
ATOM     30  C   UNL     1      29.520 -24.610 -14.003  0.00  0.00    +0.254 C 
ATOM     31  H   UNL     1      30.328 -25.061 -12.207  0.00  0.00    +0.159 HD
ENDBRANCH   5  25
BRANCH   1  32
ATOM     32  C   UNL     1      37.043 -23.955 -13.550  0.00  0.00    +0.022 C 
ATOM     33  C   UNL     1      37.401 -22.877 -12.482  0.00  0.00    +0.004 C 
ATOM     34  C   UNL     1      36.770 -25.268 -12.744  0.00  0.00    +0.004 C 
ATOM     35  C   UNL     1      38.330 -24.239 -14.384  0.00  0.00    +0.004 C 
ENDBRANCH   1  32
BRANCH   2  36
ATOM     36  O   UNL     1      37.452 -22.345 -15.846  0.00  0.00    -0.472 OA
ATOM     37  C   UNL     1      37.890 -21.073 -15.372  0.00  0.00    +0.252 C 
ENDBRANCH   2  36
TORSDOF 6
ENDMDL
MODEL 5
REMARK VINA RESULT:     -10.1      9.570     14.212
REMARK  Name = 56640146
REMARK  6 active torsions:
REMARK  status: ('A' for Active; 'I' for Inactive)
REMARK    1  A    between atoms: C_1  and  C_32
REMARK    2  A    between atoms: C_2  and  O_36
REMARK    3  A    between atoms: C_3  and  C_7
REMARK    4  A    between atoms: C_5  and  N_25
REMARK    5  A    between atoms: C_15  and  N_17
REMARK    6  A    between atoms: N_17  and  S_19
REMARK                            x       y       z     vdW  Elec       q    Type
REMARK                         _______ _______ _______ _____ _____    ______ ____
ROOT
ATOM      1  C   UNL     1      32.652 -10.874 -21.085  0.00  0.00    +0.012 C 
ATOM      2  C   UNL     1      33.074  -9.781 -21.841  0.00  0.00    +0.135 C 
ATOM      3  C   UNL     1      33.840  -9.981 -22.990  0.00  0.00    +0.035 C 
ATOM      4  C   UNL     1      32.998 -12.168 -21.475  0.00  0.00    +0.014 C 
ATOM      5  C   UNL     1      33.764 -12.369 -22.623  0.00  0.00    +0.059 C 
ATOM      6  C   UNL     1      34.185 -11.275 -23.380  0.00  0.00    +0.018 C 
ENDROOT
BRANCH   3   7
ATOM      7  C   UNL     1      34.287  -8.862 -23.790  0.00  0.00    +0.003 C 
ATOM      8  C   UNL     1      33.517  -7.701 -23.857  0.00  0.00    +0.000 C 
ATOM      9  C   UNL     1      33.938  -6.606 -24.631  0.00  0.00    +0.000 C 
ATOM     10  C   UNL     1      35.486  -8.946 -24.493  0.00  0.00    +0.000 C 
ATOM     11  C   UNL     1      35.156  -6.691 -25.345  0.00  0.00    +0.001 C 
ATOM     12  C   UNL     1      35.919  -7.868 -25.266  0.00  0.00    +0.000 C 
ATOM     13  C   UNL     1      33.176  -5.429 -24.709  0.00  0.00    +0.001 C 
ATOM     14  C   UNL     1      35.577  -5.596 -26.118  0.00  0.00    +0.016 C 
ATOM     15  C   UNL     1      34.806  -4.435 -26.185  0.00  0.00    +0.064 C 
ATOM     16  C   UNL     1      33.609  -4.351 -25.482  0.00  0.00    +0.016 C 
BRANCH  15  17
ATOM     17  N   UNL     1      35.248  -3.332 -26.976  0.00  0.00    -0.219 N 
ATOM     18  H   UNL     1      34.695  -2.522 -27.069  0.00  0.00    +0.173 HD
BRANCH  17  19
ATOM     19  S   UNL     1      36.775  -3.455 -27.765  0.00  0.00    +0.056 S 
ATOM     20  O   UNL     1      37.808  -3.547 -26.751  0.00  0.00    -0.154 OA
ATOM     21  O   UNL     1      36.722  -4.412 -28.851  0.00  0.00    -0.154 OA
ATOM     22  C   UNL     1      36.893  -1.829 -28.475  0.00  0.00    +0.200 C 
ENDBRANCH  17  19
ENDBRANCH  15  17
ENDBRANCH   3   7
BRANCH   5  25
ATOM     23  O   UNL     1      33.082 -13.573 -25.150  0.00  0.00    -0.251 OA
ATOM     24  O   UNL     1      35.163 -17.514 -24.069  0.00  0.00    -0.270 OA
ATOM     25  N   UNL     1      34.123 -13.713 -23.029  0.00  0.00    -0.220 N 
ATOM     26  N   UNL     1      34.064 -15.538 -24.554  0.00  0.00    -0.235 N 
ATOM     27  C   UNL     1      33.693 -14.212 -24.289  0.00  0.00    +0.318 C 
ATOM     28  C   UNL     1      34.906 -14.517 -22.206  0.00  0.00    +0.078 C 
ATOM     29  C   UNL     1      35.275 -15.764 -22.500  0.00  0.00    +0.075 C 
ATOM     30  C   UNL     1      34.841 -16.368 -23.768  0.00  0.00    +0.254 C 
ATOM     31  H   UNL     1      33.734 -15.923 -25.399  0.00  0.00    +0.159 HD
ENDBRANCH   5  25
BRANCH   1  32
ATOM     32  C   UNL     1      31.831 -10.681 -19.852  0.00  0.00    +0.022 C 
ATOM     33  C   UNL     1      31.952 -11.906 -18.896  0.00  0.00    +0.004 C 
ATOM     34  C   UNL     1      32.207  -9.434 -18.985  0.00  0.00    +0.004 C 
ATOM     35  C   UNL     1      30.321 -10.503 -20.203  0.00  0.00    +0.004 C 
ENDBRANCH   1  32
BRANCH   2  36
ATOM     36  O   UNL     1      32.730  -8.519 -21.450  0.00  0.00    -0.472 OA
ATOM     37  C   UNL     1      31.524  -7.984 -21.990  0.00  0.00    +0.252 C 
ENDBRANCH   2  36
TORSDOF 6
ENDMDL
MODEL 6
REMARK VINA RESULT:      -9.8      2.327      4.655
REMARK  Name = 56640146
REMARK  6 active torsions:
REMARK  status: ('A' for Active; 'I' for Inactive)
REMARK    1  A    between atoms: C_1  and  C_32
REMARK    2  A    between atoms: C_2  and  O_36
REMARK    3  A    between atoms: C_3  and  C_7
REMARK    4  A    between atoms: C_5  and  N_25
REMARK    5  A    between atoms: C_15  and  N_17
REMARK    6  A    between atoms: N_17  and  S_19
REMARK                            x       y       z     vdW  Elec       q    Type
REMARK                         _______ _______ _______ _____ _____    ______ ____
ROOT
ATOM      1  C   UNL     1      32.082 -23.535 -14.850  0.00  0.00    +0.012 C 
ATOM      2  C   UNL     1      32.226 -22.726 -15.976  0.00  0.00    +0.135 C 
ATOM      3  C   UNL     1      33.500 -22.414 -16.453  0.00  0.00    +0.035 C 
ATOM      4  C   UNL     1      33.210 -24.032 -14.198  0.00  0.00    +0.014 C 
ATOM      5  C   UNL     1      34.484 -23.720 -14.673  0.00  0.00    +0.059 C 
ATOM      6  C   UNL     1      34.628 -22.911 -15.801  0.00  0.00    +0.018 C 
ENDROOT
BRANCH   3   7
ATOM      7  C   UNL     1      33.673 -21.577 -17.620  0.00  0.00    +0.003 C 
ATOM      8  C   UNL     1      34.954 -21.220 -18.039  0.00  0.00    +0.000 C 
ATOM      9  C   UNL     1      35.137 -20.407 -19.170  0.00  0.00    +0.000 C 
ATOM     10  C   UNL     1      32.558 -21.128 -18.323  0.00  0.00    +0.000 C 
ATOM     11  C   UNL     1      34.005 -19.950 -19.885  0.00  0.00    +0.001 C 
ATOM     12  C   UNL     1      32.722 -20.320 -19.449  0.00  0.00    +0.000 C 
ATOM     13  C   UNL     1      36.421 -20.038 -19.606  0.00  0.00    +0.001 C 
ATOM     14  C   UNL     1      34.189 -19.138 -21.016  0.00  0.00    +0.016 C 
ATOM     15  C   UNL     1      35.471 -18.781 -21.435  0.00  0.00    +0.064 C 
ATOM     16  C   UNL     1      36.584 -19.230 -20.732  0.00  0.00    +0.016 C 
BRANCH  15  17
ATOM     17  N   UNL     1      35.640 -17.953 -22.586  0.00  0.00    -0.219 N 
ATOM     18  H   UNL     1      36.356 -17.279 -22.623  0.00  0.00    +0.173 HD
BRANCH  17  19
ATOM     19  S   UNL     1      34.557 -18.168 -23.908  0.00  0.00    +0.056 S 
ATOM     20  O   UNL     1      33.236 -18.447 -23.379  0.00  0.00    -0.154 OA
ATOM     21  O   UNL     1      34.747 -17.135 -24.907  0.00  0.00    -0.154 OA
ATOM     22  C   UNL     1      35.178 -19.695 -24.577  0.00  0.00    +0.200 C 
ENDBRANCH  17  19
ENDBRANCH  15  17
ENDBRANCH   3   7
BRANCH   5  25
ATOM     23  O   UNL     1      35.070 -23.371 -11.873  0.00  0.00    -0.251 OA
ATOM     24  O   UNL     1      38.999 -25.715 -12.193  0.00  0.00    -0.270 OA
ATOM     25  N   UNL     1      35.657 -24.237 -13.997  0.00  0.00    -0.220 N 
ATOM     26  N   UNL     1      37.047 -24.480 -12.082  0.00  0.00    -0.235 N 
ATOM     27  C   UNL     1      35.858 -23.964 -12.616  0.00  0.00    +0.318 C 
ATOM     28  C   UNL     1      36.582 -25.019 -14.681  0.00  0.00    +0.078 C 
ATOM     29  C   UNL     1      37.689 -25.528 -14.138  0.00  0.00    +0.075 C 
ATOM     30  C   UNL     1      37.989 -25.261 -12.724  0.00  0.00    +0.254 C 
ATOM     31  H   UNL     1      37.234 -24.260 -11.140  0.00  0.00    +0.159 HD
ENDBRANCH   5  25
BRANCH   1  32
ATOM     32  C   UNL     1      30.727 -23.881 -14.325  0.00  0.00    +0.022 C 
ATOM     33  C   UNL     1      30.824 -24.620 -12.955  0.00  0.00    +0.004 C 
ATOM     34  C   UNL     1      29.774 -22.666 -14.077  0.00  0.00    +0.004 C 
ATOM     35  C   UNL     1      29.961 -24.815 -15.312  0.00  0.00    +0.004 C 
ENDBRANCH   1  32
BRANCH   2  36
ATOM     36  O   UNL     1      31.115 -22.244 -16.606  0.00  0.00    -0.472 OA
ATOM     37  C   UNL     1      30.273 -21.375 -15.853  0.00  0.00    +0.252 C 
ENDBRANCH   2  36
TORSDOF 6
ENDMDL
MODEL 7
REMARK VINA RESULT:      -9.5      9.694     16.913
REMARK  Name = 56640146
REMARK  6 active torsions:
REMARK  status: ('A' for Active; 'I' for Inactive)
REMARK    1  A    between atoms: C_1  and  C_32
REMARK    2  A    between atoms: C_2  and  O_36
REMARK    3  A    between atoms: C_3  and  C_7
REMARK    4  A    between atoms: C_5  and  N_25
REMARK    5  A    between atoms: C_15  and  N_17
REMARK    6  A    between atoms: N_17  and  S_19
REMARK                            x       y       z     vdW  Elec       q    Type
REMARK                         _______ _______ _______ _____ _____    ______ ____
ROOT
ATOM      1  C   UNL     1      32.476  -5.504 -21.485  0.00  0.00    +0.012 C 
ATOM      2  C   UNL     1      32.834  -6.840 -21.662  0.00  0.00    +0.135 C 
ATOM      3  C   UNL     1      33.122  -7.323 -22.939  0.00  0.00    +0.035 C 
ATOM      4  C   UNL     1      32.403  -4.650 -22.584  0.00  0.00    +0.014 C 
ATOM      5  C   UNL     1      32.690  -5.131 -23.862  0.00  0.00    +0.059 C 
ATOM      6  C   UNL     1      33.050  -6.468 -24.039  0.00  0.00    +0.018 C 
ENDROOT
BRANCH   3   7
ATOM      7  C   UNL     1      33.496  -8.705 -23.145  0.00  0.00    +0.003 C 
ATOM      8  C   UNL     1      32.933  -9.705 -22.355  0.00  0.00    +0.000 C 
ATOM      9  C   UNL     1      33.288 -11.052 -22.543  0.00  0.00    +0.000 C 
ATOM     10  C   UNL     1      34.421  -9.033 -24.133  0.00  0.00    +0.000 C 
ATOM     11  C   UNL     1      34.227 -11.386 -23.547  0.00  0.00    +0.001 C 
ATOM     12  C   UNL     1      34.784 -10.365 -24.334  0.00  0.00    +0.000 C 
ATOM     13  C   UNL     1      32.729 -12.073 -21.757  0.00  0.00    +0.001 C 
ATOM     14  C   UNL     1      34.581 -12.733 -23.735  0.00  0.00    +0.016 C 
ATOM     15  C   UNL     1      34.017 -13.734 -22.944  0.00  0.00    +0.064 C 
ATOM     16  C   UNL     1      33.092 -13.405 -21.957  0.00  0.00    +0.016 C 
BRANCH  15  17
ATOM     17  N   UNL     1      34.388 -15.097 -23.148  0.00  0.00    -0.219 N 
ATOM     18  H   UNL     1      34.736 -15.643 -22.406  0.00  0.00    +0.173 HD
BRANCH  17  19
ATOM     19  S   UNL     1      34.211 -15.762 -24.727  0.00  0.00    +0.056 S 
ATOM     20  O   UNL     1      32.881 -15.444 -25.212  0.00  0.00    -0.154 OA
ATOM     21  O   UNL     1      35.378 -15.483 -25.541  0.00  0.00    -0.154 OA
ATOM     22  C   UNL     1      34.218 -17.498 -24.340  0.00  0.00    +0.200 C 
ENDBRANCH  17  19
ENDBRANCH  15  17
ENDBRANCH   3   7
BRANCH   5  25
ATOM     23  O   UNL     1      30.815  -2.963 -24.157  0.00  0.00    -0.251 OA
ATOM     24  O   UNL     1      32.476  -1.813 -28.274  0.00  0.00    -0.270 OA
ATOM     25  N   UNL     1      32.616  -4.243 -25.005  0.00  0.00    -0.220 N 
ATOM     26  N   UNL     1      31.617  -2.463 -26.227  0.00  0.00    -0.235 N 
ATOM     27  C   UNL     1      31.617  -3.233 -25.055  0.00  0.00    +0.318 C 
ATOM     28  C   UNL     1      33.529  -4.355 -26.049  0.00  0.00    +0.078 C 
ATOM     29  C   UNL     1      33.528  -3.585 -27.138  0.00  0.00    +0.075 C 
ATOM     30  C   UNL     1      32.505  -2.539 -27.284  0.00  0.00    +0.254 C 
ATOM     31  H   UNL     1      30.902  -1.790 -26.307  0.00  0.00    +0.159 HD
ENDBRANCH   5  25
BRANCH   1  32
ATOM     32  C   UNL     1      32.165  -4.970 -20.125  0.00  0.00    +0.022 C 
ATOM     33  C   UNL     1      30.626  -4.904 -19.884  0.00  0.00    +0.004 C 
ATOM     34  C   UNL     1      32.740  -5.799 -18.931  0.00  0.00    +0.004 C 
ATOM     35  C   UNL     1      32.733  -3.528 -19.943  0.00  0.00    +0.004 C 
ENDBRANCH   1  32
BRANCH   2  36
ATOM     36  O   UNL     1      32.902  -7.669 -20.578  0.00  0.00    -0.472 OA
ATOM     37  C   UNL     1      31.741  -8.442 -20.286  0.00  0.00    +0.252 C 
ENDBRANCH   2  36
TORSDOF 6
ENDMDL
MODEL 8
REMARK VINA RESULT:      -9.4      6.070     13.831
REMARK  Name = 56640146
REMARK  6 active torsions:
REMARK  status: ('A' for Active; 'I' for Inactive)
REMARK    1  A    between atoms: C_1  and  C_32
REMARK    2  A    between atoms: C_2  and  O_36
REMARK    3  A    between atoms: C_3  and  C_7
REMARK    4  A    between atoms: C_5  and  N_25
REMARK    5  A    between atoms: C_15  and  N_17
REMARK    6  A    between atoms: N_17  and  S_19
REMARK                            x       y       z     vdW  Elec       q    Type
REMARK                         _______ _______ _______ _____ _____    ______ ____
ROOT
ATOM      1  C   UNL     1      32.630 -10.057 -22.097  0.00  0.00    +0.012 C 
ATOM      2  C   UNL     1      32.932 -11.416 -22.032  0.00  0.00    +0.135 C 
ATOM      3  C   UNL     1      33.926 -11.951 -22.853  0.00  0.00    +0.035 C 
ATOM      4  C   UNL     1      33.319  -9.230 -22.985  0.00  0.00    +0.014 C 
ATOM      5  C   UNL     1      34.312  -9.764 -23.806  0.00  0.00    +0.059 C 
ATOM      6  C   UNL     1      34.615 -11.125 -23.740  0.00  0.00    +0.018 C 
ENDROOT
BRANCH   3   7
ATOM      7  C   UNL     1      34.257 -13.358 -22.800  0.00  0.00    +0.003 C 
ATOM      8  C   UNL     1      34.643 -13.940 -21.593  0.00  0.00    +0.000 C 
ATOM      9  C   UNL     1      34.968 -15.305 -21.527  0.00  0.00    +0.000 C 
ATOM     10  C   UNL     1      34.189 -14.131 -23.956  0.00  0.00    +0.000 C 
ATOM     11  C   UNL     1      34.899 -16.090 -22.702  0.00  0.00    +0.001 C 
ATOM     12  C   UNL     1      34.508 -15.488 -23.909  0.00  0.00    +0.000 C 
ATOM     13  C   UNL     1      35.358 -15.907 -20.319  0.00  0.00    +0.001 C 
ATOM     14  C   UNL     1      35.223 -17.456 -22.635  0.00  0.00    +0.016 C 
ATOM     15  C   UNL     1      35.610 -18.037 -21.427  0.00  0.00    +0.064 C 
ATOM     16  C   UNL     1      35.677 -17.264 -20.271  0.00  0.00    +0.016 C 
BRANCH  15  17
ATOM     17  N   UNL     1      35.938 -19.425 -21.376  0.00  0.00    -0.219 N 
ATOM     18  H   UNL     1      36.160 -19.923 -22.196  0.00  0.00    +0.173 HD
BRANCH  17  19
ATOM     19  S   UNL     1      35.934 -20.207 -19.841  0.00  0.00    +0.056 S 
ATOM     20  O   UNL     1      36.243 -21.610 -20.040  0.00  0.00    -0.154 OA
ATOM     21  O   UNL     1      36.660 -19.425 -18.860  0.00  0.00    -0.154 OA
ATOM     22  C   UNL     1      34.203 -20.111 -19.444  0.00  0.00    +0.200 C 
ENDBRANCH  17  19
ENDBRANCH  15  17
ENDBRANCH   3   7
BRANCH   5  25
ATOM     23  O   UNL     1      34.555  -6.903 -23.559  0.00  0.00    -0.251 OA
ATOM     24  O   UNL     1      37.054  -6.578 -27.390  0.00  0.00    -0.270 OA
ATOM     25  N   UNL     1      35.029  -8.906 -24.729  0.00  0.00    -0.220 N 
ATOM     26  N   UNL     1      35.734  -6.769 -25.501  0.00  0.00    -0.235 N 
ATOM     27  C   UNL     1      35.044  -7.499 -24.523  0.00  0.00    +0.318 C 
ATOM     28  C   UNL     1      35.725  -9.447 -25.805  0.00  0.00    +0.078 C 
ATOM     29  C   UNL     1      36.403  -8.731 -26.702  0.00  0.00    +0.075 C 
ATOM     30  C   UNL     1      36.438  -7.266 -26.582  0.00  0.00    +0.254 C 
ATOM     31  H   UNL     1      35.715  -5.789 -25.409  0.00  0.00    +0.159 HD
ENDBRANCH   5  25
BRANCH   1  32
ATOM     32  C   UNL     1      31.570  -9.466 -21.226  0.00  0.00    +0.022 C 
ATOM     33  C   UNL     1      30.829  -8.301 -21.951  0.00  0.00    +0.004 C 
ATOM     34  C   UNL     1      30.448 -10.456 -20.770  0.00  0.00    +0.004 C 
ATOM     35  C   UNL     1      32.178  -8.890 -19.910  0.00  0.00    +0.004 C 
ENDBRANCH   1  32
BRANCH   2  36
ATOM     36  O   UNL     1      32.252 -12.216 -21.159  0.00  0.00    -0.472 OA
ATOM     37  C   UNL     1      32.811 -12.371 -19.858  0.00  0.00    +0.252 C 
ENDBRANCH   2  36
TORSDOF 6
ENDMDL
MODEL 9
REMARK VINA RESULT:      -9.4      9.999     13.924
REMARK  Name = 56640146
REMARK  6 active torsions:
REMARK  status: ('A' for Active; 'I' for Inactive)
REMARK    1  A    between atoms: C_1  and  C_32
REMARK    2  A    between atoms: C_2  and  O_36
REMARK    3  A    between atoms: C_3  and  C_7
REMARK    4  A    between atoms: C_5  and  N_25
REMARK    5  A    between atoms: C_15  and  N_17
REMARK    6  A    between atoms: N_17  and  S_19
REMARK                            x       y       z     vdW  Elec       q    Type
REMARK                         _______ _______ _______ _____ _____    ______ ____
ROOT
ATOM      1  C   UNL     1      32.592 -11.081 -21.138  0.00  0.00    +0.012 C 
ATOM      2  C   UNL     1      32.997  -9.930 -21.813  0.00  0.00    +0.135 C 
ATOM      3  C   UNL     1      33.685 -10.035 -23.022  0.00  0.00    +0.035 C 
ATOM      4  C   UNL     1      32.876 -12.338 -21.670  0.00  0.00    +0.014 C 
ATOM      5  C   UNL     1      33.565 -12.445 -22.878  0.00  0.00    +0.059 C 
ATOM      6  C   UNL     1      33.970 -11.293 -23.554  0.00  0.00    +0.018 C 
ENDROOT
BRANCH   3   7
ATOM      7  C   UNL     1      34.114  -8.854 -23.739  0.00  0.00    +0.003 C 
ATOM      8  C   UNL     1      35.067  -8.961 -24.751  0.00  0.00    +0.000 C 
ATOM      9  C   UNL     1      35.494  -7.822 -25.456  0.00  0.00    +0.000 C 
ATOM     10  C   UNL     1      33.573  -7.612 -23.417  0.00  0.00    +0.000 C 
ATOM     11  C   UNL     1      34.945  -6.560 -25.129  0.00  0.00    +0.001 C 
ATOM     12  C   UNL     1      33.985  -6.472 -24.107  0.00  0.00    +0.000 C 
ATOM     13  C   UNL     1      36.453  -7.911 -26.478  0.00  0.00    +0.001 C 
ATOM     14  C   UNL     1      35.371  -5.422 -25.834  0.00  0.00    +0.016 C 
ATOM     15  C   UNL     1      36.326  -5.529 -26.846  0.00  0.00    +0.064 C 
ATOM     16  C   UNL     1      36.865  -6.770 -27.168  0.00  0.00    +0.016 C 
BRANCH  15  17
ATOM     17  N   UNL     1      36.749  -4.363 -27.552  0.00  0.00    -0.219 N 
ATOM     18  H   UNL     1      36.093  -3.727 -27.919  0.00  0.00    +0.173 HD
BRANCH  17  19
ATOM     19  S   UNL     1      38.441  -4.097 -27.744  0.00  0.00    +0.056 S 
ATOM     20  O   UNL     1      38.985  -3.668 -26.470  0.00  0.00    -0.154 OA
ATOM     21  O   UNL     1      39.056  -5.183 -28.480  0.00  0.00    -0.154 OA
ATOM     22  C   UNL     1      38.415  -2.667 -28.802  0.00  0.00    +0.200 C 
ENDBRANCH  17  19
ENDBRANCH  15  17
ENDBRANCH   3   7
BRANCH   5  25
ATOM     23  O   UNL     1      35.069 -14.509 -21.543  0.00  0.00    -0.251 OA
ATOM     24  O   UNL     1      34.654 -17.390 -25.087  0.00  0.00    -0.270 OA
ATOM     25  N   UNL     1      33.860 -13.752 -23.432  0.00  0.00    -0.220 N 
ATOM     26  N   UNL     1      34.903 -15.888 -23.346  0.00  0.00    -0.235 N 
ATOM     27  C   UNL     1      34.649 -14.674 -22.692  0.00  0.00    +0.318 C 
ATOM     28  C   UNL     1      33.360 -14.123 -24.676  0.00  0.00    +0.078 C 
ATOM     29  C   UNL     1      33.588 -15.300 -25.260  0.00  0.00    +0.075 C 
ATOM     30  C   UNL     1      34.425 -16.297 -24.576  0.00  0.00    +0.254 C 
ATOM     31  H   UNL     1      35.490 -16.523 -22.875  0.00  0.00    +0.159 HD
ENDBRANCH   5  25
BRANCH   1  32
ATOM     32  C   UNL     1      31.853 -10.988 -19.843  0.00  0.00    +0.022 C 
ATOM     33  C   UNL     1      32.459  -9.883 -18.926  0.00  0.00    +0.004 C 
ATOM     34  C   UNL     1      30.332 -10.644 -19.962  0.00  0.00    +0.004 C 
ATOM     35  C   UNL     1      31.915 -12.336 -19.061  0.00  0.00    +0.004 C 
ENDBRANCH   1  32
BRANCH   2  36
ATOM     36  O   UNL     1      32.713  -8.704 -21.283  0.00  0.00    -0.472 OA
ATOM     37  C   UNL     1      31.510  -8.077 -21.720  0.00  0.00    +0.252 C 
ENDBRANCH   2  36
TORSDOF 6
ENDMDL
