MODEL 1
REMARK VINA RESULT:     -13.5      0.000      0.000
REMARK  Name = 6102777
REMARK  2 active torsions:
REMARK  status: ('A' for Active; 'I' for Inactive)
REMARK    1  A    between atoms: C_4  and  S_16
REMARK    2  A    between atoms: S_16  and  N_19
REMARK                            x       y       z     vdW  Elec       q    Type
REMARK                         _______ _______ _______ _____ _____    ______ ____
ROOT
ATOM      1  O   UNL     1      33.996 -22.433 -16.117  0.00  0.00    -0.453 OA
ATOM      2  O   UNL     1      37.945 -21.361 -16.082  0.00  0.00    -0.286 OA
ATOM      3  C   UNL     1      36.145 -22.382 -14.957  0.00  0.00    +0.075 A 
ATOM      4  C   UNL     1      36.277 -23.370 -12.760  0.00  0.00    +0.126 C 
ATOM      5  C   UNL     1      34.793 -22.718 -15.036  0.00  0.00    +0.148 A 
ATOM      6  C   UNL     1      36.891 -22.706 -13.822  0.00  0.00    +0.026 C 
ATOM      7  C   UNL     1      35.895 -21.388 -17.241  0.00  0.00    +0.074 A 
ATOM      8  C   UNL     1      36.766 -21.682 -16.092  0.00  0.00    +0.201 A 
ATOM      9  C   UNL     1      34.558 -21.781 -17.187  0.00  0.00    +0.148 A 
ATOM     10  C   UNL     1      34.926 -23.707 -12.833  0.00  0.00    +0.023 C 
ATOM     11  C   UNL     1      34.184 -23.382 -13.969  0.00  0.00    +0.039 C 
ATOM     12  C   UNL     1      36.396 -20.727 -18.365  0.00  0.00    +0.006 C 
ATOM     13  C   UNL     1      33.714 -21.511 -18.265  0.00  0.00    +0.038 C 
ATOM     14  C   UNL     1      35.547 -20.460 -19.440  0.00  0.00    +0.000 C 
ATOM     15  C   UNL     1      34.209 -20.851 -19.391  0.00  0.00    +0.003 C 
ENDROOT
BRANCH   4  16
ATOM     16  S   UNL     1      37.201 -23.780 -11.336  0.00  0.00    +0.081 S 
ATOM     17  O   UNL     1      37.035 -22.707 -10.363  0.00  0.00    -0.149 OA
ATOM     18  O   UNL     1      36.870 -25.148 -10.959  0.00  0.00    -0.149 OA
BRANCH  16  19
ATOM     19  N   UNL     1      38.795 -23.737 -11.947  0.00  0.00    -0.156 N 
ATOM     20  N   UNL     1      40.607 -24.610 -13.268  0.00  0.00    -0.094 NA
ATOM     21  N   UNL     1      38.660 -25.768 -13.270  0.00  0.00    -0.071 NA
ATOM     22  N   UNL     1      40.629 -25.715 -14.027  0.00  0.00    -0.139 N 
ATOM     23  N   UNL     1      39.497 -26.433 -14.057  0.00  0.00    -0.020 NA
ATOM     24  C   UNL     1      39.359 -24.695 -12.823  0.00  0.00    +0.145 C 
ATOM     25  H   UNL     1      39.368 -22.986 -11.668  0.00  0.00    +0.186 HD
ATOM     26  H   UNL     1      41.430 -25.984 -14.533  0.00  0.00    +0.197 HD
ENDBRANCH  16  19
ENDBRANCH   4  16
TORSDOF 2
ENDMDL
MODEL 2
REMARK VINA RESULT:     -13.0      2.773      4.067
REMARK  Name = 6102777
REMARK  2 active torsions:
REMARK  status: ('A' for Active; 'I' for Inactive)
REMARK    1  A    between atoms: C_4  and  S_16
REMARK    2  A    between atoms: S_16  and  N_19
REMARK                            x       y       z     vdW  Elec       q    Type
REMARK                         _______ _______ _______ _____ _____    ______ ____
ROOT
ATOM      1  O   UNL     1      36.822 -20.092 -18.555  0.00  0.00    -0.453 OA
ATOM      2  O   UNL     1      32.987 -21.500 -18.313  0.00  0.00    -0.286 OA
ATOM      3  C   UNL     1      35.151 -21.436 -17.386  0.00  0.00    +0.075 A 
ATOM      4  C   UNL     1      35.823 -22.598 -15.380  0.00  0.00    +0.126 C 
ATOM      5  C   UNL     1      36.440 -20.921 -17.529  0.00  0.00    +0.148 A 
ATOM      6  C   UNL     1      34.838 -22.275 -16.314  0.00  0.00    +0.026 C 
ATOM      7  C   UNL     1      34.562 -20.189 -19.475  0.00  0.00    +0.074 A 
ATOM      8  C   UNL     1      34.133 -21.078 -18.385  0.00  0.00    +0.201 A 
ATOM      9  C   UNL     1      35.884 -19.746 -19.497  0.00  0.00    +0.148 A 
ATOM     10  C   UNL     1      37.113 -22.086 -15.520  0.00  0.00    +0.023 C 
ATOM     11  C   UNL     1      37.422 -21.249 -16.592  0.00  0.00    +0.039 C 
ATOM     12  C   UNL     1      33.664 -19.794 -20.470  0.00  0.00    +0.006 C 
ATOM     13  C   UNL     1      36.314 -18.901 -20.522  0.00  0.00    +0.038 C 
ATOM     14  C   UNL     1      34.100 -18.949 -21.492  0.00  0.00    +0.000 C 
ATOM     15  C   UNL     1      35.421 -18.504 -21.519  0.00  0.00    +0.003 C 
ENDROOT
BRANCH   4  16
ATOM     16  S   UNL     1      35.442 -23.645 -14.036  0.00  0.00    +0.081 S 
ATOM     17  O   UNL     1      34.027 -23.489 -13.726  0.00  0.00    -0.149 OA
ATOM     18  O   UNL     1      35.970 -24.971 -14.332  0.00  0.00    -0.149 OA
BRANCH  16  19
ATOM     19  N   UNL     1      36.369 -22.939 -12.788  0.00  0.00    -0.156 N 
ATOM     20  N   UNL     1      37.028 -22.689 -10.487  0.00  0.00    -0.094 NA
ATOM     21  N   UNL     1      35.419 -24.214 -10.954  0.00  0.00    -0.071 NA
ATOM     22  N   UNL     1      36.565 -23.343  -9.412  0.00  0.00    -0.139 N 
ATOM     23  N   UNL     1      35.610 -24.255  -9.641  0.00  0.00    -0.020 NA
ATOM     24  C   UNL     1      36.279 -23.272 -11.416  0.00  0.00    +0.145 C 
ATOM     25  H   UNL     1      37.019 -22.244 -13.044  0.00  0.00    +0.186 HD
ATOM     26  H   UNL     1      36.907 -23.163  -8.506  0.00  0.00    +0.197 HD
ENDBRANCH  16  19
ENDBRANCH   4  16
TORSDOF 2
ENDMDL
MODEL 3
REMARK VINA RESULT:     -12.6      2.539      4.084
REMARK  Name = 6102777
REMARK  2 active torsions:
REMARK  status: ('A' for Active; 'I' for Inactive)
REMARK    1  A    between atoms: C_4  and  S_16
REMARK    2  A    between atoms: S_16  and  N_19
REMARK                            x       y       z     vdW  Elec       q    Type
REMARK                         _______ _______ _______ _____ _____    ______ ____
ROOT
ATOM      1  O   UNL     1      32.801 -22.279 -15.452  0.00  0.00    -0.453 OA
ATOM      2  O   UNL     1      31.557 -24.605 -12.323  0.00  0.00    -0.286 OA
ATOM      3  C   UNL     1      33.340 -23.535 -13.427  0.00  0.00    +0.075 A 
ATOM      4  C   UNL     1      35.641 -23.593 -12.701  0.00  0.00    +0.126 C 
ATOM      5  C   UNL     1      33.695 -22.739 -14.516  0.00  0.00    +0.148 A 
ATOM      6  C   UNL     1      34.309 -23.964 -12.516  0.00  0.00    +0.026 C 
ATOM      7  C   UNL     1      30.986 -23.407 -14.268  0.00  0.00    +0.074 A 
ATOM      8  C   UNL     1      31.928 -23.910 -13.257  0.00  0.00    +0.201 A 
ATOM      9  C   UNL     1      31.478 -22.619 -15.309  0.00  0.00    +0.148 A 
ATOM     10  C   UNL     1      36.002 -22.799 -13.790  0.00  0.00    +0.023 C 
ATOM     11  C   UNL     1      35.031 -22.372 -14.697  0.00  0.00    +0.039 C 
ATOM     12  C   UNL     1      29.625 -23.710 -14.190  0.00  0.00    +0.006 C 
ATOM     13  C   UNL     1      30.602 -22.131 -16.280  0.00  0.00    +0.038 C 
ATOM     14  C   UNL     1      28.754 -23.220 -15.164  0.00  0.00    +0.000 C 
ATOM     15  C   UNL     1      29.241 -22.432 -16.207  0.00  0.00    +0.003 C 
ENDROOT
BRANCH   4  16
ATOM     16  S   UNL     1      36.860 -24.125 -11.569  0.00  0.00    +0.081 S 
ATOM     17  O   UNL     1      37.790 -23.024 -11.353  0.00  0.00    -0.149 OA
ATOM     18  O   UNL     1      36.185 -24.728 -10.428  0.00  0.00    -0.149 OA
BRANCH  16  19
ATOM     19  N   UNL     1      37.641 -25.348 -12.468  0.00  0.00    -0.156 N 
ATOM     20  N   UNL     1      39.487 -26.227 -13.737  0.00  0.00    -0.094 NA
ATOM     21  N   UNL     1      39.681 -24.117 -12.935  0.00  0.00    -0.071 NA
ATOM     22  N   UNL     1      40.648 -25.629 -14.045  0.00  0.00    -0.139 N 
ATOM     23  N   UNL     1      40.805 -24.378 -13.591  0.00  0.00    -0.020 NA
ATOM     24  C   UNL     1      38.928 -25.240 -13.047  0.00  0.00    +0.145 C 
ATOM     25  H   UNL     1      37.157 -26.197 -12.594  0.00  0.00    +0.186 HD
ATOM     26  H   UNL     1      41.343 -26.083 -14.574  0.00  0.00    +0.197 HD
ENDBRANCH  16  19
ENDBRANCH   4  16
TORSDOF 2
ENDMDL
MODEL 4
REMARK VINA RESULT:     -12.4      5.653      6.851
REMARK  Name = 6102777
REMARK  2 active torsions:
REMARK  status: ('A' for Active; 'I' for Inactive)
REMARK    1  A    between atoms: C_4  and  S_16
REMARK    2  A    between atoms: S_16  and  N_19
REMARK                            x       y       z     vdW  Elec       q    Type
REMARK                         _______ _______ _______ _____ _____    ______ ____
ROOT
ATOM      1  O   UNL     1      35.790 -22.053 -16.566  0.00  0.00    -0.453 OA
ATOM      2  O   UNL     1      32.160 -21.300 -18.300  0.00  0.00    -0.286 OA
ATOM      3  C   UNL     1      33.358 -22.278 -16.524  0.00  0.00    +0.075 A 
ATOM      4  C   UNL     1      32.356 -23.476 -14.684  0.00  0.00    +0.126 C 
ATOM      5  C   UNL     1      34.627 -22.499 -15.988  0.00  0.00    +0.148 A 
ATOM      6  C   UNL     1      32.220 -22.764 -15.876  0.00  0.00    +0.026 C 
ATOM      7  C   UNL     1      34.501 -21.054 -18.385  0.00  0.00    +0.074 A 
ATOM      8  C   UNL     1      33.244 -21.524 -17.782  0.00  0.00    +0.201 A 
ATOM      9  C   UNL     1      35.703 -21.347 -17.741  0.00  0.00    +0.148 A 
ATOM     10  C   UNL     1      33.623 -23.701 -14.145  0.00  0.00    +0.023 C 
ATOM     11  C   UNL     1      34.757 -23.214 -14.795  0.00  0.00    +0.039 C 
ATOM     12  C   UNL     1      34.493 -20.329 -19.579  0.00  0.00    +0.006 C 
ATOM     13  C   UNL     1      36.908 -20.911 -18.295  0.00  0.00    +0.038 C 
ATOM     14  C   UNL     1      35.701 -19.897 -20.128  0.00  0.00    +0.000 C 
ATOM     15  C   UNL     1      36.906 -20.187 -19.489  0.00  0.00    +0.003 C 
ENDROOT
BRANCH   4  16
ATOM     16  S   UNL     1      30.940 -24.088 -13.866  0.00  0.00    +0.081 S 
ATOM     17  O   UNL     1      30.449 -25.241 -14.610  0.00  0.00    -0.149 OA
ATOM     18  O   UNL     1      31.260 -24.229 -12.452  0.00  0.00    -0.149 OA
BRANCH  16  19
ATOM     19  N   UNL     1      29.851 -22.789 -14.066  0.00  0.00    -0.156 N 
ATOM     20  N   UNL     1      28.091 -21.627 -15.225  0.00  0.00    -0.094 NA
ATOM     21  N   UNL     1      28.798 -23.593 -16.100  0.00  0.00    -0.071 NA
ATOM     22  N   UNL     1      27.450 -21.989 -16.347  0.00  0.00    -0.139 N 
ATOM     23  N   UNL     1      27.838 -23.146 -16.900  0.00  0.00    -0.020 NA
ATOM     24  C   UNL     1      28.916 -22.662 -15.121  0.00  0.00    +0.145 C 
ATOM     25  H   UNL     1      29.875 -22.069 -13.393  0.00  0.00    +0.186 HD
ATOM     26  H   UNL     1      26.737 -21.436 -16.741  0.00  0.00    +0.197 HD
ENDBRANCH  16  19
ENDBRANCH   4  16
TORSDOF 2
ENDMDL
MODEL 5
REMARK VINA RESULT:     -12.4      1.548      2.978
REMARK  Name = 6102777
REMARK  2 active torsions:
REMARK  status: ('A' for Active; 'I' for Inactive)
REMARK    1  A    between atoms: C_4  and  S_16
REMARK    2  A    between atoms: S_16  and  N_19
REMARK                            x       y       z     vdW  Elec       q    Type
REMARK                         _______ _______ _______ _____ _____    ______ ____
ROOT
ATOM      1  O   UNL     1      36.774 -20.301 -18.324  0.00  0.00    -0.453 OA
ATOM      2  O   UNL     1      33.137 -21.970 -17.469  0.00  0.00    -0.286 OA
ATOM      3  C   UNL     1      35.395 -21.688 -16.862  0.00  0.00    +0.075 A 
ATOM      4  C   UNL     1      36.428 -22.667 -14.913  0.00  0.00    +0.126 C 
ATOM      5  C   UNL     1      36.604 -21.089 -17.213  0.00  0.00    +0.148 A 
ATOM      6  C   UNL     1      35.300 -22.478 -15.713  0.00  0.00    +0.026 C 
ATOM      7  C   UNL     1      34.425 -20.622 -18.909  0.00  0.00    +0.074 A 
ATOM      8  C   UNL     1      34.223 -21.470 -17.724  0.00  0.00    +0.201 A 
ATOM      9  C   UNL     1      35.691 -20.086 -19.141  0.00  0.00    +0.148 A 
ATOM     10  C   UNL     1      37.640 -22.071 -15.260  0.00  0.00    +0.023 C 
ATOM     11  C   UNL     1      37.729 -21.283 -16.408  0.00  0.00    +0.039 C 
ATOM     12  C   UNL     1      33.370 -20.359 -19.786  0.00  0.00    +0.006 C 
ATOM     13  C   UNL     1      35.905 -19.278 -20.259  0.00  0.00    +0.038 C 
ATOM     14  C   UNL     1      33.591 -19.551 -20.903  0.00  0.00    +0.000 C 
ATOM     15  C   UNL     1      34.855 -19.012 -21.139  0.00  0.00    +0.003 C 
ENDROOT
BRANCH   4  16
ATOM     16  S   UNL     1      36.321 -23.653 -13.475  0.00  0.00    +0.081 S 
ATOM     17  O   UNL     1      37.005 -22.955 -12.395  0.00  0.00    -0.149 OA
ATOM     18  O   UNL     1      34.931 -24.055 -13.304  0.00  0.00    -0.149 OA
BRANCH  16  19
ATOM     19  N   UNL     1      37.245 -25.014 -13.934  0.00  0.00    -0.156 N 
ATOM     20  N   UNL     1      39.317 -26.211 -14.186  0.00  0.00    -0.094 NA
ATOM     21  N   UNL     1      39.415 -24.126 -13.306  0.00  0.00    -0.071 NA
ATOM     22  N   UNL     1      40.557 -25.808 -13.870  0.00  0.00    -0.139 N 
ATOM     23  N   UNL     1      40.662 -24.579 -13.347  0.00  0.00    -0.020 NA
ATOM     24  C   UNL     1      38.650 -25.125 -13.813  0.00  0.00    +0.145 C 
ATOM     25  H   UNL     1      36.760 -25.784 -14.312  0.00  0.00    +0.186 HD
ATOM     26  H   UNL     1      41.343 -26.382 -14.015  0.00  0.00    +0.197 HD
ENDBRANCH  16  19
ENDBRANCH   4  16
TORSDOF 2
ENDMDL
MODEL 6
REMARK VINA RESULT:     -12.3      2.928      3.580
REMARK  Name = 6102777
REMARK  2 active torsions:
REMARK  status: ('A' for Active; 'I' for Inactive)
REMARK    1  A    between atoms: C_4  and  S_16
REMARK    2  A    between atoms: S_16  and  N_19
REMARK                            x       y       z     vdW  Elec       q    Type
REMARK                         _______ _______ _______ _____ _____    ______ ____
ROOT
ATOM      1  O   UNL     1      33.233 -20.851 -18.765  0.00  0.00    -0.453 OA
ATOM      2  O   UNL     1      37.155 -21.105 -17.627  0.00  0.00    -0.286 OA
ATOM      3  C   UNL     1      34.912 -21.681 -17.198  0.00  0.00    +0.075 A 
ATOM      4  C   UNL     1      34.168 -23.021 -15.334  0.00  0.00    +0.126 C 
ATOM      5  C   UNL     1      33.596 -21.553 -17.643  0.00  0.00    +0.148 A 
ATOM      6  C   UNL     1      35.204 -22.413 -16.045  0.00  0.00    +0.026 C 
ATOM      7  C   UNL     1      35.574 -20.283 -19.166  0.00  0.00    +0.074 A 
ATOM      8  C   UNL     1      35.984 -21.030 -17.967  0.00  0.00    +0.201 A 
ATOM      9  C   UNL     1      34.220 -20.236 -19.496  0.00  0.00    +0.148 A 
ATOM     10  C   UNL     1      32.850 -22.895 -15.774  0.00  0.00    +0.023 C 
ATOM     11  C   UNL     1      32.564 -22.163 -16.927  0.00  0.00    +0.039 C 
ATOM     12  C   UNL     1      36.521 -19.632 -19.961  0.00  0.00    +0.006 C 
ATOM     13  C   UNL     1      33.808 -19.533 -20.630  0.00  0.00    +0.038 C 
ATOM     14  C   UNL     1      36.104 -18.931 -21.092  0.00  0.00    +0.000 C 
ATOM     15  C   UNL     1      34.751 -18.881 -21.427  0.00  0.00    +0.003 C 
ENDROOT
BRANCH   4  16
ATOM     16  S   UNL     1      34.521 -23.939 -13.891  0.00  0.00    +0.081 S 
ATOM     17  O   UNL     1      33.295 -24.047 -13.111  0.00  0.00    -0.149 OA
ATOM     18  O   UNL     1      35.229 -25.149 -14.287  0.00  0.00    -0.149 OA
BRANCH  16  19
ATOM     19  N   UNL     1      35.605 -22.894 -13.087  0.00  0.00    -0.156 N 
ATOM     20  N   UNL     1      36.935 -22.230 -11.194  0.00  0.00    -0.094 NA
ATOM     21  N   UNL     1      35.724 -24.135 -11.004  0.00  0.00    -0.071 NA
ATOM     22  N   UNL     1      37.066 -22.845 -10.010  0.00  0.00    -0.139 N 
ATOM     23  N   UNL     1      36.366 -23.977  -9.853  0.00  0.00    -0.020 NA
ATOM     24  C   UNL     1      36.090 -23.077 -11.770  0.00  0.00    +0.145 C 
ATOM     25  H   UNL     1      35.918 -22.100 -13.579  0.00  0.00    +0.186 HD
ATOM     26  H   UNL     1      37.642 -22.485  -9.297  0.00  0.00    +0.197 HD
ENDBRANCH  16  19
ENDBRANCH   4  16
TORSDOF 2
ENDMDL
MODEL 7
REMARK VINA RESULT:     -12.2      5.414      7.363
REMARK  Name = 6102777
REMARK  2 active torsions:
REMARK  status: ('A' for Active; 'I' for Inactive)
REMARK    1  A    between atoms: C_4  and  S_16
REMARK    2  A    between atoms: S_16  and  N_19
REMARK                            x       y       z     vdW  Elec       q    Type
REMARK                         _______ _______ _______ _____ _____    ______ ____
ROOT
ATOM      1  O   UNL     1      36.818 -23.243 -15.305  0.00  0.00    -0.453 OA
ATOM      2  O   UNL     1      36.056 -24.823 -11.608  0.00  0.00    -0.286 OA
ATOM      3  C   UNL     1      35.206 -23.829 -13.566  0.00  0.00    +0.075 A 
ATOM      4  C   UNL     1      32.874 -23.353 -13.968  0.00  0.00    +0.126 C 
ATOM      5  C   UNL     1      35.536 -23.304 -14.816  0.00  0.00    +0.148 A 
ATOM      6  C   UNL     1      33.877 -23.856 -13.138  0.00  0.00    +0.026 C 
ATOM      7  C   UNL     1      37.648 -24.279 -13.255  0.00  0.00    +0.074 A 
ATOM      8  C   UNL     1      36.283 -24.352 -12.713  0.00  0.00    +0.201 A 
ATOM      9  C   UNL     1      37.837 -23.728 -14.522  0.00  0.00    +0.148 A 
ATOM     10  C   UNL     1      33.200 -22.826 -15.218  0.00  0.00    +0.023 C 
ATOM     11  C   UNL     1      34.529 -22.801 -15.642  0.00  0.00    +0.039 C 
ATOM     12  C   UNL     1      38.736 -24.752 -12.517  0.00  0.00    +0.006 C 
ATOM     13  C   UNL     1      39.124 -23.648 -15.057  0.00  0.00    +0.038 C 
ATOM     14  C   UNL     1      40.021 -24.669 -13.057  0.00  0.00    +0.000 C 
ATOM     15  C   UNL     1      40.215 -24.119 -14.324  0.00  0.00    +0.003 C 
ENDROOT
BRANCH   4  16
ATOM     16  S   UNL     1      31.209 -23.382 -13.441  0.00  0.00    +0.081 S 
ATOM     17  O   UNL     1      30.669 -24.707 -13.717  0.00  0.00    -0.149 OA
ATOM     18  O   UNL     1      31.154 -22.853 -12.085  0.00  0.00    -0.149 OA
BRANCH  16  19
ATOM     19  N   UNL     1      30.501 -22.256 -14.511  0.00  0.00    -0.156 N 
ATOM     20  N   UNL     1      28.995 -21.639 -16.285  0.00  0.00    -0.094 NA
ATOM     21  N   UNL     1      29.023 -23.813 -15.647  0.00  0.00    -0.071 NA
ATOM     22  N   UNL     1      28.146 -22.421 -16.967  0.00  0.00    -0.139 N 
ATOM     23  N   UNL     1      28.130 -23.716 -16.623  0.00  0.00    -0.020 NA
ATOM     24  C   UNL     1      29.512 -22.558 -15.478  0.00  0.00    +0.145 C 
ATOM     25  H   UNL     1      30.804 -21.321 -14.451  0.00  0.00    +0.186 HD
ATOM     26  H   UNL     1      27.568 -22.064 -17.680  0.00  0.00    +0.197 HD
ENDBRANCH  16  19
ENDBRANCH   4  16
TORSDOF 2
ENDMDL
MODEL 8
REMARK VINA RESULT:     -11.6      2.953      4.770
REMARK  Name = 6102777
REMARK  2 active torsions:
REMARK  status: ('A' for Active; 'I' for Inactive)
REMARK    1  A    between atoms: C_4  and  S_16
REMARK    2  A    between atoms: S_16  and  N_19
REMARK                            x       y       z     vdW  Elec       q    Type
REMARK                         _______ _______ _______ _____ _____    ______ ____
ROOT
ATOM      1  O   UNL     1      32.546 -22.262 -16.171  0.00  0.00    -0.453 OA
ATOM      2  O   UNL     1      32.520 -24.578 -12.798  0.00  0.00    -0.286 OA
ATOM      3  C   UNL     1      33.784 -23.438 -14.425  0.00  0.00    +0.075 A 
ATOM      4  C   UNL     1      36.195 -23.355 -14.485  0.00  0.00    +0.126 C 
ATOM      5  C   UNL     1      33.720 -22.651 -15.575  0.00  0.00    +0.148 A 
ATOM      6  C   UNL     1      35.019 -23.793 -13.876  0.00  0.00    +0.026 C 
ATOM      7  C   UNL     1      31.281 -23.458 -14.458  0.00  0.00    +0.074 A 
ATOM      8  C   UNL     1      32.528 -23.886 -13.805  0.00  0.00    +0.201 A 
ATOM      9  C   UNL     1      31.363 -22.670 -15.605  0.00  0.00    +0.148 A 
ATOM     10  C   UNL     1      36.136 -22.568 -15.636  0.00  0.00    +0.023 C 
ATOM     11  C   UNL     1      34.901 -22.216 -16.180  0.00  0.00    +0.039 C 
ATOM     12  C   UNL     1      30.039 -23.833 -13.941  0.00  0.00    +0.006 C 
ATOM     13  C   UNL     1      30.192 -22.252 -16.242  0.00  0.00    +0.038 C 
ATOM     14  C   UNL     1      28.873 -23.413 -14.581  0.00  0.00    +0.000 C 
ATOM     15  C   UNL     1      28.948 -22.625 -15.729  0.00  0.00    +0.003 C 
ENDROOT
BRANCH   4  16
ATOM     16  S   UNL     1      37.744 -23.793 -13.808  0.00  0.00    +0.081 S 
ATOM     17  O   UNL     1      37.718 -25.217 -13.498  0.00  0.00    -0.149 OA
ATOM     18  O   UNL     1      38.785 -23.267 -14.681  0.00  0.00    -0.149 OA
BRANCH  16  19
ATOM     19  N   UNL     1      37.735 -22.904 -12.350  0.00  0.00    -0.156 N 
ATOM     20  N   UNL     1      37.078 -22.546 -10.063  0.00  0.00    -0.094 NA
ATOM     21  N   UNL     1      36.312 -24.414 -11.090  0.00  0.00    -0.071 NA
ATOM     22  N   UNL     1      36.302 -23.317  -9.287  0.00  0.00    -0.139 N 
ATOM     23  N   UNL     1      35.825 -24.433  -9.855  0.00  0.00    -0.020 NA
ATOM     24  C   UNL     1      37.049 -23.278 -11.170  0.00  0.00    +0.145 C 
ATOM     25  H   UNL     1      38.249 -22.064 -12.329  0.00  0.00    +0.186 HD
ATOM     26  H   UNL     1      36.095 -23.076  -8.356  0.00  0.00    +0.197 HD
ENDBRANCH  16  19
ENDBRANCH   4  16
TORSDOF 2
ENDMDL
MODEL 9
REMARK VINA RESULT:     -11.5      6.625      8.446
REMARK  Name = 6102777
REMARK  2 active torsions:
REMARK  status: ('A' for Active; 'I' for Inactive)
REMARK    1  A    between atoms: C_4  and  S_16
REMARK    2  A    between atoms: S_16  and  N_19
REMARK                            x       y       z     vdW  Elec       q    Type
REMARK                         _______ _______ _______ _____ _____    ______ ____
ROOT
ATOM      1  O   UNL     1      35.352 -22.813 -15.723  0.00  0.00    -0.453 OA
ATOM      2  O   UNL     1      34.019 -23.799 -11.981  0.00  0.00    -0.286 OA
ATOM      3  C   UNL     1      33.487 -23.155 -14.183  0.00  0.00    +0.075 A 
ATOM      4  C   UNL     1      31.247 -22.812 -15.013  0.00  0.00    +0.126 C 
ATOM      5  C   UNL     1      34.009 -22.828 -15.435  0.00  0.00    +0.148 A 
ATOM      6  C   UNL     1      32.107 -23.148 -13.967  0.00  0.00    +0.026 C 
ATOM      7  C   UNL     1      35.850 -23.484 -13.428  0.00  0.00    +0.074 A 
ATOM      8  C   UNL     1      34.417 -23.505 -13.099  0.00  0.00    +0.201 A 
ATOM      9  C   UNL     1      36.236 -23.138 -14.723  0.00  0.00    +0.148 A 
ATOM     10  C   UNL     1      31.765 -22.484 -16.266  0.00  0.00    +0.023 C 
ATOM     11  C   UNL     1      33.144 -22.492 -16.478  0.00  0.00    +0.039 C 
ATOM     12  C   UNL     1      36.809 -23.803 -12.463  0.00  0.00    +0.006 C 
ATOM     13  C   UNL     1      37.591 -23.111 -15.057  0.00  0.00    +0.038 C 
ATOM     14  C   UNL     1      38.162 -23.774 -12.803  0.00  0.00    +0.000 C 
ATOM     15  C   UNL     1      38.553 -23.429 -14.097  0.00  0.00    +0.003 C 
ENDROOT
BRANCH   4  16
ATOM     16  S   UNL     1      29.520 -22.800 -14.754  0.00  0.00    +0.081 S 
ATOM     17  O   UNL     1      29.126 -24.114 -14.260  0.00  0.00    -0.149 OA
ATOM     18  O   UNL     1      29.187 -21.613 -13.979  0.00  0.00    -0.149 OA
BRANCH  16  19
ATOM     19  N   UNL     1      28.943 -22.608 -16.350  0.00  0.00    -0.156 N 
ATOM     20  N   UNL     1      27.325 -21.864 -17.968  0.00  0.00    -0.094 NA
ATOM     21  N   UNL     1      26.873 -21.473 -15.783  0.00  0.00    -0.071 NA
ATOM     22  N   UNL     1      26.161 -21.233 -17.754  0.00  0.00    -0.139 N 
ATOM     23  N   UNL     1      25.853 -20.982 -16.475  0.00  0.00    -0.020 NA
ATOM     24  C   UNL     1      27.723 -21.987 -16.707  0.00  0.00    +0.145 C 
ATOM     25  H   UNL     1      29.506 -22.956 -17.080  0.00  0.00    +0.186 HD
ATOM     26  H   UNL     1      25.568 -20.970 -18.495  0.00  0.00    +0.197 HD
ENDBRANCH  16  19
ENDBRANCH   4  16
TORSDOF 2
ENDMDL
