MODEL 1
REMARK VINA RESULT:     -12.8      0.000      0.000
REMARK  Name = 447655
REMARK  6 active torsions:
REMARK  status: ('A' for Active; 'I' for Inactive)
REMARK    1  A    between atoms: N_4  and  C_14
REMARK    2  A    between atoms: C_6  and  O_26
REMARK    3  A    between atoms: C_15  and  S_20
REMARK    4  A    between atoms: S_20  and  N_23
REMARK    5  A    between atoms: O_26  and  C_27
REMARK    6  A    between atoms: C_27  and  C_28
REMARK                            x       y       z     vdW  Elec       q    Type
REMARK                         _______ _______ _______ _____ _____    ______ ____
ROOT
ATOM      1  N   UNL     1      33.681 -22.486 -15.975  0.00  0.00    -0.293 NA
ATOM      2  N   UNL     1      30.017 -22.355 -16.269  0.00  0.00    -0.266 NA
ATOM      3  N   UNL     1      32.492 -23.312 -14.012  0.00  0.00    -0.316 NA
ATOM      4  N   UNL     1      34.829 -23.281 -14.096  0.00  0.00    -0.238 N 
ATOM      5  N   UNL     1      30.071 -23.222 -14.217  0.00  0.00    -0.296 N 
ATOM      6  C   UNL     1      32.521 -22.215 -16.615  0.00  0.00    +0.288 C 
ATOM      7  C   UNL     1      31.340 -22.489 -15.959  0.00  0.00    +0.215 C 
ATOM      8  C   UNL     1      31.348 -23.029 -14.680  0.00  0.00    +0.196 C 
ATOM      9  C   UNL     1      33.595 -23.012 -14.730  0.00  0.00    +0.207 C 
ATOM     10  C   UNL     1      29.295 -22.807 -15.195  0.00  0.00    +0.164 C 
ATOM     11  H   UNL     1      29.649 -22.000 -17.110  0.00  0.00    +0.126 HD
ATOM     12  H   UNL     1      34.737 -23.663 -13.193  0.00  0.00    +0.166 HD
ATOM     13  H   UNL     1      29.796 -23.588 -13.345  0.00  0.00    +0.150 HD
ENDROOT
BRANCH   4  14
ATOM     14  C   UNL     1      36.165 -23.112 -14.504  0.00  0.00    +0.060 C 
ATOM     15  C   UNL     1      38.459 -23.880 -14.547  0.00  0.00    +0.123 C 
ATOM     16  C   UNL     1      37.135 -24.048 -14.141  0.00  0.00    +0.035 C 
ATOM     17  C   UNL     1      36.526 -22.005 -15.278  0.00  0.00    +0.015 C 
ATOM     18  C   UNL     1      38.816 -22.774 -15.319  0.00  0.00    +0.020 C 
ATOM     19  C   UNL     1      37.849 -21.836 -15.684  0.00  0.00    +0.003 C 
BRANCH  15  20
ATOM     20  S   UNL     1      39.669 -25.052 -14.091  0.00  0.00    +0.057 S 
ATOM     21  O   UNL     1      40.585 -24.424 -13.151  0.00  0.00    -0.153 OA
ATOM     22  O   UNL     1      38.996 -26.292 -13.728  0.00  0.00    -0.153 OA
BRANCH  20  23
ATOM     23  N   UNL     1      40.477 -25.283 -15.580  0.00  0.00    -0.203 NA
ATOM     24  H   UNL     1      40.594 -24.383 -16.045  0.00  0.00    +0.144 HD
ATOM     25  H   UNL     1      39.925 -25.903 -16.172  0.00  0.00    +0.144 HD
ENDBRANCH  20  23
ENDBRANCH  15  20
ENDBRANCH   4  14
BRANCH   6  26
ATOM     26  O   UNL     1      32.573 -21.681 -17.880  0.00  0.00    -0.453 OA
BRANCH  26  27
ATOM     27  C   UNL     1      33.713 -21.986 -18.661  0.00  0.00    +0.208 C 
BRANCH  27  28
ATOM     28  C   UNL     1      34.485 -20.693 -18.915  0.00  0.00    +0.044 C 
ATOM     29  C   UNL     1      35.958 -20.992 -19.227  0.00  0.00    +0.004 C 
ATOM     30  C   UNL     1      33.839 -19.890 -20.052  0.00  0.00    +0.004 C 
ATOM     31  C   UNL     1      36.739 -19.718 -19.537  0.00  0.00    +0.000 C 
ATOM     32  C   UNL     1      34.624 -18.618 -20.361  0.00  0.00    +0.000 C 
ATOM     33  C   UNL     1      36.088 -18.919 -20.662  0.00  0.00    +0.000 C 
ENDBRANCH  27  28
ENDBRANCH  26  27
ENDBRANCH   6  26
TORSDOF 6
ENDMDL
MODEL 2
REMARK VINA RESULT:     -12.7      2.316      2.647
REMARK  Name = 447655
REMARK  6 active torsions:
REMARK  status: ('A' for Active; 'I' for Inactive)
REMARK    1  A    between atoms: N_4  and  C_14
REMARK    2  A    between atoms: C_6  and  O_26
REMARK    3  A    between atoms: C_15  and  S_20
REMARK    4  A    between atoms: S_20  and  N_23
REMARK    5  A    between atoms: O_26  and  C_27
REMARK    6  A    between atoms: C_27  and  C_28
REMARK                            x       y       z     vdW  Elec       q    Type
REMARK                         _______ _______ _______ _____ _____    ______ ____
ROOT
ATOM      1  N   UNL     1      32.524 -22.799 -15.370  0.00  0.00    -0.293 NA
ATOM      2  N   UNL     1      29.162 -22.068 -16.671  0.00  0.00    -0.266 NA
ATOM      3  N   UNL     1      30.709 -23.551 -13.924  0.00  0.00    -0.316 NA
ATOM      4  N   UNL     1      32.950 -23.887 -13.341  0.00  0.00    -0.238 N 
ATOM      5  N   UNL     1      28.492 -23.063 -14.793  0.00  0.00    -0.296 N 
ATOM      6  C   UNL     1      31.652 -22.306 -16.278  0.00  0.00    +0.288 C 
ATOM      7  C   UNL     1      30.304 -22.430 -16.016  0.00  0.00    +0.215 C 
ATOM      8  C   UNL     1      29.862 -23.046 -14.853  0.00  0.00    +0.196 C 
ATOM      9  C   UNL     1      32.005 -23.384 -14.265  0.00  0.00    +0.207 C 
ATOM     10  C   UNL     1      28.102 -22.467 -15.900  0.00  0.00    +0.164 C 
ATOM     11  H   UNL     1      29.110 -21.605 -17.538  0.00  0.00    +0.126 HD
ATOM     12  H   UNL     1      32.545 -24.307 -12.548  0.00  0.00    +0.166 HD
ATOM     13  H   UNL     1      27.925 -23.437 -14.080  0.00  0.00    +0.150 HD
ENDROOT
BRANCH   4  14
ATOM     14  C   UNL     1      34.356 -23.906 -13.335  0.00  0.00    +0.060 C 
ATOM     15  C   UNL     1      36.452 -23.611 -12.164  0.00  0.00    +0.123 C 
ATOM     16  C   UNL     1      35.057 -23.591 -12.169  0.00  0.00    +0.035 C 
ATOM     17  C   UNL     1      35.057 -24.242 -14.496  0.00  0.00    +0.015 C 
ATOM     18  C   UNL     1      37.149 -23.947 -13.325  0.00  0.00    +0.020 C 
ATOM     19  C   UNL     1      36.451 -24.262 -14.491  0.00  0.00    +0.003 C 
BRANCH  15  20
ATOM     20  S   UNL     1      37.327 -23.217 -10.705  0.00  0.00    +0.057 S 
ATOM     21  O   UNL     1      38.488 -24.091 -10.616  0.00  0.00    -0.153 OA
ATOM     22  O   UNL     1      37.502 -21.772 -10.647  0.00  0.00    -0.153 OA
BRANCH  20  23
ATOM     23  N   UNL     1      36.195 -23.680  -9.511  0.00  0.00    -0.203 NA
ATOM     24  H   UNL     1      35.309 -23.917  -9.958  0.00  0.00    +0.144 HD
ATOM     25  H   UNL     1      36.052 -22.907  -8.861  0.00  0.00    +0.144 HD
ENDBRANCH  20  23
ENDBRANCH  15  20
ENDBRANCH   4  14
BRANCH   6  26
ATOM     26  O   UNL     1      32.146 -21.706 -17.411  0.00  0.00    -0.453 OA
BRANCH  26  27
ATOM     27  C   UNL     1      33.422 -22.125 -17.857  0.00  0.00    +0.208 C 
BRANCH  27  28
ATOM     28  C   UNL     1      34.158 -20.913 -18.425  0.00  0.00    +0.044 C 
ATOM     29  C   UNL     1      35.602 -21.279 -18.794  0.00  0.00    +0.004 C 
ATOM     30  C   UNL     1      33.411 -20.345 -19.640  0.00  0.00    +0.004 C 
ATOM     31  C   UNL     1      36.343 -20.096 -19.413  0.00  0.00    +0.000 C 
ATOM     32  C   UNL     1      34.156 -19.165 -20.257  0.00  0.00    +0.000 C 
ATOM     33  C   UNL     1      35.593 -19.530 -20.615  0.00  0.00    +0.000 C 
ENDBRANCH  27  28
ENDBRANCH  26  27
ENDBRANCH   6  26
TORSDOF 6
ENDMDL
MODEL 3
REMARK VINA RESULT:     -12.7      1.717      2.266
REMARK  Name = 447655
REMARK  6 active torsions:
REMARK  status: ('A' for Active; 'I' for Inactive)
REMARK    1  A    between atoms: N_4  and  C_14
REMARK    2  A    between atoms: C_6  and  O_26
REMARK    3  A    between atoms: C_15  and  S_20
REMARK    4  A    between atoms: S_20  and  N_23
REMARK    5  A    between atoms: O_26  and  C_27
REMARK    6  A    between atoms: C_27  and  C_28
REMARK                            x       y       z     vdW  Elec       q    Type
REMARK                         _______ _______ _______ _____ _____    ______ ____
ROOT
ATOM      1  N   UNL     1      33.639 -23.185 -14.232  0.00  0.00    -0.293 NA
ATOM      2  N   UNL     1      30.250 -23.304 -15.654  0.00  0.00    -0.266 NA
ATOM      3  N   UNL     1      32.025 -24.398 -12.863  0.00  0.00    -0.316 NA
ATOM      4  N   UNL     1      34.255 -24.168 -12.197  0.00  0.00    -0.238 N 
ATOM      5  N   UNL     1      29.788 -24.472 -13.813  0.00  0.00    -0.296 N 
ATOM      6  C   UNL     1      32.704 -22.912 -15.168  0.00  0.00    +0.288 C 
ATOM      7  C   UNL     1      31.422 -23.378 -14.959  0.00  0.00    +0.215 C 
ATOM      8  C   UNL     1      31.110 -24.108 -13.819  0.00  0.00    +0.196 C 
ATOM      9  C   UNL     1      33.247 -23.903 -13.152  0.00  0.00    +0.207 C 
ATOM     10  C   UNL     1      29.299 -23.973 -14.928  0.00  0.00    +0.164 C 
ATOM     11  H   UNL     1      30.112 -22.854 -16.518  0.00  0.00    +0.126 HD
ATOM     12  H   UNL     1      33.943 -24.691 -11.424  0.00  0.00    +0.166 HD
ATOM     13  H   UNL     1      29.310 -24.990 -13.125  0.00  0.00    +0.150 HD
ENDROOT
BRANCH   4  14
ATOM     14  C   UNL     1      35.620 -23.830 -12.137  0.00  0.00    +0.060 C 
ATOM     15  C   UNL     1      37.881 -24.082 -12.960  0.00  0.00    +0.123 C 
ATOM     16  C   UNL     1      36.528 -24.418 -13.020  0.00  0.00    +0.035 C 
ATOM     17  C   UNL     1      36.071 -22.903 -11.193  0.00  0.00    +0.015 C 
ATOM     18  C   UNL     1      38.328 -23.156 -12.017  0.00  0.00    +0.020 C 
ATOM     19  C   UNL     1      37.423 -22.567 -11.134  0.00  0.00    +0.003 C 
BRANCH  15  20
ATOM     20  S   UNL     1      39.014 -24.818 -14.065  0.00  0.00    +0.057 S 
ATOM     21  O   UNL     1      39.698 -23.759 -14.793  0.00  0.00    -0.153 OA
ATOM     22  O   UNL     1      39.788 -25.814 -13.338  0.00  0.00    -0.153 OA
BRANCH  20  23
ATOM     23  N   UNL     1      37.951 -25.624 -15.134  0.00  0.00    -0.203 NA
ATOM     24  H   UNL     1      37.115 -25.913 -14.626  0.00  0.00    +0.144 HD
ATOM     25  H   UNL     1      38.416 -26.446 -15.519  0.00  0.00    +0.144 HD
ENDBRANCH  20  23
ENDBRANCH  15  20
ENDBRANCH   4  14
BRANCH   6  26
ATOM     26  O   UNL     1      33.068 -22.186 -16.276  0.00  0.00    -0.453 OA
BRANCH  26  27
ATOM     27  C   UNL     1      34.334 -22.468 -16.841  0.00  0.00    +0.208 C 
BRANCH  27  28
ATOM     28  C   UNL     1      34.398 -21.829 -18.227  0.00  0.00    +0.044 C 
ATOM     29  C   UNL     1      33.184 -20.920 -18.462  0.00  0.00    +0.004 C 
ATOM     30  C   UNL     1      35.706 -21.047 -18.404  0.00  0.00    +0.004 C 
ATOM     31  C   UNL     1      33.251 -20.228 -19.821  0.00  0.00    +0.000 C 
ATOM     32  C   UNL     1      35.770 -20.355 -19.763  0.00  0.00    +0.000 C 
ATOM     33  C   UNL     1      34.557 -19.460 -19.997  0.00  0.00    +0.000 C 
ENDBRANCH  27  28
ENDBRANCH  26  27
ENDBRANCH   6  26
TORSDOF 6
ENDMDL
MODEL 4
REMARK VINA RESULT:     -12.6      2.663      5.497
REMARK  Name = 447655
REMARK  6 active torsions:
REMARK  status: ('A' for Active; 'I' for Inactive)
REMARK    1  A    between atoms: N_4  and  C_14
REMARK    2  A    between atoms: C_6  and  O_26
REMARK    3  A    between atoms: C_15  and  S_20
REMARK    4  A    between atoms: S_20  and  N_23
REMARK    5  A    between atoms: O_26  and  C_27
REMARK    6  A    between atoms: C_27  and  C_28
REMARK                            x       y       z     vdW  Elec       q    Type
REMARK                         _______ _______ _______ _____ _____    ______ ____
ROOT
ATOM      1  N   UNL     1      35.338 -22.708 -15.897  0.00  0.00    -0.293 NA
ATOM      2  N   UNL     1      33.164 -21.352 -18.535  0.00  0.00    -0.266 NA
ATOM      3  N   UNL     1      36.494 -21.289 -17.509  0.00  0.00    -0.316 NA
ATOM      4  N   UNL     1      37.635 -22.284 -15.727  0.00  0.00    -0.238 N 
ATOM      5  N   UNL     1      35.047 -20.396 -19.248  0.00  0.00    -0.296 N 
ATOM      6  C   UNL     1      34.156 -22.539 -16.530  0.00  0.00    +0.288 C 
ATOM      7  C   UNL     1      34.134 -21.744 -17.657  0.00  0.00    +0.215 C 
ATOM      8  C   UNL     1      35.294 -21.138 -18.121  0.00  0.00    +0.196 C 
ATOM      9  C   UNL     1      36.419 -22.080 -16.419  0.00  0.00    +0.207 C 
ATOM     10  C   UNL     1      33.759 -20.546 -19.471  0.00  0.00    +0.164 C 
ATOM     11  H   UNL     1      32.213 -21.601 -18.502  0.00  0.00    +0.126 HD
ATOM     12  H   UNL     1      38.403 -21.815 -16.127  0.00  0.00    +0.166 HD
ATOM     13  H   UNL     1      35.691 -19.870 -19.775  0.00  0.00    +0.150 HD
ENDROOT
BRANCH   4  14
ATOM     14  C   UNL     1      37.962 -23.023 -14.576  0.00  0.00    +0.060 C 
ATOM     15  C   UNL     1      37.492 -23.663 -12.290  0.00  0.00    +0.123 C 
ATOM     16  C   UNL     1      37.167 -22.928 -13.431  0.00  0.00    +0.035 C 
ATOM     17  C   UNL     1      39.082 -23.859 -14.574  0.00  0.00    +0.015 C 
ATOM     18  C   UNL     1      38.611 -24.496 -12.292  0.00  0.00    +0.020 C 
ATOM     19  C   UNL     1      39.406 -24.593 -13.434  0.00  0.00    +0.003 C 
BRANCH  15  20
ATOM     20  S   UNL     1      36.497 -23.542 -10.861  0.00  0.00    +0.057 S 
ATOM     21  O   UNL     1      36.212 -24.888 -10.384  0.00  0.00    -0.153 OA
ATOM     22  O   UNL     1      37.098 -22.567  -9.961  0.00  0.00    -0.153 OA
BRANCH  20  23
ATOM     23  N   UNL     1      35.066 -22.874 -11.515  0.00  0.00    -0.203 NA
ATOM     24  H   UNL     1      35.204 -22.682 -12.507  0.00  0.00    +0.144 HD
ATOM     25  H   UNL     1      34.844 -22.005 -11.028  0.00  0.00    +0.144 HD
ENDBRANCH  20  23
ENDBRANCH  15  20
ENDBRANCH   4  14
BRANCH   6  26
ATOM     26  O   UNL     1      33.040 -23.162 -16.027  0.00  0.00    -0.453 OA
BRANCH  26  27
ATOM     27  C   UNL     1      32.639 -22.804 -14.719  0.00  0.00    +0.208 C 
BRANCH  27  28
ATOM     28  C   UNL     1      31.113 -22.838 -14.654  0.00  0.00    +0.044 C 
ATOM     29  C   UNL     1      30.503 -22.188 -15.904  0.00  0.00    +0.004 C 
ATOM     30  C   UNL     1      30.610 -24.278 -14.488  0.00  0.00    +0.004 C 
ATOM     31  C   UNL     1      28.978 -22.257 -15.888  0.00  0.00    +0.000 C 
ATOM     32  C   UNL     1      29.084 -24.343 -14.474  0.00  0.00    +0.000 C 
ATOM     33  C   UNL     1      28.481 -23.689 -15.713  0.00  0.00    +0.000 C 
ENDBRANCH  27  28
ENDBRANCH  26  27
ENDBRANCH   6  26
TORSDOF 6
ENDMDL
MODEL 5
REMARK VINA RESULT:     -12.0      2.124      5.183
REMARK  Name = 447655
REMARK  6 active torsions:
REMARK  status: ('A' for Active; 'I' for Inactive)
REMARK    1  A    between atoms: N_4  and  C_14
REMARK    2  A    between atoms: C_6  and  O_26
REMARK    3  A    between atoms: C_15  and  S_20
REMARK    4  A    between atoms: S_20  and  N_23
REMARK    5  A    between atoms: O_26  and  C_27
REMARK    6  A    between atoms: C_27  and  C_28
REMARK                            x       y       z     vdW  Elec       q    Type
REMARK                         _______ _______ _______ _____ _____    ______ ____
ROOT
ATOM      1  N   UNL     1      35.241 -21.572 -17.414  0.00  0.00    -0.293 NA
ATOM      2  N   UNL     1      33.815 -19.923 -20.376  0.00  0.00    -0.266 NA
ATOM      3  N   UNL     1      36.812 -20.142 -18.612  0.00  0.00    -0.316 NA
ATOM      4  N   UNL     1      37.453 -21.312 -16.691  0.00  0.00    -0.238 N 
ATOM      5  N   UNL     1      35.859 -19.056 -20.567  0.00  0.00    -0.296 N 
ATOM      6  C   UNL     1      34.249 -21.288 -18.288  0.00  0.00    +0.288 C 
ATOM      7  C   UNL     1      34.532 -20.429 -19.330  0.00  0.00    +0.215 C 
ATOM      8  C   UNL     1      35.798 -19.876 -19.470  0.00  0.00    +0.196 C 
ATOM      9  C   UNL     1      36.444 -20.989 -17.627  0.00  0.00    +0.207 C 
ATOM     10  C   UNL     1      34.652 -19.106 -21.090  0.00  0.00    +0.164 C 
ATOM     11  H   UNL     1      32.871 -20.110 -20.580  0.00  0.00    +0.126 HD
ATOM     12  H   UNL     1      38.316 -20.873 -16.869  0.00  0.00    +0.166 HD
ATOM     13  H   UNL     1      36.634 -18.543 -20.893  0.00  0.00    +0.150 HD
ENDROOT
BRANCH   4  14
ATOM     14  C   UNL     1      37.463 -22.138 -15.552  0.00  0.00    +0.060 C 
ATOM     15  C   UNL     1      38.509 -23.871 -14.227  0.00  0.00    +0.123 C 
ATOM     16  C   UNL     1      38.499 -23.053 -15.358  0.00  0.00    +0.035 C 
ATOM     17  C   UNL     1      36.436 -22.042 -14.608  0.00  0.00    +0.015 C 
ATOM     18  C   UNL     1      37.483 -23.774 -13.288  0.00  0.00    +0.020 C 
ATOM     19  C   UNL     1      36.446 -22.860 -13.479  0.00  0.00    +0.003 C 
BRANCH  15  20
ATOM     20  S   UNL     1      39.806 -25.015 -13.987  0.00  0.00    +0.057 S 
ATOM     21  O   UNL     1      40.794 -24.409 -13.107  0.00  0.00    -0.153 OA
ATOM     22  O   UNL     1      39.226 -26.306 -13.645  0.00  0.00    -0.153 OA
BRANCH  20  23
ATOM     23  N   UNL     1      40.456 -25.107 -15.565  0.00  0.00    -0.203 NA
ATOM     24  H   UNL     1      41.447 -25.341 -15.511  0.00  0.00    +0.144 HD
ATOM     25  H   UNL     1      40.343 -24.207 -16.032  0.00  0.00    +0.144 HD
ENDBRANCH  20  23
ENDBRANCH  15  20
ENDBRANCH   4  14
BRANCH   6  26
ATOM     26  O   UNL     1      33.016 -21.864 -18.101  0.00  0.00    -0.453 OA
BRANCH  26  27
ATOM     27  C   UNL     1      32.937 -22.923 -17.166  0.00  0.00    +0.208 C 
BRANCH  27  28
ATOM     28  C   UNL     1      32.213 -22.417 -15.920  0.00  0.00    +0.044 C 
ATOM     29  C   UNL     1      30.732 -22.818 -15.952  0.00  0.00    +0.004 C 
ATOM     30  C   UNL     1      32.893 -22.940 -14.648  0.00  0.00    +0.004 C 
ATOM     31  C   UNL     1      29.999 -22.368 -14.691  0.00  0.00    +0.000 C 
ATOM     32  C   UNL     1      32.156 -22.489 -13.389  0.00  0.00    +0.000 C 
ATOM     33  C   UNL     1      30.683 -22.883 -13.428  0.00  0.00    +0.000 C 
ENDBRANCH  27  28
ENDBRANCH  26  27
ENDBRANCH   6  26
TORSDOF 6
ENDMDL
MODEL 6
REMARK VINA RESULT:     -11.4      3.396      7.229
REMARK  Name = 447655
REMARK  6 active torsions:
REMARK  status: ('A' for Active; 'I' for Inactive)
REMARK    1  A    between atoms: N_4  and  C_14
REMARK    2  A    between atoms: C_6  and  O_26
REMARK    3  A    between atoms: C_15  and  S_20
REMARK    4  A    between atoms: S_20  and  N_23
REMARK    5  A    between atoms: O_26  and  C_27
REMARK    6  A    between atoms: C_27  and  C_28
REMARK                            x       y       z     vdW  Elec       q    Type
REMARK                         _______ _______ _______ _____ _____    ______ ____
ROOT
ATOM      1  N   UNL     1      35.221 -22.762 -15.535  0.00  0.00    -0.293 NA
ATOM      2  N   UNL     1      36.135 -24.634 -12.505  0.00  0.00    -0.266 NA
ATOM      3  N   UNL     1      37.602 -22.706 -15.009  0.00  0.00    -0.316 NA
ATOM      4  N   UNL     1      36.743 -21.599 -16.882  0.00  0.00    -0.238 N 
ATOM      5  N   UNL     1      38.196 -23.947 -13.005  0.00  0.00    -0.296 N 
ATOM      6  C   UNL     1      34.957 -23.531 -14.456  0.00  0.00    +0.288 C 
ATOM      7  C   UNL     1      36.012 -23.892 -13.644  0.00  0.00    +0.215 C 
ATOM      8  C   UNL     1      37.305 -23.476 -13.935  0.00  0.00    +0.196 C 
ATOM      9  C   UNL     1      36.510 -22.403 -15.743  0.00  0.00    +0.207 C 
ATOM     10  C   UNL     1      37.462 -24.638 -12.159  0.00  0.00    +0.164 C 
ATOM     11  H   UNL     1      35.406 -25.084 -12.020  0.00  0.00    +0.126 HD
ATOM     12  H   UNL     1      37.688 -21.354 -17.009  0.00  0.00    +0.166 HD
ATOM     13  H   UNL     1      39.169 -23.799 -12.974  0.00  0.00    +0.150 HD
ENDROOT
BRANCH   4  14
ATOM     14  C   UNL     1      35.888 -21.083 -17.873  0.00  0.00    +0.060 C 
ATOM     15  C   UNL     1      35.508 -19.619 -19.761  0.00  0.00    +0.123 C 
ATOM     16  C   UNL     1      36.357 -20.130 -18.779  0.00  0.00    +0.035 C 
ATOM     17  C   UNL     1      34.564 -21.524 -17.954  0.00  0.00    +0.015 C 
ATOM     18  C   UNL     1      34.187 -20.062 -19.840  0.00  0.00    +0.020 C 
ATOM     19  C   UNL     1      33.716 -21.014 -18.936  0.00  0.00    +0.003 C 
BRANCH  15  20
ATOM     20  S   UNL     1      36.098 -18.429 -20.893  0.00  0.00    +0.057 S 
ATOM     21  O   UNL     1      37.553 -18.429 -20.843  0.00  0.00    -0.153 OA
ATOM     22  O   UNL     1      35.418 -18.625 -22.166  0.00  0.00    -0.153 OA
BRANCH  20  23
ATOM     23  N   UNL     1      35.521 -16.987 -20.180  0.00  0.00    -0.203 NA
ATOM     24  H   UNL     1      35.753 -16.983 -19.187  0.00  0.00    +0.144 HD
ATOM     25  H   UNL     1      34.509 -16.934 -20.293  0.00  0.00    +0.144 HD
ENDBRANCH  20  23
ENDBRANCH  15  20
ENDBRANCH   4  14
BRANCH   6  26
ATOM     26  O   UNL     1      33.659 -23.913 -14.216  0.00  0.00    -0.453 OA
BRANCH  26  27
ATOM     27  C   UNL     1      32.920 -23.136 -13.294  0.00  0.00    +0.208 C 
BRANCH  27  28
ATOM     28  C   UNL     1      31.461 -23.104 -13.748  0.00  0.00    +0.044 C 
ATOM     29  C   UNL     1      31.337 -22.454 -15.132  0.00  0.00    +0.004 C 
ATOM     30  C   UNL     1      30.865 -24.519 -13.754  0.00  0.00    +0.004 C 
ATOM     31  C   UNL     1      29.894 -22.458 -15.630  0.00  0.00    +0.000 C 
ATOM     32  C   UNL     1      29.423 -24.520 -14.255  0.00  0.00    +0.000 C 
ATOM     33  C   UNL     1      29.303 -23.865 -15.627  0.00  0.00    +0.000 C 
ENDBRANCH  27  28
ENDBRANCH  26  27
ENDBRANCH   6  26
TORSDOF 6
ENDMDL
MODEL 7
REMARK VINA RESULT:     -10.9      6.567      9.592
REMARK  Name = 447655
REMARK  6 active torsions:
REMARK  status: ('A' for Active; 'I' for Inactive)
REMARK    1  A    between atoms: N_4  and  C_14
REMARK    2  A    between atoms: C_6  and  O_26
REMARK    3  A    between atoms: C_15  and  S_20
REMARK    4  A    between atoms: S_20  and  N_23
REMARK    5  A    between atoms: O_26  and  C_27
REMARK    6  A    between atoms: C_27  and  C_28
REMARK                            x       y       z     vdW  Elec       q    Type
REMARK                         _______ _______ _______ _____ _____    ______ ____
ROOT
ATOM      1  N   UNL     1      34.976 -16.075 -21.761  0.00  0.00    -0.293 NA
ATOM      2  N   UNL     1      33.921 -13.302 -23.935  0.00  0.00    -0.266 NA
ATOM      3  N   UNL     1      34.649 -16.705 -24.095  0.00  0.00    -0.316 NA
ATOM      4  N   UNL     1      35.320 -18.272 -22.493  0.00  0.00    -0.238 N 
ATOM      5  N   UNL     1      33.953 -14.865 -25.523  0.00  0.00    -0.296 N 
ATOM      6  C   UNL     1      34.639 -14.791 -22.016  0.00  0.00    +0.288 C 
ATOM      7  C   UNL     1      34.304 -14.455 -23.312  0.00  0.00    +0.215 C 
ATOM      8  C   UNL     1      34.316 -15.411 -24.318  0.00  0.00    +0.196 C 
ATOM      9  C   UNL     1      34.961 -16.940 -22.803  0.00  0.00    +0.207 C 
ATOM     10  C   UNL     1      33.722 -13.596 -25.258  0.00  0.00    +0.164 C 
ATOM     11  H   UNL     1      33.809 -12.420 -23.511  0.00  0.00    +0.126 HD
ATOM     12  H   UNL     1      35.302 -18.878 -23.269  0.00  0.00    +0.166 HD
ATOM     13  H   UNL     1      33.880 -15.320 -26.393  0.00  0.00    +0.150 HD
ENDROOT
BRANCH   4  14
ATOM     14  C   UNL     1      35.701 -18.900 -21.293  0.00  0.00    +0.060 C 
ATOM     15  C   UNL     1      35.213 -20.418 -19.474  0.00  0.00    +0.123 C 
ATOM     16  C   UNL     1      34.834 -19.796 -20.664  0.00  0.00    +0.035 C 
ATOM     17  C   UNL     1      36.950 -18.630 -20.727  0.00  0.00    +0.015 C 
ATOM     18  C   UNL     1      36.460 -20.147 -18.911  0.00  0.00    +0.020 C 
ATOM     19  C   UNL     1      37.328 -19.252 -19.538  0.00  0.00    +0.003 C 
BRANCH  15  20
ATOM     20  S   UNL     1      34.127 -21.538 -18.690  0.00  0.00    +0.057 S 
ATOM     21  O   UNL     1      32.879 -20.844 -18.405  0.00  0.00    -0.153 OA
ATOM     22  O   UNL     1      34.109 -22.776 -19.456  0.00  0.00    -0.153 OA
BRANCH  20  23
ATOM     23  N   UNL     1      34.952 -21.815 -17.219  0.00  0.00    -0.203 NA
ATOM     24  H   UNL     1      34.592 -21.183 -16.504  0.00  0.00    +0.144 HD
ATOM     25  H   UNL     1      35.949 -21.647 -17.352  0.00  0.00    +0.144 HD
ENDBRANCH  20  23
ENDBRANCH  15  20
ENDBRANCH   4  14
BRANCH   6  26
ATOM     26  O   UNL     1      34.643 -13.887 -20.982  0.00  0.00    -0.453 OA
BRANCH  26  27
ATOM     27  C   UNL     1      33.516 -13.883 -20.126  0.00  0.00    +0.208 C 
BRANCH  27  28
ATOM     28  C   UNL     1      32.965 -12.460 -20.059  0.00  0.00    +0.044 C 
ATOM     29  C   UNL     1      32.177 -12.123 -21.332  0.00  0.00    +0.004 C 
ATOM     30  C   UNL     1      32.090 -12.277 -18.811  0.00  0.00    +0.004 C 
ATOM     31  C   UNL     1      31.570 -10.724 -21.266  0.00  0.00    +0.000 C 
ATOM     32  C   UNL     1      31.483 -10.877 -18.750  0.00  0.00    +0.000 C 
ATOM     33  C   UNL     1      30.709 -10.543 -20.020  0.00  0.00    +0.000 C 
ENDBRANCH  27  28
ENDBRANCH  26  27
ENDBRANCH   6  26
TORSDOF 6
ENDMDL
MODEL 8
REMARK VINA RESULT:     -10.8      2.023      2.460
REMARK  Name = 447655
REMARK  6 active torsions:
REMARK  status: ('A' for Active; 'I' for Inactive)
REMARK    1  A    between atoms: N_4  and  C_14
REMARK    2  A    between atoms: C_6  and  O_26
REMARK    3  A    between atoms: C_15  and  S_20
REMARK    4  A    between atoms: S_20  and  N_23
REMARK    5  A    between atoms: O_26  and  C_27
REMARK    6  A    between atoms: C_27  and  C_28
REMARK                            x       y       z     vdW  Elec       q    Type
REMARK                         _______ _______ _______ _____ _____    ______ ____
ROOT
ATOM      1  N   UNL     1      32.746 -22.769 -15.033  0.00  0.00    -0.293 NA
ATOM      2  N   UNL     1      29.417 -22.764 -16.598  0.00  0.00    -0.266 NA
ATOM      3  N   UNL     1      31.040 -23.950 -13.751  0.00  0.00    -0.316 NA
ATOM      4  N   UNL     1      33.246 -23.797 -12.989  0.00  0.00    -0.238 N 
ATOM      5  N   UNL     1      28.844 -23.942 -14.795  0.00  0.00    -0.296 N 
ATOM      6  C   UNL     1      31.859 -22.454 -16.004  0.00  0.00    +0.288 C 
ATOM      7  C   UNL     1      30.557 -22.884 -15.855  0.00  0.00    +0.215 C 
ATOM      8  C   UNL     1      30.175 -23.618 -14.741  0.00  0.00    +0.196 C 
ATOM      9  C   UNL     1      32.287 -23.488 -13.982  0.00  0.00    +0.207 C 
ATOM     10  C   UNL     1      28.417 -23.414 -15.922  0.00  0.00    +0.164 C 
ATOM     11  H   UNL     1      29.330 -22.298 -17.460  0.00  0.00    +0.126 HD
ATOM     12  H   UNL     1      32.885 -24.320 -12.238  0.00  0.00    +0.166 HD
ATOM     13  H   UNL     1      28.321 -24.454 -14.135  0.00  0.00    +0.150 HD
ENDROOT
BRANCH   4  14
ATOM     14  C   UNL     1      34.616 -23.502 -12.867  0.00  0.00    +0.060 C 
ATOM     15  C   UNL     1      36.695 -22.752 -13.850  0.00  0.00    +0.123 C 
ATOM     16  C   UNL     1      35.337 -23.045 -13.972  0.00  0.00    +0.035 C 
ATOM     17  C   UNL     1      35.261 -23.664 -11.638  0.00  0.00    +0.015 C 
ATOM     18  C   UNL     1      37.336 -22.915 -12.622  0.00  0.00    +0.020 C 
ATOM     19  C   UNL     1      36.618 -23.371 -11.516  0.00  0.00    +0.003 C 
BRANCH  15  20
ATOM     20  S   UNL     1      37.594 -22.181 -15.234  0.00  0.00    +0.057 S 
ATOM     21  O   UNL     1      36.795 -22.414 -16.428  0.00  0.00    -0.153 OA
ATOM     22  O   UNL     1      38.087 -20.842 -14.943  0.00  0.00    -0.153 OA
BRANCH  20  23
ATOM     23  N   UNL     1      38.916 -23.264 -15.234  0.00  0.00    -0.203 NA
ATOM     24  H   UNL     1      39.677 -22.870 -15.788  0.00  0.00    +0.144 HD
ATOM     25  H   UNL     1      38.626 -24.154 -15.639  0.00  0.00    +0.144 HD
ENDBRANCH  20  23
ENDBRANCH  15  20
ENDBRANCH   4  14
BRANCH   6  26
ATOM     26  O   UNL     1      32.292 -21.725 -17.085  0.00  0.00    -0.453 OA
BRANCH  26  27
ATOM     27  C   UNL     1      33.484 -22.154 -17.714  0.00  0.00    +0.208 C 
BRANCH  27  28
ATOM     28  C   UNL     1      34.134 -20.949 -18.392  0.00  0.00    +0.044 C 
ATOM     29  C   UNL     1      35.506 -21.325 -18.968  0.00  0.00    +0.004 C 
ATOM     30  C   UNL     1      33.219 -20.385 -19.488  0.00  0.00    +0.004 C 
ATOM     31  C   UNL     1      36.153 -20.151 -19.697  0.00  0.00    +0.000 C 
ATOM     32  C   UNL     1      33.870 -19.212 -20.216  0.00  0.00    +0.000 C 
ATOM     33  C   UNL     1      35.238 -19.587 -20.779  0.00  0.00    +0.000 C 
ENDBRANCH  27  28
ENDBRANCH  26  27
ENDBRANCH   6  26
TORSDOF 6
ENDMDL
MODEL 9
REMARK VINA RESULT:     -10.5      2.275      5.266
REMARK  Name = 447655
REMARK  6 active torsions:
REMARK  status: ('A' for Active; 'I' for Inactive)
REMARK    1  A    between atoms: N_4  and  C_14
REMARK    2  A    between atoms: C_6  and  O_26
REMARK    3  A    between atoms: C_15  and  S_20
REMARK    4  A    between atoms: S_20  and  N_23
REMARK    5  A    between atoms: O_26  and  C_27
REMARK    6  A    between atoms: C_27  and  C_28
REMARK                            x       y       z     vdW  Elec       q    Type
REMARK                         _______ _______ _______ _____ _____    ______ ____
ROOT
ATOM      1  N   UNL     1      34.961 -22.051 -16.578  0.00  0.00    -0.293 NA
ATOM      2  N   UNL     1      33.170 -20.727 -19.505  0.00  0.00    -0.266 NA
ATOM      3  N   UNL     1      36.337 -20.682 -18.055  0.00  0.00    -0.316 NA
ATOM      4  N   UNL     1      37.222 -21.651 -16.118  0.00  0.00    -0.238 N 
ATOM      5  N   UNL     1      35.144 -19.811 -19.985  0.00  0.00    -0.296 N 
ATOM      6  C   UNL     1      33.874 -21.881 -17.364  0.00  0.00    +0.288 C 
ATOM      7  C   UNL     1      34.011 -21.111 -18.500  0.00  0.00    +0.215 C 
ATOM      8  C   UNL     1      35.230 -20.530 -18.821  0.00  0.00    +0.196 C 
ATOM      9  C   UNL     1      36.110 -21.448 -16.967  0.00  0.00    +0.207 C 
ATOM     10  C   UNL     1      33.893 -19.949 -20.371  0.00  0.00    +0.164 C 
ATOM     11  H   UNL     1      32.218 -20.963 -19.591  0.00  0.00    +0.126 HD
ATOM     12  H   UNL     1      38.042 -21.201 -16.425  0.00  0.00    +0.166 HD
ATOM     13  H   UNL     1      35.859 -19.304 -20.435  0.00  0.00    +0.150 HD
ENDROOT
BRANCH   4  14
ATOM     14  C   UNL     1      37.384 -22.369 -14.920  0.00  0.00    +0.060 C 
ATOM     15  C   UNL     1      37.612 -24.475 -13.751  0.00  0.00    +0.123 C 
ATOM     16  C   UNL     1      37.450 -23.763 -14.940  0.00  0.00    +0.035 C 
ATOM     17  C   UNL     1      37.483 -21.688 -13.703  0.00  0.00    +0.015 C 
ATOM     18  C   UNL     1      37.710 -23.792 -12.538  0.00  0.00    +0.020 C 
ATOM     19  C   UNL     1      37.645 -22.399 -12.515  0.00  0.00    +0.003 C 
BRANCH  15  20
ATOM     20  S   UNL     1      37.695 -26.218 -13.779  0.00  0.00    +0.057 S 
ATOM     21  O   UNL     1      36.707 -26.709 -14.730  0.00  0.00    -0.153 OA
ATOM     22  O   UNL     1      39.090 -26.612 -13.917  0.00  0.00    -0.153 OA
BRANCH  20  23
ATOM     23  N   UNL     1      37.173 -26.595 -12.196  0.00  0.00    -0.203 NA
ATOM     24  H   UNL     1      36.720 -27.510 -12.197  0.00  0.00    +0.144 HD
ATOM     25  H   UNL     1      36.509 -25.888 -11.881  0.00  0.00    +0.144 HD
ENDBRANCH  20  23
ENDBRANCH  15  20
ENDBRANCH   4  14
BRANCH   6  26
ATOM     26  O   UNL     1      32.693 -22.479 -16.998  0.00  0.00    -0.453 OA
BRANCH  26  27
ATOM     27  C   UNL     1      32.611 -22.988 -15.680  0.00  0.00    +0.208 C 
BRANCH  27  28
ATOM     28  C   UNL     1      31.160 -22.886 -15.212  0.00  0.00    +0.044 C 
ATOM     29  C   UNL     1      30.327 -22.061 -16.202  0.00  0.00    +0.004 C 
ATOM     30  C   UNL     1      30.554 -24.282 -15.019  0.00  0.00    +0.004 C 
ATOM     31  C   UNL     1      28.861 -21.989 -15.783  0.00  0.00    +0.000 C 
ATOM     32  C   UNL     1      29.087 -24.207 -14.602  0.00  0.00    +0.000 C 
ATOM     33  C   UNL     1      28.264 -23.379 -15.584  0.00  0.00    +0.000 C 
ENDBRANCH  27  28
ENDBRANCH  26  27
ENDBRANCH   6  26
TORSDOF 6
ENDMDL
