MODEL 1
REMARK VINA RESULT:     -12.4      0.000      0.000
REMARK  Name = 24996872
REMARK  6 active torsions:
REMARK  status: ('A' for Active; 'I' for Inactive)
REMARK    1  A    between atoms: O_1  and  C_3
REMARK    2  A    between atoms: O_1  and  C_18
REMARK    3  A    between atoms: C_7  and  C_8
REMARK    4  A    between atoms: C_11  and  S_14
REMARK    5  A    between atoms: C_18  and  C_23
REMARK    6  A    between atoms: C_29  and  C_30
REMARK                            x       y       z     vdW  Elec       q    Type
REMARK                         _______ _______ _______ _____ _____    ______ ____
ROOT
ATOM      1  O   UNL     1      34.943 -18.284 -21.820  0.00  0.00    -0.474 OA
ENDROOT
BRANCH   1   3
ATOM      2  N   UNL     1      36.648 -19.891 -19.006  0.00  0.00    -0.241 NA
ATOM      3  C   UNL     1      35.138 -19.051 -20.697  0.00  0.00    +0.158 C 
ATOM      4  C   UNL     1      34.086 -19.748 -20.115  0.00  0.00    +0.040 C 
ATOM      5  C   UNL     1      36.389 -19.154 -20.110  0.00  0.00    +0.136 C 
ATOM      6  C   UNL     1      34.313 -20.518 -18.979  0.00  0.00    +0.022 C 
ATOM      7  C   UNL     1      35.601 -20.555 -18.468  0.00  0.00    +0.082 C 
BRANCH   7   8
ATOM      8  C   UNL     1      35.911 -21.331 -17.292  0.00  0.00    +0.018 C 
ATOM      9  C   UNL     1      34.936 -22.146 -16.716  0.00  0.00    +0.003 C 
ATOM     10  C   UNL     1      37.186 -21.269 -16.731  0.00  0.00    +0.003 C 
ATOM     11  C   UNL     1      36.512 -22.833 -15.018  0.00  0.00    +0.106 C 
ATOM     12  C   UNL     1      35.236 -22.896 -15.579  0.00  0.00    +0.018 C 
ATOM     13  C   UNL     1      37.487 -22.019 -15.594  0.00  0.00    +0.018 C 
BRANCH  11  14
ATOM     14  S   UNL     1      36.888 -23.772 -13.596  0.00  0.00    +0.010 S 
ATOM     15  O   UNL     1      38.118 -23.244 -13.022  0.00  0.00    -0.169 OA
ATOM     16  O   UNL     1      35.693 -23.878 -12.770  0.00  0.00    -0.169 OA
ATOM     17  C   UNL     1      37.232 -25.402 -14.220  0.00  0.00    +0.182 C 
ENDBRANCH  11  14
ENDBRANCH   7   8
ENDBRANCH   1   3
BRANCH   1  18
ATOM     18  C   UNL     1      36.032 -17.488 -22.252  0.00  0.00    +0.205 C 
BRANCH  18  23
ATOM     19  O   UNL     1      32.363 -12.243 -22.039  0.00  0.00    -0.296 OA
ATOM     20  N   UNL     1      33.904 -13.858 -21.331  0.00  0.00    -0.251 N 
ATOM     21  N   UNL     1      32.883 -12.181 -19.861  0.00  0.00    -0.300 NA
ATOM     22  N   UNL     1      31.620 -11.189 -21.490  0.00  0.00    -0.010 NA
ATOM     23  C   UNL     1      35.724 -16.029 -21.927  0.00  0.00    +0.047 C 
ATOM     24  C   UNL     1      35.034 -15.908 -20.564  0.00  0.00    +0.025 C 
ATOM     25  C   UNL     1      34.836 -15.404 -23.006  0.00  0.00    +0.025 C 
ATOM     26  C   UNL     1      34.686 -14.455 -20.240  0.00  0.00    +0.096 C 
ATOM     27  C   UNL     1      34.482 -13.953 -22.676  0.00  0.00    +0.096 C 
ATOM     28  C   UNL     1      33.077 -12.773 -21.013  0.00  0.00    +0.379 C 
ATOM     29  C   UNL     1      31.981 -11.217 -20.204  0.00  0.00    +0.104 C 
BRANCH  29  30
ATOM     30  C   UNL     1      31.440 -10.269 -19.225  0.00  0.00    +0.101 C 
ATOM     31  C   UNL     1      31.526 -10.780 -17.764  0.00  0.00    +0.017 C 
ATOM     32  C   UNL     1      32.092  -8.865 -19.303  0.00  0.00    +0.017 C 
ENDBRANCH  29  30
ENDBRANCH  18  23
ENDBRANCH   1  18
TORSDOF 6
ENDMDL
MODEL 2
REMARK VINA RESULT:     -12.4      4.298     11.454
REMARK  Name = 24996872
REMARK  6 active torsions:
REMARK  status: ('A' for Active; 'I' for Inactive)
REMARK    1  A    between atoms: O_1  and  C_3
REMARK    2  A    between atoms: O_1  and  C_18
REMARK    3  A    between atoms: C_7  and  C_8
REMARK    4  A    between atoms: C_11  and  S_14
REMARK    5  A    between atoms: C_18  and  C_23
REMARK    6  A    between atoms: C_29  and  C_30
REMARK                            x       y       z     vdW  Elec       q    Type
REMARK                         _______ _______ _______ _____ _____    ______ ____
ROOT
ATOM      1  O   UNL     1      35.556 -17.659 -22.651  0.00  0.00    -0.474 OA
ENDROOT
BRANCH   1   3
ATOM      2  N   UNL     1      34.748 -14.244 -21.607  0.00  0.00    -0.241 NA
ATOM      3  C   UNL     1      35.134 -16.354 -22.723  0.00  0.00    +0.158 C 
ATOM      4  C   UNL     1      34.677 -15.814 -23.919  0.00  0.00    +0.040 C 
ATOM      5  C   UNL     1      35.149 -15.535 -21.605  0.00  0.00    +0.136 C 
ATOM      6  C   UNL     1      34.254 -14.489 -23.961  0.00  0.00    +0.022 C 
ATOM      7  C   UNL     1      34.310 -13.754 -22.788  0.00  0.00    +0.082 C 
BRANCH   7   8
ATOM      8  C   UNL     1      33.889 -12.374 -22.757  0.00  0.00    +0.018 C 
ATOM      9  C   UNL     1      34.373 -11.474 -23.708  0.00  0.00    +0.003 C 
ATOM     10  C   UNL     1      32.997 -11.939 -21.777  0.00  0.00    +0.003 C 
ATOM     11  C   UNL     1      33.073  -9.706 -22.696  0.00  0.00    +0.106 C 
ATOM     12  C   UNL     1      33.965 -10.141 -23.676  0.00  0.00    +0.018 C 
ATOM     13  C   UNL     1      32.590 -10.605 -21.746  0.00  0.00    +0.018 C 
BRANCH  11  14
ATOM     14  S   UNL     1      32.563  -8.037 -22.658  0.00  0.00    +0.010 S 
ATOM     15  O   UNL     1      33.137  -7.366 -23.817  0.00  0.00    -0.169 OA
ATOM     16  O   UNL     1      31.125  -7.987 -22.433  0.00  0.00    -0.169 OA
ATOM     17  C   UNL     1      33.338  -7.371 -21.202  0.00  0.00    +0.182 C 
ENDBRANCH  11  14
ENDBRANCH   7   8
ENDBRANCH   1   3
BRANCH   1  18
ATOM     18  C   UNL     1      36.237 -18.051 -21.473  0.00  0.00    +0.205 C 
BRANCH  18  23
ATOM     19  O   UNL     1      34.683 -22.216 -16.863  0.00  0.00    -0.296 OA
ATOM     20  N   UNL     1      34.413 -20.822 -18.725  0.00  0.00    -0.251 N 
ATOM     21  N   UNL     1      32.562 -21.829 -17.471  0.00  0.00    -0.300 NA
ATOM     22  N   UNL     1      33.882 -22.924 -15.957  0.00  0.00    -0.010 NA
ATOM     23  C   UNL     1      35.546 -19.287 -20.903  0.00  0.00    +0.047 C 
ATOM     24  C   UNL     1      34.199 -18.917 -20.272  0.00  0.00    +0.025 C 
ATOM     25  C   UNL     1      36.429 -19.972 -19.855  0.00  0.00    +0.025 C 
ATOM     26  C   UNL     1      33.512 -20.138 -19.663  0.00  0.00    +0.096 C 
ATOM     27  C   UNL     1      35.736 -21.189 -19.242  0.00  0.00    +0.096 C 
ATOM     28  C   UNL     1      33.827 -21.600 -17.719  0.00  0.00    +0.379 C 
ATOM     29  C   UNL     1      32.646 -22.645 -16.381  0.00  0.00    +0.104 C 
BRANCH  29  30
ATOM     30  C   UNL     1      31.456 -23.185 -15.715  0.00  0.00    +0.101 C 
ATOM     31  C   UNL     1      31.662 -23.432 -14.198  0.00  0.00    +0.017 C 
ATOM     32  C   UNL     1      30.192 -22.310 -15.911  0.00  0.00    +0.017 C 
ENDBRANCH  29  30
ENDBRANCH  18  23
ENDBRANCH   1  18
TORSDOF 6
ENDMDL
MODEL 3
REMARK VINA RESULT:     -12.3      2.495      3.368
REMARK  Name = 24996872
REMARK  6 active torsions:
REMARK  status: ('A' for Active; 'I' for Inactive)
REMARK    1  A    between atoms: O_1  and  C_3
REMARK    2  A    between atoms: O_1  and  C_18
REMARK    3  A    between atoms: C_7  and  C_8
REMARK    4  A    between atoms: C_11  and  S_14
REMARK    5  A    between atoms: C_18  and  C_23
REMARK    6  A    between atoms: C_29  and  C_30
REMARK                            x       y       z     vdW  Elec       q    Type
REMARK                         _______ _______ _______ _____ _____    ______ ____
ROOT
ATOM      1  O   UNL     1      35.476 -19.870 -20.429  0.00  0.00    -0.474 OA
ENDROOT
BRANCH   1   3
ATOM      2  N   UNL     1      36.933 -21.001 -17.267  0.00  0.00    -0.241 NA
ATOM      3  C   UNL     1      35.581 -20.476 -19.201  0.00  0.00    +0.158 C 
ATOM      4  C   UNL     1      34.505 -21.157 -18.644  0.00  0.00    +0.040 C 
ATOM      5  C   UNL     1      36.763 -20.427 -18.479  0.00  0.00    +0.136 C 
ATOM      6  C   UNL     1      34.642 -21.762 -17.399  0.00  0.00    +0.022 C 
ATOM      7  C   UNL     1      35.865 -21.655 -16.757  0.00  0.00    +0.082 C 
BRANCH   7   8
ATOM      8  C   UNL     1      36.079 -22.257 -15.463  0.00  0.00    +0.018 C 
ATOM      9  C   UNL     1      37.377 -22.431 -14.980  0.00  0.00    +0.003 C 
ATOM     10  C   UNL     1      34.989 -22.663 -14.693  0.00  0.00    +0.003 C 
ATOM     11  C   UNL     1      36.493 -23.419 -12.960  0.00  0.00    +0.106 C 
ATOM     12  C   UNL     1      37.583 -23.013 -13.729  0.00  0.00    +0.018 C 
ATOM     13  C   UNL     1      35.195 -23.245 -13.442  0.00  0.00    +0.018 C 
BRANCH  11  14
ATOM     14  S   UNL     1      36.751 -24.146 -11.395  0.00  0.00    +0.010 S 
ATOM     15  O   UNL     1      37.723 -23.333 -10.676  0.00  0.00    -0.169 OA
ATOM     16  O   UNL     1      35.459 -24.432 -10.786  0.00  0.00    -0.169 OA
ATOM     17  C   UNL     1      37.511 -25.714 -11.755  0.00  0.00    +0.182 C 
ENDBRANCH  11  14
ENDBRANCH   7   8
ENDBRANCH   1   3
BRANCH   1  18
ATOM     18  C   UNL     1      36.272 -18.719 -20.649  0.00  0.00    +0.205 C 
BRANCH  18  23
ATOM     19  O   UNL     1      34.656 -12.626 -21.778  0.00  0.00    -0.296 OA
ATOM     20  N   UNL     1      34.924 -14.920 -22.166  0.00  0.00    -0.251 N 
ATOM     21  N   UNL     1      34.377 -13.277 -23.903  0.00  0.00    -0.300 NA
ATOM     22  N   UNL     1      34.359 -11.466 -22.506  0.00  0.00    -0.010 NA
ATOM     23  C   UNL     1      35.373 -17.602 -21.175  0.00  0.00    +0.047 C 
ATOM     24  C   UNL     1      35.792 -17.186 -22.589  0.00  0.00    +0.025 C 
ATOM     25  C   UNL     1      35.420 -16.383 -20.248  0.00  0.00    +0.025 C 
ATOM     26  C   UNL     1      34.926 -16.042 -23.114  0.00  0.00    +0.096 C 
ATOM     27  C   UNL     1      34.559 -15.237 -20.781  0.00  0.00    +0.096 C 
ATOM     28  C   UNL     1      34.647 -13.645 -22.676  0.00  0.00    +0.379 C 
ATOM     29  C   UNL     1      34.208 -11.932 -23.749  0.00  0.00    +0.104 C 
BRANCH  29  30
ATOM     30  C   UNL     1      33.882 -11.051 -24.875  0.00  0.00    +0.101 C 
ATOM     31  C   UNL     1      34.870  -9.866 -25.032  0.00  0.00    +0.017 C 
ATOM     32  C   UNL     1      33.778 -11.797 -26.229  0.00  0.00    +0.017 C 
ENDBRANCH  29  30
ENDBRANCH  18  23
ENDBRANCH   1  18
TORSDOF 6
ENDMDL
MODEL 4
REMARK VINA RESULT:     -12.2      2.132      2.744
REMARK  Name = 24996872
REMARK  6 active torsions:
REMARK  status: ('A' for Active; 'I' for Inactive)
REMARK    1  A    between atoms: O_1  and  C_3
REMARK    2  A    between atoms: O_1  and  C_18
REMARK    3  A    between atoms: C_7  and  C_8
REMARK    4  A    between atoms: C_11  and  S_14
REMARK    5  A    between atoms: C_18  and  C_23
REMARK    6  A    between atoms: C_29  and  C_30
REMARK                            x       y       z     vdW  Elec       q    Type
REMARK                         _______ _______ _______ _____ _____    ______ ____
ROOT
ATOM      1  O   UNL     1      34.137 -18.938 -21.448  0.00  0.00    -0.474 OA
ENDROOT
BRANCH   1   3
ATOM      2  N   UNL     1      36.267 -20.219 -18.760  0.00  0.00    -0.241 NA
ATOM      3  C   UNL     1      34.518 -19.616 -20.316  0.00  0.00    +0.158 C 
ATOM      4  C   UNL     1      33.602 -20.366 -19.588  0.00  0.00    +0.040 C 
ATOM      5  C   UNL     1      35.827 -19.575 -19.865  0.00  0.00    +0.136 C 
ATOM      6  C   UNL     1      34.016 -21.043 -18.446  0.00  0.00    +0.022 C 
ATOM      7  C   UNL     1      35.348 -20.937 -18.078  0.00  0.00    +0.082 C 
BRANCH   7   8
ATOM      8  C   UNL     1      35.849 -21.612 -16.904  0.00  0.00    +0.018 C 
ATOM      9  C   UNL     1      37.173 -21.424 -16.503  0.00  0.00    +0.003 C 
ATOM     10  C   UNL     1      35.011 -22.451 -16.170  0.00  0.00    +0.003 C 
ATOM     11  C   UNL     1      36.818 -22.916 -14.635  0.00  0.00    +0.106 C 
ATOM     12  C   UNL     1      37.656 -22.077 -15.370  0.00  0.00    +0.018 C 
ATOM     13  C   UNL     1      35.495 -23.103 -15.036  0.00  0.00    +0.018 C 
BRANCH  11  14
ATOM     14  S   UNL     1      37.424 -23.732 -13.217  0.00  0.00    +0.010 S 
ATOM     15  O   UNL     1      36.855 -25.073 -13.193  0.00  0.00    -0.169 OA
ATOM     16  O   UNL     1      38.868 -23.559 -13.152  0.00  0.00    -0.169 OA
ATOM     17  C   UNL     1      36.731 -22.822 -11.854  0.00  0.00    +0.182 C 
ENDBRANCH  11  14
ENDBRANCH   7   8
ENDBRANCH   1   3
BRANCH   1  18
ATOM     18  C   UNL     1      35.030 -18.966 -22.546  0.00  0.00    +0.205 C 
BRANCH  18  23
ATOM     19  O   UNL     1      33.665 -13.108 -24.745  0.00  0.00    -0.296 OA
ATOM     20  N   UNL     1      34.631 -14.763 -23.399  0.00  0.00    -0.251 N 
ATOM     21  N   UNL     1      34.645 -12.367 -22.872  0.00  0.00    -0.300 NA
ATOM     22  N   UNL     1      33.499 -11.716 -24.742  0.00  0.00    -0.010 NA
ATOM     23  C   UNL     1      35.355 -17.528 -22.943  0.00  0.00    +0.047 C 
ATOM     24  C   UNL     1      35.080 -16.567 -21.782  0.00  0.00    +0.025 C 
ATOM     25  C   UNL     1      34.537 -17.101 -24.166  0.00  0.00    +0.025 C 
ATOM     26  C   UNL     1      35.365 -15.118 -22.177  0.00  0.00    +0.096 C 
ATOM     27  C   UNL     1      34.818 -15.649 -24.552  0.00  0.00    +0.096 C 
ATOM     28  C   UNL     1      34.348 -13.407 -23.610  0.00  0.00    +0.379 C 
ATOM     29  C   UNL     1      34.103 -11.354 -23.607  0.00  0.00    +0.104 C 
BRANCH  29  30
ATOM     30  C   UNL     1      34.177  -9.953 -23.180  0.00  0.00    +0.101 C 
ATOM     31  C   UNL     1      34.915  -9.041 -24.193  0.00  0.00    +0.017 C 
ATOM     32  C   UNL     1      32.792  -9.332 -22.866  0.00  0.00    +0.017 C 
ENDBRANCH  29  30
ENDBRANCH  18  23
ENDBRANCH   1  18
TORSDOF 6
ENDMDL
MODEL 5
REMARK VINA RESULT:     -12.1      3.136      4.368
REMARK  Name = 24996872
REMARK  6 active torsions:
REMARK  status: ('A' for Active; 'I' for Inactive)
REMARK    1  A    between atoms: O_1  and  C_3
REMARK    2  A    between atoms: O_1  and  C_18
REMARK    3  A    between atoms: C_7  and  C_8
REMARK    4  A    between atoms: C_11  and  S_14
REMARK    5  A    between atoms: C_18  and  C_23
REMARK    6  A    between atoms: C_29  and  C_30
REMARK                            x       y       z     vdW  Elec       q    Type
REMARK                         _______ _______ _______ _____ _____    ______ ____
ROOT
ATOM      1  O   UNL     1      35.193 -15.484 -24.428  0.00  0.00    -0.474 OA
ENDROOT
BRANCH   1   3
ATOM      2  N   UNL     1      34.352 -18.599 -22.698  0.00  0.00    -0.241 NA
ATOM      3  C   UNL     1      35.064 -16.403 -23.416  0.00  0.00    +0.158 C 
ATOM      4  C   UNL     1      35.486 -16.110 -22.124  0.00  0.00    +0.040 C 
ATOM      5  C   UNL     1      34.508 -17.650 -23.649  0.00  0.00    +0.136 C 
ATOM      6  C   UNL     1      35.342 -17.059 -21.119  0.00  0.00    +0.022 C 
ATOM      7  C   UNL     1      34.774 -18.278 -21.455  0.00  0.00    +0.082 C 
BRANCH   7   8
ATOM      8  C   UNL     1      34.593 -19.312 -20.464  0.00  0.00    +0.018 C 
ATOM      9  C   UNL     1      35.704 -19.924 -19.883  0.00  0.00    +0.003 C 
ATOM     10  C   UNL     1      33.308 -19.698 -20.085  0.00  0.00    +0.003 C 
ATOM     11  C   UNL     1      34.243 -21.308 -18.547  0.00  0.00    +0.106 C 
ATOM     12  C   UNL     1      35.529 -20.922 -18.925  0.00  0.00    +0.018 C 
ATOM     13  C   UNL     1      33.132 -20.696 -19.127  0.00  0.00    +0.018 C 
BRANCH  11  14
ATOM     14  S   UNL     1      34.024 -22.558 -17.348  0.00  0.00    +0.010 S 
ATOM     15  O   UNL     1      33.823 -23.820 -18.047  0.00  0.00    -0.169 OA
ATOM     16  O   UNL     1      35.078 -22.445 -16.349  0.00  0.00    -0.169 OA
ATOM     17  C   UNL     1      32.497 -22.133 -16.540  0.00  0.00    +0.182 C 
ENDBRANCH  11  14
ENDBRANCH   7   8
ENDBRANCH   1   3
BRANCH   1  18
ATOM     18  C   UNL     1      34.062 -14.683 -24.719  0.00  0.00    +0.205 C 
BRANCH  18  23
ATOM     19  O   UNL     1      32.789  -8.464 -23.871  0.00  0.00    -0.296 OA
ATOM     20  N   UNL     1      33.380 -10.664 -23.327  0.00  0.00    -0.251 N 
ATOM     21  N   UNL     1      32.801  -8.939 -21.682  0.00  0.00    -0.300 NA
ATOM     22  N   UNL     1      32.417  -7.283 -23.213  0.00  0.00    -0.010 NA
ATOM     23  C   UNL     1      34.288 -13.294 -24.126  0.00  0.00    +0.047 C 
ATOM     24  C   UNL     1      33.420 -13.086 -22.880  0.00  0.00    +0.025 C 
ATOM     25  C   UNL     1      33.974 -12.203 -25.155  0.00  0.00    +0.025 C 
ATOM     26  C   UNL     1      33.606 -11.686 -22.296  0.00  0.00    +0.096 C 
ATOM     27  C   UNL     1      34.153 -10.804 -24.565  0.00  0.00    +0.096 C 
ATOM     28  C   UNL     1      32.995  -9.388 -22.897  0.00  0.00    +0.379 C 
ATOM     29  C   UNL     1      32.448  -7.645 -21.927  0.00  0.00    +0.104 C 
BRANCH  29  30
ATOM     30  C   UNL     1      32.120  -6.707 -20.848  0.00  0.00    +0.101 C 
ATOM     31  C   UNL     1      33.075  -6.814 -19.631  0.00  0.00    +0.017 C 
ATOM     32  C   UNL     1      32.069  -5.229 -21.314  0.00  0.00    +0.017 C 
ENDBRANCH  29  30
ENDBRANCH  18  23
ENDBRANCH   1  18
TORSDOF 6
ENDMDL
MODEL 6
REMARK VINA RESULT:     -12.0      3.960     11.785
REMARK  Name = 24996872
REMARK  6 active torsions:
REMARK  status: ('A' for Active; 'I' for Inactive)
REMARK    1  A    between atoms: O_1  and  C_3
REMARK    2  A    between atoms: O_1  and  C_18
REMARK    3  A    between atoms: C_7  and  C_8
REMARK    4  A    between atoms: C_11  and  S_14
REMARK    5  A    between atoms: C_18  and  C_23
REMARK    6  A    between atoms: C_29  and  C_30
REMARK                            x       y       z     vdW  Elec       q    Type
REMARK                         _______ _______ _______ _____ _____    ______ ____
ROOT
ATOM      1  O   UNL     1      35.871 -17.518 -21.290  0.00  0.00    -0.474 OA
ENDROOT
BRANCH   1   3
ATOM      2  N   UNL     1      34.711 -14.418 -22.854  0.00  0.00    -0.241 NA
ATOM      3  C   UNL     1      35.377 -16.243 -21.415  0.00  0.00    +0.158 C 
ATOM      4  C   UNL     1      35.045 -15.491 -20.295  0.00  0.00    +0.040 C 
ATOM      5  C   UNL     1      35.193 -15.666 -22.662  0.00  0.00    +0.136 C 
ATOM      6  C   UNL     1      34.546 -14.201 -20.452  0.00  0.00    +0.022 C 
ATOM      7  C   UNL     1      34.399 -13.716 -21.741  0.00  0.00    +0.082 C 
BRANCH   7   8
ATOM      8  C   UNL     1      33.888 -12.388 -21.981  0.00  0.00    +0.018 C 
ATOM      9  C   UNL     1      34.380 -11.633 -23.046  0.00  0.00    +0.003 C 
ATOM     10  C   UNL     1      32.902 -11.860 -21.149  0.00  0.00    +0.003 C 
ATOM     11  C   UNL     1      32.898  -9.821 -22.445  0.00  0.00    +0.106 C 
ATOM     12  C   UNL     1      33.885 -10.349 -23.277  0.00  0.00    +0.018 C 
ATOM     13  C   UNL     1      32.407 -10.576 -21.380  0.00  0.00    +0.018 C 
BRANCH  11  14
ATOM     14  S   UNL     1      32.279  -8.215 -22.734  0.00  0.00    +0.010 S 
ATOM     15  O   UNL     1      32.827  -7.744 -24.000  0.00  0.00    -0.169 OA
ATOM     16  O   UNL     1      30.837  -8.219 -22.528  0.00  0.00    -0.169 OA
ATOM     17  C   UNL     1      32.985  -7.227 -21.434  0.00  0.00    +0.182 C 
ENDBRANCH  11  14
ENDBRANCH   7   8
ENDBRANCH   1   3
BRANCH   1  18
ATOM     18  C   UNL     1      34.949 -18.583 -21.433  0.00  0.00    +0.205 C 
BRANCH  18  23
ATOM     19  O   UNL     1      37.556 -21.212 -16.207  0.00  0.00    -0.296 OA
ATOM     20  N   UNL     1      36.061 -20.913 -17.985  0.00  0.00    -0.251 N 
ATOM     21  N   UNL     1      35.671 -22.417 -16.087  0.00  0.00    -0.300 NA
ATOM     22  N   UNL     1      37.641 -21.953 -15.021  0.00  0.00    -0.010 NA
ATOM     23  C   UNL     1      35.406 -19.742 -20.550  0.00  0.00    +0.047 C 
ATOM     24  C   UNL     1      34.321 -20.115 -19.535  0.00  0.00    +0.025 C 
ATOM     25  C   UNL     1      36.699 -19.386 -19.808  0.00  0.00    +0.025 C 
ATOM     26  C   UNL     1      34.779 -21.249 -18.618  0.00  0.00    +0.096 C 
ATOM     27  C   UNL     1      37.149 -20.519 -18.886  0.00  0.00    +0.096 C 
ATOM     28  C   UNL     1      36.366 -21.544 -16.772  0.00  0.00    +0.379 C 
ATOM     29  C   UNL     1      36.493 -22.638 -15.022  0.00  0.00    +0.104 C 
BRANCH  29  30
ATOM     30  C   UNL     1      36.143 -23.567 -13.943  0.00  0.00    +0.101 C 
ATOM     31  C   UNL     1      34.640 -23.528 -13.564  0.00  0.00    +0.017 C 
ATOM     32  C   UNL     1      36.545 -25.034 -14.241  0.00  0.00    +0.017 C 
ENDBRANCH  29  30
ENDBRANCH  18  23
ENDBRANCH   1  18
TORSDOF 6
ENDMDL
MODEL 7
REMARK VINA RESULT:     -11.9      4.117     11.953
REMARK  Name = 24996872
REMARK  6 active torsions:
REMARK  status: ('A' for Active; 'I' for Inactive)
REMARK    1  A    between atoms: O_1  and  C_3
REMARK    2  A    between atoms: O_1  and  C_18
REMARK    3  A    between atoms: C_7  and  C_8
REMARK    4  A    between atoms: C_11  and  S_14
REMARK    5  A    between atoms: C_18  and  C_23
REMARK    6  A    between atoms: C_29  and  C_30
REMARK                            x       y       z     vdW  Elec       q    Type
REMARK                         _______ _______ _______ _____ _____    ______ ____
ROOT
ATOM      1  O   UNL     1      35.801 -19.546 -20.724  0.00  0.00    -0.474 OA
ENDROOT
BRANCH   1   3
ATOM      2  N   UNL     1      35.313 -15.941 -21.135  0.00  0.00    -0.241 NA
ATOM      3  C   UNL     1      35.511 -18.343 -21.320  0.00  0.00    +0.158 C 
ATOM      4  C   UNL     1      35.135 -18.279 -22.657  0.00  0.00    +0.040 C 
ATOM      5  C   UNL     1      35.585 -17.156 -20.609  0.00  0.00    +0.136 C 
ATOM      6  C   UNL     1      34.847 -17.046 -23.234  0.00  0.00    +0.022 C 
ATOM      7  C   UNL     1      34.951 -15.918 -22.437  0.00  0.00    +0.082 C 
BRANCH   7   8
ATOM      8  C   UNL     1      34.667 -14.606 -22.968  0.00  0.00    +0.018 C 
ATOM      9  C   UNL     1      34.797 -13.480 -22.154  0.00  0.00    +0.003 C 
ATOM     10  C   UNL     1      34.265 -14.462 -24.296  0.00  0.00    +0.003 C 
ATOM     11  C   UNL     1      34.121 -12.070 -23.995  0.00  0.00    +0.106 C 
ATOM     12  C   UNL     1      34.523 -12.213 -22.668  0.00  0.00    +0.018 C 
ATOM     13  C   UNL     1      33.991 -13.195 -24.810  0.00  0.00    +0.018 C 
BRANCH  11  14
ATOM     14  S   UNL     1      33.779 -10.484 -24.638  0.00  0.00    +0.010 S 
ATOM     15  O   UNL     1      33.179 -10.653 -25.955  0.00  0.00    -0.169 OA
ATOM     16  O   UNL     1      33.084  -9.702 -23.624  0.00  0.00    -0.169 OA
ATOM     17  C   UNL     1      35.380  -9.740 -24.859  0.00  0.00    +0.182 C 
ENDBRANCH  11  14
ENDBRANCH   7   8
ENDBRANCH   1   3
BRANCH   1  18
ATOM     18  C   UNL     1      34.723 -20.245 -20.129  0.00  0.00    +0.205 C 
BRANCH  18  23
ATOM     19  O   UNL     1      35.936 -23.885 -15.000  0.00  0.00    -0.296 OA
ATOM     20  N   UNL     1      36.142 -22.110 -16.514  0.00  0.00    -0.251 N 
ATOM     21  N   UNL     1      37.788 -22.645 -14.777  0.00  0.00    -0.300 NA
ATOM     22  N   UNL     1      36.654 -24.446 -13.936  0.00  0.00    -0.010 NA
ATOM     23  C   UNL     1      35.060 -20.497 -18.661  0.00  0.00    +0.047 C 
ATOM     24  C   UNL     1      36.570 -20.677 -18.472  0.00  0.00    +0.025 C 
ATOM     25  C   UNL     1      34.329 -21.737 -18.138  0.00  0.00    +0.025 C 
ATOM     26  C   UNL     1      36.920 -20.968 -17.013  0.00  0.00    +0.096 C 
ATOM     27  C   UNL     1      34.687 -22.030 -16.681  0.00  0.00    +0.096 C 
ATOM     28  C   UNL     1      36.673 -22.831 -15.438  0.00  0.00    +0.379 C 
ATOM     29  C   UNL     1      37.733 -23.660 -13.866  0.00  0.00    +0.104 C 
BRANCH  29  30
ATOM     30  C   UNL     1      38.789 -23.877 -12.873  0.00  0.00    +0.101 C 
ATOM     31  C   UNL     1      38.288 -23.765 -11.410  0.00  0.00    +0.017 C 
ATOM     32  C   UNL     1      39.527 -25.229 -13.046  0.00  0.00    +0.017 C 
ENDBRANCH  29  30
ENDBRANCH  18  23
ENDBRANCH   1  18
TORSDOF 6
ENDMDL
MODEL 8
REMARK VINA RESULT:     -11.5      4.262     11.470
REMARK  Name = 24996872
REMARK  6 active torsions:
REMARK  status: ('A' for Active; 'I' for Inactive)
REMARK    1  A    between atoms: O_1  and  C_3
REMARK    2  A    between atoms: O_1  and  C_18
REMARK    3  A    between atoms: C_7  and  C_8
REMARK    4  A    between atoms: C_11  and  S_14
REMARK    5  A    between atoms: C_18  and  C_23
REMARK    6  A    between atoms: C_29  and  C_30
REMARK                            x       y       z     vdW  Elec       q    Type
REMARK                         _______ _______ _______ _____ _____    ______ ____
ROOT
ATOM      1  O   UNL     1      35.862 -17.704 -22.550  0.00  0.00    -0.474 OA
ENDROOT
BRANCH   1   3
ATOM      2  N   UNL     1      34.476 -14.493 -23.634  0.00  0.00    -0.241 NA
ATOM      3  C   UNL     1      35.391 -16.415 -22.487  0.00  0.00    +0.158 C 
ATOM      4  C   UNL     1      35.342 -15.728 -21.281  0.00  0.00    +0.040 C 
ATOM      5  C   UNL     1      34.951 -15.760 -23.626  0.00  0.00    +0.136 C 
ATOM      6  C   UNL     1      34.861 -14.423 -21.249  0.00  0.00    +0.022 C 
ATOM      7  C   UNL     1      34.444 -13.857 -22.442  0.00  0.00    +0.082 C 
BRANCH   7   8
ATOM      8  C   UNL     1      33.932 -12.508 -22.485  0.00  0.00    +0.018 C 
ATOM      9  C   UNL     1      32.966 -12.098 -21.566  0.00  0.00    +0.003 C 
ATOM     10  C   UNL     1      34.405 -11.613 -23.445  0.00  0.00    +0.003 C 
ATOM     11  C   UNL     1      32.946  -9.899 -22.568  0.00  0.00    +0.106 C 
ATOM     12  C   UNL     1      32.473 -10.794 -21.608  0.00  0.00    +0.018 C 
ATOM     13  C   UNL     1      33.912 -10.309 -23.487  0.00  0.00    +0.018 C 
BRANCH  11  14
ATOM     14  S   UNL     1      32.328  -8.267 -22.621  0.00  0.00    +0.010 S 
ATOM     15  O   UNL     1      32.714  -7.683 -23.898  0.00  0.00    -0.169 OA
ATOM     16  O   UNL     1      30.926  -8.279 -22.226  0.00  0.00    -0.169 OA
ATOM     17  C   UNL     1      33.220  -7.415 -21.339  0.00  0.00    +0.182 C 
ENDBRANCH  11  14
ENDBRANCH   7   8
ENDBRANCH   1   3
BRANCH   1  18
ATOM     18  C   UNL     1      34.908 -18.744 -22.436  0.00  0.00    +0.205 C 
BRANCH  18  23
ATOM     19  O   UNL     1      32.657 -22.116 -17.478  0.00  0.00    -0.296 OA
ATOM     20  N   UNL     1      34.169 -20.876 -18.767  0.00  0.00    -0.251 N 
ATOM     21  N   UNL     1      34.783 -22.163 -16.771  0.00  0.00    -0.300 NA
ATOM     22  N   UNL     1      32.671 -22.927 -16.335  0.00  0.00    -0.010 NA
ATOM     23  C   UNL     1      34.710 -19.060 -20.955  0.00  0.00    +0.047 C 
ATOM     24  C   UNL     1      35.757 -20.068 -20.469  0.00  0.00    +0.025 C 
ATOM     25  C   UNL     1      33.306 -19.617 -20.699  0.00  0.00    +0.025 C 
ATOM     26  C   UNL     1      35.548 -20.423 -18.997  0.00  0.00    +0.096 C 
ATOM     27  C   UNL     1      33.104 -19.980 -19.228  0.00  0.00    +0.096 C 
ATOM     28  C   UNL     1      33.940 -21.708 -17.664  0.00  0.00    +0.379 C 
ATOM     29  C   UNL     1      33.958 -22.906 -15.978  0.00  0.00    +0.104 C 
BRANCH  29  30
ATOM     30  C   UNL     1      34.451 -23.636 -14.806  0.00  0.00    +0.101 C 
ATOM     31  C   UNL     1      35.681 -22.968 -14.139  0.00  0.00    +0.017 C 
ATOM     32  C   UNL     1      33.364 -23.871 -13.726  0.00  0.00    +0.017 C 
ENDBRANCH  29  30
ENDBRANCH  18  23
ENDBRANCH   1  18
TORSDOF 6
ENDMDL
MODEL 9
REMARK VINA RESULT:     -11.4      4.338     11.475
REMARK  Name = 24996872
REMARK  6 active torsions:
REMARK  status: ('A' for Active; 'I' for Inactive)
REMARK    1  A    between atoms: O_1  and  C_3
REMARK    2  A    between atoms: O_1  and  C_18
REMARK    3  A    between atoms: C_7  and  C_8
REMARK    4  A    between atoms: C_11  and  S_14
REMARK    5  A    between atoms: C_18  and  C_23
REMARK    6  A    between atoms: C_29  and  C_30
REMARK                            x       y       z     vdW  Elec       q    Type
REMARK                         _______ _______ _______ _____ _____    ______ ____
ROOT
ATOM      1  O   UNL     1      35.629 -19.631 -20.853  0.00  0.00    -0.474 OA
ENDROOT
BRANCH   1   3
ATOM      2  N   UNL     1      34.808 -16.862 -23.103  0.00  0.00    -0.241 NA
ATOM      3  C   UNL     1      35.394 -18.350 -21.290  0.00  0.00    +0.158 C 
ATOM      4  C   UNL     1      35.494 -17.268 -20.424  0.00  0.00    +0.040 C 
ATOM      5  C   UNL     1      35.051 -18.097 -22.609  0.00  0.00    +0.136 C 
ATOM      6  C   UNL     1      35.252 -15.982 -20.895  0.00  0.00    +0.022 C 
ATOM      7  C   UNL     1      34.914 -15.835 -22.231  0.00  0.00    +0.082 C 
BRANCH   7   8
ATOM      8  C   UNL     1      34.648 -14.531 -22.790  0.00  0.00    +0.018 C 
ATOM      9  C   UNL     1      34.304 -14.405 -24.136  0.00  0.00    +0.003 C 
ATOM     10  C   UNL     1      34.735 -13.395 -21.984  0.00  0.00    +0.003 C 
ATOM     11  C   UNL     1      34.134 -12.010 -23.869  0.00  0.00    +0.106 C 
ATOM     12  C   UNL     1      34.047 -13.145 -24.675  0.00  0.00    +0.018 C 
ATOM     13  C   UNL     1      34.479 -12.135 -22.523  0.00  0.00    +0.018 C 
BRANCH  11  14
ATOM     14  S   UNL     1      33.812 -10.433 -24.544  0.00  0.00    +0.010 S 
ATOM     15  O   UNL     1      33.238 -10.620 -25.870  0.00  0.00    -0.169 OA
ATOM     16  O   UNL     1      33.102  -9.631 -23.557  0.00  0.00    -0.169 OA
ATOM     17  C   UNL     1      35.421  -9.701 -24.745  0.00  0.00    +0.182 C 
ENDBRANCH  11  14
ENDBRANCH   7   8
ENDBRANCH   1   3
BRANCH   1  18
ATOM     18  C   UNL     1      36.475 -19.782 -19.728  0.00  0.00    +0.205 C 
BRANCH  18  23
ATOM     19  O   UNL     1      34.476 -22.630 -14.351  0.00  0.00    -0.296 OA
ATOM     20  N   UNL     1      34.552 -22.066 -16.623  0.00  0.00    -0.251 N 
ATOM     21  N   UNL     1      32.696 -23.261 -15.555  0.00  0.00    -0.300 NA
ATOM     22  N   UNL     1      33.610 -23.277 -13.459  0.00  0.00    -0.010 NA
ATOM     23  C   UNL     1      35.965 -20.953 -18.891  0.00  0.00    +0.047 C 
ATOM     24  C   UNL     1      34.434 -20.938 -18.810  0.00  0.00    +0.025 C 
ATOM     25  C   UNL     1      36.552 -20.911 -17.477  0.00  0.00    +0.025 C 
ATOM     26  C   UNL     1      33.910 -22.083 -17.944  0.00  0.00    +0.096 C 
ATOM     27  C   UNL     1      36.019 -22.052 -16.611  0.00  0.00    +0.096 C 
ATOM     28  C   UNL     1      33.861 -22.664 -15.562  0.00  0.00    +0.379 C 
ATOM     29  C   UNL     1      32.584 -23.619 -14.244  0.00  0.00    +0.104 C 
BRANCH  29  30
ATOM     30  C   UNL     1      31.414 -24.334 -13.725  0.00  0.00    +0.101 C 
ATOM     31  C   UNL     1      30.750 -23.627 -12.515  0.00  0.00    +0.017 C 
ATOM     32  C   UNL     1      30.333 -24.605 -14.801  0.00  0.00    +0.017 C 
ENDBRANCH  29  30
ENDBRANCH  18  23
ENDBRANCH   1  18
TORSDOF 6
ENDMDL
