MODEL 1
REMARK VINA RESULT:     -12.6      0.000      0.000
REMARK  Name = 53338808
REMARK  2 active torsions:
REMARK  status: ('A' for Active; 'I' for Inactive)
REMARK    1  A    between atoms: C_3  and  C_15
REMARK    2  A    between atoms: C_5  and  C_23
REMARK                            x       y       z     vdW  Elec       q    Type
REMARK                         _______ _______ _______ _____ _____    ______ ____
ROOT
ATOM      1  N   UNL     1      31.780 -22.976 -15.478  0.00  0.00    -0.228 N 
ATOM      2  N   UNL     1      32.362 -22.299 -16.506  0.00  0.00    -0.165 NA
ATOM      3  C   UNL     1      33.974 -23.199 -15.161  0.00  0.00    +0.056 A 
ATOM      4  C   UNL     1      32.750 -23.537 -14.641  0.00  0.00    +0.086 A 
ATOM      5  C   UNL     1      33.672 -22.442 -16.303  0.00  0.00    +0.104 A 
ATOM      6  C   UNL     1      32.311 -24.283 -13.511  0.00  0.00    +0.019 C 
ATOM      7  C   UNL     1      30.412 -23.134 -15.231  0.00  0.00    +0.100 C 
ATOM      8  C   UNL     1      30.993 -24.428 -13.281  0.00  0.00    +0.003 C 
ATOM      9  C   UNL     1      30.002 -23.839 -14.164  0.00  0.00    +0.021 C 
ENDROOT
BRANCH   3  15
ATOM     10  N   UNL     1      35.849 -24.632 -15.201  0.00  0.00    -0.146 NA
ATOM     11  N   UNL     1      38.709 -24.692 -13.065  0.00  0.00    -0.257 N 
ATOM     12  N   UNL     1      37.017 -25.072 -14.758  0.00  0.00    -0.129 NA
ATOM     13  N   UNL     1      38.952 -23.871 -12.025  0.00  0.00    -0.157 NA
ATOM     14  N   UNL     1      37.672 -22.053 -11.129  0.00  0.00    -0.341 N 
ATOM     15  C   UNL     1      35.232 -23.586 -14.590  0.00  0.00    +0.106 C 
ATOM     16  C   UNL     1      35.732 -22.898 -13.492  0.00  0.00    +0.027 C 
ATOM     17  C   UNL     1      36.960 -23.364 -13.031  0.00  0.00    +0.071 A 
ATOM     18  C   UNL     1      37.532 -24.431 -13.698  0.00  0.00    +0.180 A 
ATOM     19  C   UNL     1      37.884 -23.065 -12.010  0.00  0.00    +0.148 A 
ATOM     20  H   UNL     1      39.322 -25.412 -13.339  0.00  0.00    +0.191 HD
ATOM     21  H   UNL     1      38.336 -21.867 -10.425  0.00  0.00    +0.144 HD
ATOM     22  H   UNL     1      36.857 -21.506 -11.193  0.00  0.00    +0.144 HD
ENDBRANCH   3  15
BRANCH   5  23
ATOM     23  C   UNL     1      34.608 -21.840 -17.219  0.00  0.00    +0.019 C 
ATOM     24  C   UNL     1      34.218 -21.557 -18.527  0.00  0.00    +0.002 C 
ATOM     25  C   UNL     1      35.903 -21.540 -16.797  0.00  0.00    +0.002 C 
ATOM     26  C   UNL     1      35.123 -20.973 -19.414  0.00  0.00    +0.000 C 
ATOM     27  C   UNL     1      36.808 -20.956 -17.684  0.00  0.00    +0.000 C 
ATOM     28  C   UNL     1      36.418 -20.673 -18.992  0.00  0.00    +0.000 C 
ENDBRANCH   5  23
TORSDOF 2
ENDMDL
MODEL 2
REMARK VINA RESULT:     -11.8      0.962      4.567
REMARK  Name = 53338808
REMARK  2 active torsions:
REMARK  status: ('A' for Active; 'I' for Inactive)
REMARK    1  A    between atoms: C_3  and  C_15
REMARK    2  A    between atoms: C_5  and  C_23
REMARK                            x       y       z     vdW  Elec       q    Type
REMARK                         _______ _______ _______ _____ _____    ______ ____
ROOT
ATOM      1  N   UNL     1      33.345 -21.455 -17.704  0.00  0.00    -0.228 N 
ATOM      2  N   UNL     1      32.264 -21.854 -16.981  0.00  0.00    -0.165 NA
ATOM      3  C   UNL     1      34.175 -22.663 -16.025  0.00  0.00    +0.056 A 
ATOM      4  C   UNL     1      34.528 -21.939 -17.136  0.00  0.00    +0.086 A 
ATOM      5  C   UNL     1      32.775 -22.574 -15.981  0.00  0.00    +0.104 A 
ATOM      6  C   UNL     1      35.760 -21.612 -17.771  0.00  0.00    +0.019 C 
ATOM      7  C   UNL     1      33.351 -20.669 -18.861  0.00  0.00    +0.100 C 
ATOM      8  C   UNL     1      35.754 -20.856 -18.884  0.00  0.00    +0.003 C 
ATOM      9  C   UNL     1      34.514 -20.362 -19.457  0.00  0.00    +0.021 C 
ENDROOT
BRANCH   3  15
ATOM     10  N   UNL     1      35.386 -24.615 -15.490  0.00  0.00    -0.146 NA
ATOM     11  N   UNL     1      37.675 -25.208 -12.814  0.00  0.00    -0.257 N 
ATOM     12  N   UNL     1      36.236 -25.324 -14.761  0.00  0.00    -0.129 NA
ATOM     13  N   UNL     1      38.040 -24.330 -11.861  0.00  0.00    -0.157 NA
ATOM     14  N   UNL     1      37.386 -22.053 -11.491  0.00  0.00    -0.341 N 
ATOM     15  C   UNL     1      35.106 -23.327 -15.160  0.00  0.00    +0.106 C 
ATOM     16  C   UNL     1      35.650 -22.646 -14.079  0.00  0.00    +0.027 C 
ATOM     17  C   UNL     1      36.542 -23.395 -13.316  0.00  0.00    +0.071 A 
ATOM     18  C   UNL     1      36.783 -24.698 -13.708  0.00  0.00    +0.180 A 
ATOM     19  C   UNL     1      37.347 -23.228 -12.171  0.00  0.00    +0.148 A 
ATOM     20  H   UNL     1      38.020 -26.129 -12.861  0.00  0.00    +0.191 HD
ATOM     21  H   UNL     1      37.958 -21.966 -10.693  0.00  0.00    +0.144 HD
ATOM     22  H   UNL     1      36.843 -21.290 -11.793  0.00  0.00    +0.144 HD
ENDBRANCH   3  15
BRANCH   5  23
ATOM     23  C   UNL     1      31.898 -23.165 -15.002  0.00  0.00    +0.019 C 
ATOM     24  C   UNL     1      31.958 -22.750 -13.672  0.00  0.00    +0.002 C 
ATOM     25  C   UNL     1      30.988 -24.151 -15.384  0.00  0.00    +0.002 C 
ATOM     26  C   UNL     1      31.108 -23.320 -12.724  0.00  0.00    +0.000 C 
ATOM     27  C   UNL     1      30.139 -24.721 -14.436  0.00  0.00    +0.000 C 
ATOM     28  C   UNL     1      30.199 -24.306 -13.107  0.00  0.00    +0.000 C 
ENDBRANCH   5  23
TORSDOF 2
ENDMDL
MODEL 3
REMARK VINA RESULT:     -11.4      1.366      4.847
REMARK  Name = 53338808
REMARK  2 active torsions:
REMARK  status: ('A' for Active; 'I' for Inactive)
REMARK    1  A    between atoms: C_3  and  C_15
REMARK    2  A    between atoms: C_5  and  C_23
REMARK                            x       y       z     vdW  Elec       q    Type
REMARK                         _______ _______ _______ _____ _____    ______ ____
ROOT
ATOM      1  N   UNL     1      33.426 -21.405 -18.015  0.00  0.00    -0.228 N 
ATOM      2  N   UNL     1      32.376 -21.853 -17.273  0.00  0.00    -0.165 NA
ATOM      3  C   UNL     1      34.339 -22.335 -16.208  0.00  0.00    +0.056 A 
ATOM      4  C   UNL     1      34.640 -21.689 -17.382  0.00  0.00    +0.086 A 
ATOM      5  C   UNL     1      32.938 -22.406 -16.197  0.00  0.00    +0.104 A 
ATOM      6  C   UNL     1      35.843 -21.287 -18.025  0.00  0.00    +0.019 C 
ATOM      7  C   UNL     1      33.374 -20.743 -19.247  0.00  0.00    +0.100 C 
ATOM      8  C   UNL     1      35.783 -20.651 -19.210  0.00  0.00    +0.003 C 
ATOM      9  C   UNL     1      34.512 -20.364 -19.851  0.00  0.00    +0.021 C 
ENDROOT
BRANCH   3  15
ATOM     10  N   UNL     1      35.998 -21.820 -14.611  0.00  0.00    -0.146 NA
ATOM     11  N   UNL     1      38.016 -24.010 -12.642  0.00  0.00    -0.257 N 
ATOM     12  N   UNL     1      36.922 -22.132 -13.715  0.00  0.00    -0.129 NA
ATOM     13  N   UNL     1      37.990 -25.356 -12.659  0.00  0.00    -0.157 NA
ATOM     14  N   UNL     1      36.657 -26.886 -13.935  0.00  0.00    -0.341 N 
ATOM     15  C   UNL     1      35.315 -22.797 -15.264  0.00  0.00    +0.106 C 
ATOM     16  C   UNL     1      35.501 -24.160 -15.075  0.00  0.00    +0.027 C 
ATOM     17  C   UNL     1      36.474 -24.484 -14.133  0.00  0.00    +0.071 A 
ATOM     18  C   UNL     1      37.129 -23.441 -13.504  0.00  0.00    +0.180 A 
ATOM     19  C   UNL     1      37.050 -25.638 -13.568  0.00  0.00    +0.148 A 
ATOM     20  H   UNL     1      38.618 -23.489 -12.064  0.00  0.00    +0.191 HD
ATOM     21  H   UNL     1      37.077 -27.676 -13.523  0.00  0.00    +0.144 HD
ATOM     22  H   UNL     1      35.952 -27.001 -14.612  0.00  0.00    +0.144 HD
ENDBRANCH   3  15
BRANCH   5  23
ATOM     23  C   UNL     1      32.106 -22.994 -15.177  0.00  0.00    +0.019 C 
ATOM     24  C   UNL     1      32.235 -22.583 -13.851  0.00  0.00    +0.002 C 
ATOM     25  C   UNL     1      31.172 -23.972 -15.517  0.00  0.00    +0.002 C 
ATOM     26  C   UNL     1      31.429 -23.151 -12.864  0.00  0.00    +0.000 C 
ATOM     27  C   UNL     1      30.367 -24.540 -14.530  0.00  0.00    +0.000 C 
ATOM     28  C   UNL     1      30.496 -24.130 -13.203  0.00  0.00    +0.000 C 
ENDBRANCH   5  23
TORSDOF 2
ENDMDL
MODEL 4
REMARK VINA RESULT:     -11.4      1.218      2.086
REMARK  Name = 53338808
REMARK  2 active torsions:
REMARK  status: ('A' for Active; 'I' for Inactive)
REMARK    1  A    between atoms: C_3  and  C_15
REMARK    2  A    between atoms: C_5  and  C_23
REMARK                            x       y       z     vdW  Elec       q    Type
REMARK                         _______ _______ _______ _____ _____    ______ ____
ROOT
ATOM      1  N   UNL     1      31.471 -22.991 -15.554  0.00  0.00    -0.228 N 
ATOM      2  N   UNL     1      32.258 -22.345 -16.456  0.00  0.00    -0.165 NA
ATOM      3  C   UNL     1      33.558 -23.299 -14.837  0.00  0.00    +0.056 A 
ATOM      4  C   UNL     1      32.245 -23.584 -14.553  0.00  0.00    +0.086 A 
ATOM      5  C   UNL     1      33.502 -22.538 -16.015  0.00  0.00    +0.104 A 
ATOM      6  C   UNL     1      31.576 -24.305 -13.524  0.00  0.00    +0.019 C 
ATOM      7  C   UNL     1      30.075 -23.093 -15.563  0.00  0.00    +0.100 C 
ATOM      8  C   UNL     1      30.233 -24.396 -13.541  0.00  0.00    +0.003 C 
ATOM      9  C   UNL     1      29.447 -23.773 -14.592  0.00  0.00    +0.021 C 
ENDROOT
BRANCH   3  15
ATOM     10  N   UNL     1      34.673 -23.292 -12.759  0.00  0.00    -0.146 NA
ATOM     11  N   UNL     1      37.716 -24.898 -11.806  0.00  0.00    -0.257 N 
ATOM     12  N   UNL     1      35.653 -23.632 -11.935  0.00  0.00    -0.129 NA
ATOM     13  N   UNL     1      38.499 -25.663 -12.591  0.00  0.00    -0.157 NA
ATOM     14  N   UNL     1      38.269 -26.307 -14.888  0.00  0.00    -0.341 N 
ATOM     15  C   UNL     1      34.672 -23.732 -14.045  0.00  0.00    +0.106 C 
ATOM     16  C   UNL     1      35.647 -24.544 -14.609  0.00  0.00    +0.027 C 
ATOM     17  C   UNL     1      36.675 -24.898 -13.740  0.00  0.00    +0.071 A 
ATOM     18  C   UNL     1      36.614 -24.418 -12.446  0.00  0.00    +0.180 A 
ATOM     19  C   UNL     1      37.861 -25.659 -13.766  0.00  0.00    +0.148 A 
ATOM     20  H   UNL     1      37.921 -24.706 -10.863  0.00  0.00    +0.191 HD
ATOM     21  H   UNL     1      39.103 -26.832 -14.878  0.00  0.00    +0.144 HD
ATOM     22  H   UNL     1      37.734 -26.252 -15.712  0.00  0.00    +0.144 HD
ENDBRANCH   3  15
BRANCH   5  23
ATOM     23  C   UNL     1      34.615 -21.980 -16.742  0.00  0.00    +0.019 C 
ATOM     24  C   UNL     1      35.817 -21.722 -16.084  0.00  0.00    +0.002 C 
ATOM     25  C   UNL     1      34.489 -21.698 -18.102  0.00  0.00    +0.002 C 
ATOM     26  C   UNL     1      36.895 -21.183 -16.787  0.00  0.00    +0.000 C 
ATOM     27  C   UNL     1      35.567 -21.159 -18.805  0.00  0.00    +0.000 C 
ATOM     28  C   UNL     1      36.769 -20.902 -18.147  0.00  0.00    +0.000 C 
ENDBRANCH   5  23
TORSDOF 2
ENDMDL
MODEL 5
REMARK VINA RESULT:     -11.3      2.233      6.273
REMARK  Name = 53338808
REMARK  2 active torsions:
REMARK  status: ('A' for Active; 'I' for Inactive)
REMARK    1  A    between atoms: C_3  and  C_15
REMARK    2  A    between atoms: C_5  and  C_23
REMARK                            x       y       z     vdW  Elec       q    Type
REMARK                         _______ _______ _______ _____ _____    ______ ____
ROOT
ATOM      1  N   UNL     1      35.827 -21.604 -17.225  0.00  0.00    -0.228 N 
ATOM      2  N   UNL     1      36.631 -22.058 -16.226  0.00  0.00    -0.165 NA
ATOM      3  C   UNL     1      34.464 -22.644 -15.802  0.00  0.00    +0.056 A 
ATOM      4  C   UNL     1      34.494 -21.951 -16.987  0.00  0.00    +0.086 A 
ATOM      5  C   UNL     1      35.803 -22.677 -15.384  0.00  0.00    +0.104 A 
ATOM      6  C   UNL     1      33.515 -21.552 -17.940  0.00  0.00    +0.019 C 
ATOM      7  C   UNL     1      36.209 -20.885 -18.364  0.00  0.00    +0.100 C 
ATOM      8  C   UNL     1      33.892 -20.860 -19.032  0.00  0.00    +0.003 C 
ATOM      9  C   UNL     1      35.283 -20.510 -19.261  0.00  0.00    +0.021 C 
ENDROOT
BRANCH   3  15
ATOM     10  N   UNL     1      33.470 -23.900 -14.070  0.00  0.00    -0.146 NA
ATOM     11  N   UNL     1      30.030 -24.670 -13.507  0.00  0.00    -0.257 N 
ATOM     12  N   UNL     1      32.441 -24.439 -13.433  0.00  0.00    -0.129 NA
ATOM     13  N   UNL     1      28.987 -24.291 -14.271  0.00  0.00    -0.157 NA
ATOM     14  N   UNL     1      28.904 -22.981 -16.276  0.00  0.00    -0.341 N 
ATOM     15  C   UNL     1      33.274 -23.178 -15.205  0.00  0.00    +0.106 C 
ATOM     16  C   UNL     1      32.039 -22.937 -15.791  0.00  0.00    +0.027 C 
ATOM     17  C   UNL     1      30.961 -23.505 -15.119  0.00  0.00    +0.071 A 
ATOM     18  C   UNL     1      31.230 -24.226 -13.971  0.00  0.00    +0.180 A 
ATOM     19  C   UNL     1      29.560 -23.582 -15.250  0.00  0.00    +0.148 A 
ATOM     20  H   UNL     1      29.933 -25.216 -12.694  0.00  0.00    +0.191 HD
ATOM     21  H   UNL     1      27.924 -23.052 -16.343  0.00  0.00    +0.144 HD
ATOM     22  H   UNL     1      29.408 -22.474 -16.953  0.00  0.00    +0.144 HD
ENDBRANCH   3  15
BRANCH   5  23
ATOM     23  C   UNL     1      36.324 -23.289 -14.187  0.00  0.00    +0.019 C 
ATOM     24  C   UNL     1      36.744 -24.618 -14.211  0.00  0.00    +0.002 C 
ATOM     25  C   UNL     1      36.409 -22.552 -13.006  0.00  0.00    +0.002 C 
ATOM     26  C   UNL     1      37.249 -25.211 -13.054  0.00  0.00    +0.000 C 
ATOM     27  C   UNL     1      36.914 -23.144 -11.849  0.00  0.00    +0.000 C 
ATOM     28  C   UNL     1      37.334 -24.474 -11.873  0.00  0.00    +0.000 C 
ENDBRANCH   5  23
TORSDOF 2
ENDMDL
MODEL 6
REMARK VINA RESULT:     -11.1     11.499     13.968
REMARK  Name = 53338808
REMARK  2 active torsions:
REMARK  status: ('A' for Active; 'I' for Inactive)
REMARK    1  A    between atoms: C_3  and  C_15
REMARK    2  A    between atoms: C_5  and  C_23
REMARK                            x       y       z     vdW  Elec       q    Type
REMARK                         _______ _______ _______ _____ _____    ______ ____
ROOT
ATOM      1  N   UNL     1      32.336  -9.992 -21.218  0.00  0.00    -0.228 N 
ATOM      2  N   UNL     1      32.949  -9.397 -22.277  0.00  0.00    -0.165 NA
ATOM      3  C   UNL     1      33.446 -11.626 -22.248  0.00  0.00    +0.056 A 
ATOM      4  C   UNL     1      32.626 -11.360 -21.180  0.00  0.00    +0.086 A 
ATOM      5  C   UNL     1      33.608 -10.385 -22.883  0.00  0.00    +0.104 A 
ATOM      6  C   UNL     1      32.061 -12.137 -20.130  0.00  0.00    +0.019 C 
ATOM      7  C   UNL     1      31.514  -9.387 -20.261  0.00  0.00    +0.100 C 
ATOM      8  C   UNL     1      31.272 -11.545 -19.214  0.00  0.00    +0.003 C 
ATOM      9  C   UNL     1      30.982 -10.123 -19.272  0.00  0.00    +0.021 C 
ENDROOT
BRANCH   3  15
ATOM     10  N   UNL     1      35.003 -13.337 -21.782  0.00  0.00    -0.146 NA
ATOM     11  N   UNL     1      35.454 -16.497 -23.382  0.00  0.00    -0.257 N 
ATOM     12  N   UNL     1      35.563 -14.521 -21.983  0.00  0.00    -0.129 NA
ATOM     13  N   UNL     1      34.744 -16.979 -24.420  0.00  0.00    -0.157 NA
ATOM     14  N   UNL     1      32.921 -16.028 -25.653  0.00  0.00    -0.341 N 
ATOM     15  C   UNL     1      33.971 -12.923 -22.564  0.00  0.00    +0.106 C 
ATOM     16  C   UNL     1      33.418 -13.657 -23.605  0.00  0.00    +0.027 C 
ATOM     17  C   UNL     1      34.010 -14.899 -23.813  0.00  0.00    +0.071 A 
ATOM     18  C   UNL     1      35.054 -15.258 -22.982  0.00  0.00    +0.180 A 
ATOM     19  C   UNL     1      33.867 -16.003 -24.678  0.00  0.00    +0.148 A 
ATOM     20  H   UNL     1      36.189 -16.992 -22.955  0.00  0.00    +0.191 HD
ATOM     21  H   UNL     1      32.845 -16.813 -26.243  0.00  0.00    +0.144 HD
ATOM     22  H   UNL     1      32.313 -15.264 -25.770  0.00  0.00    +0.144 HD
ENDBRANCH   3  15
BRANCH   5  23
ATOM     23  C   UNL     1      34.384 -10.109 -24.065  0.00  0.00    +0.019 C 
ATOM     24  C   UNL     1      35.408  -9.163 -24.021  0.00  0.00    +0.002 C 
ATOM     25  C   UNL     1      34.113 -10.788 -25.253  0.00  0.00    +0.002 C 
ATOM     26  C   UNL     1      36.160  -8.895 -25.165  0.00  0.00    +0.000 C 
ATOM     27  C   UNL     1      34.865 -10.520 -26.397  0.00  0.00    +0.000 C 
ATOM     28  C   UNL     1      35.889  -9.574 -26.352  0.00  0.00    +0.000 C 
ENDBRANCH   5  23
TORSDOF 2
ENDMDL
MODEL 7
REMARK VINA RESULT:     -11.1      2.209      5.351
REMARK  Name = 53338808
REMARK  2 active torsions:
REMARK  status: ('A' for Active; 'I' for Inactive)
REMARK    1  A    between atoms: C_3  and  C_15
REMARK    2  A    between atoms: C_5  and  C_23
REMARK                            x       y       z     vdW  Elec       q    Type
REMARK                         _______ _______ _______ _____ _____    ______ ____
ROOT
ATOM      1  N   UNL     1      32.444 -23.936 -13.638  0.00  0.00    -0.228 N 
ATOM      2  N   UNL     1      33.646 -24.300 -13.114  0.00  0.00    -0.165 NA
ATOM      3  C   UNL     1      33.968 -23.084 -15.021  0.00  0.00    +0.056 A 
ATOM      4  C   UNL     1      32.617 -23.190 -14.807  0.00  0.00    +0.086 A 
ATOM      5  C   UNL     1      34.547 -23.783 -13.951  0.00  0.00    +0.104 A 
ATOM      6  C   UNL     1      31.454 -22.728 -15.486  0.00  0.00    +0.019 C 
ATOM      7  C   UNL     1      31.173 -24.230 -13.131  0.00  0.00    +0.100 C 
ATOM      8  C   UNL     1      30.236 -23.016 -14.992  0.00  0.00    +0.003 C 
ATOM      9  C   UNL     1      30.079 -23.792 -13.774  0.00  0.00    +0.021 C 
ENDROOT
BRANCH   3  15
ATOM     10  N   UNL     1      35.913 -22.251 -16.065  0.00  0.00    -0.146 NA
ATOM     11  N   UNL     1      36.259 -20.485 -19.149  0.00  0.00    -0.257 N 
ATOM     12  N   UNL     1      36.568 -21.627 -17.033  0.00  0.00    -0.129 NA
ATOM     13  N   UNL     1      35.267 -20.139 -19.991  0.00  0.00    -0.157 NA
ATOM     14  N   UNL     1      32.902 -20.511 -19.868  0.00  0.00    -0.341 N 
ATOM     15  C   UNL     1      34.563 -22.389 -16.126  0.00  0.00    +0.106 C 
ATOM     16  C   UNL     1      33.760 -21.915 -17.155  0.00  0.00    +0.027 C 
ATOM     17  C   UNL     1      34.452 -21.260 -18.170  0.00  0.00    +0.071 A 
ATOM     18  C   UNL     1      35.825 -21.156 -18.047  0.00  0.00    +0.180 A 
ATOM     19  C   UNL     1      34.170 -20.613 -19.390  0.00  0.00    +0.148 A 
ATOM     20  H   UNL     1      37.206 -20.273 -19.314  0.00  0.00    +0.191 HD
ATOM     21  H   UNL     1      32.734 -20.054 -20.724  0.00  0.00    +0.144 HD
ATOM     22  H   UNL     1      32.151 -20.893 -19.359  0.00  0.00    +0.144 HD
ENDBRANCH   3  15
BRANCH   5  23
ATOM     23  C   UNL     1      35.953 -23.978 -13.699  0.00  0.00    +0.019 C 
ATOM     24  C   UNL     1      36.611 -23.174 -12.769  0.00  0.00    +0.002 C 
ATOM     25  C   UNL     1      36.654 -24.969 -14.385  0.00  0.00    +0.002 C 
ATOM     26  C   UNL     1      37.972 -23.362 -12.524  0.00  0.00    +0.000 C 
ATOM     27  C   UNL     1      38.015 -25.157 -14.140  0.00  0.00    +0.000 C 
ATOM     28  C   UNL     1      38.673 -24.354 -13.210  0.00  0.00    +0.000 C 
ENDBRANCH   5  23
TORSDOF 2
ENDMDL
MODEL 8
REMARK VINA RESULT:     -10.9      2.380      4.914
REMARK  Name = 53338808
REMARK  2 active torsions:
REMARK  status: ('A' for Active; 'I' for Inactive)
REMARK    1  A    between atoms: C_3  and  C_15
REMARK    2  A    between atoms: C_5  and  C_23
REMARK                            x       y       z     vdW  Elec       q    Type
REMARK                         _______ _______ _______ _____ _____    ______ ____
ROOT
ATOM      1  N   UNL     1      32.053 -23.774 -13.810  0.00  0.00    -0.228 N 
ATOM      2  N   UNL     1      33.243 -24.186 -13.293  0.00  0.00    -0.165 NA
ATOM      3  C   UNL     1      33.586 -23.173 -15.311  0.00  0.00    +0.056 A 
ATOM      4  C   UNL     1      32.239 -23.150 -15.047  0.00  0.00    +0.086 A 
ATOM      5  C   UNL     1      34.149 -23.820 -14.201  0.00  0.00    +0.104 A 
ATOM      6  C   UNL     1      31.091 -22.656 -15.729  0.00  0.00    +0.019 C 
ATOM      7  C   UNL     1      30.783 -23.918 -13.240  0.00  0.00    +0.100 C 
ATOM      8  C   UNL     1      29.874 -22.800 -15.173  0.00  0.00    +0.003 C 
ATOM      9  C   UNL     1      29.703 -23.451 -13.886  0.00  0.00    +0.021 C 
ENDROOT
BRANCH   3  15
ATOM     10  N   UNL     1      33.643 -23.039 -17.666  0.00  0.00    -0.146 NA
ATOM     11  N   UNL     1      35.809 -21.150 -19.784  0.00  0.00    -0.257 N 
ATOM     12  N   UNL     1      34.120 -22.597 -18.820  0.00  0.00    -0.129 NA
ATOM     13  N   UNL     1      36.806 -20.335 -19.390  0.00  0.00    -0.157 NA
ATOM     14  N   UNL     1      37.590 -19.760 -17.199  0.00  0.00    -0.341 N 
ATOM     15  C   UNL     1      34.190 -22.627 -16.492  0.00  0.00    +0.106 C 
ATOM     16  C   UNL     1      35.254 -21.743 -16.377  0.00  0.00    +0.027 C 
ATOM     17  C   UNL     1      35.754 -21.281 -17.592  0.00  0.00    +0.071 A 
ATOM     18  C   UNL     1      35.150 -21.739 -18.748  0.00  0.00    +0.180 A 
ATOM     19  C   UNL     1      36.767 -20.419 -18.055  0.00  0.00    +0.148 A 
ATOM     20  H   UNL     1      35.580 -21.305 -20.728  0.00  0.00    +0.191 HD
ATOM     21  H   UNL     1      38.290 -19.163 -17.551  0.00  0.00    +0.144 HD
ATOM     22  H   UNL     1      37.488 -19.879 -16.227  0.00  0.00    +0.144 HD
ENDBRANCH   3  15
BRANCH   5  23
ATOM     23  C   UNL     1      35.544 -24.105 -13.976  0.00  0.00    +0.019 C 
ATOM     24  C   UNL     1      36.292 -23.293 -13.124  0.00  0.00    +0.002 C 
ATOM     25  C   UNL     1      36.145 -25.192 -14.610  0.00  0.00    +0.002 C 
ATOM     26  C   UNL     1      37.641 -23.568 -12.905  0.00  0.00    +0.000 C 
ATOM     27  C   UNL     1      37.495 -25.467 -14.391  0.00  0.00    +0.000 C 
ATOM     28  C   UNL     1      38.243 -24.655 -13.539  0.00  0.00    +0.000 C 
ENDBRANCH   5  23
TORSDOF 2
ENDMDL
MODEL 9
REMARK VINA RESULT:     -10.8      2.201      5.983
REMARK  Name = 53338808
REMARK  2 active torsions:
REMARK  status: ('A' for Active; 'I' for Inactive)
REMARK    1  A    between atoms: C_3  and  C_15
REMARK    2  A    between atoms: C_5  and  C_23
REMARK                            x       y       z     vdW  Elec       q    Type
REMARK                         _______ _______ _______ _____ _____    ______ ____
ROOT
ATOM      1  N   UNL     1      35.546 -23.876 -12.304  0.00  0.00    -0.228 N 
ATOM      2  N   UNL     1      34.188 -23.908 -12.225  0.00  0.00    -0.165 NA
ATOM      3  C   UNL     1      34.827 -23.228 -14.310  0.00  0.00    +0.056 A 
ATOM      4  C   UNL     1      35.961 -23.463 -13.573  0.00  0.00    +0.086 A 
ATOM      5  C   UNL     1      33.773 -23.519 -13.431  0.00  0.00    +0.104 A 
ATOM      6  C   UNL     1      37.358 -23.374 -13.827  0.00  0.00    +0.019 C 
ATOM      7  C   UNL     1      36.463 -24.200 -11.298  0.00  0.00    +0.100 C 
ATOM      8  C   UNL     1      38.233 -23.687 -12.853  0.00  0.00    +0.003 C 
ATOM      9  C   UNL     1      37.781 -24.116 -11.541  0.00  0.00    +0.021 C 
ENDROOT
BRANCH   3  15
ATOM     10  N   UNL     1      33.889 -23.370 -16.471  0.00  0.00    -0.146 NA
ATOM     11  N   UNL     1      34.761 -21.602 -19.447  0.00  0.00    -0.257 N 
ATOM     12  N   UNL     1      33.794 -23.035 -17.749  0.00  0.00    -0.129 NA
ATOM     13  N   UNL     1      35.734 -20.680 -19.577  0.00  0.00    -0.157 NA
ATOM     14  N   UNL     1      37.286 -19.800 -17.976  0.00  0.00    -0.341 N 
ATOM     15  C   UNL     1      34.824 -22.786 -15.675  0.00  0.00    +0.106 C 
ATOM     16  C   UNL     1      35.735 -21.826 -16.091  0.00  0.00    +0.027 C 
ATOM     17  C   UNL     1      35.632 -21.477 -17.435  0.00  0.00    +0.071 A 
ATOM     18  C   UNL     1      34.659 -22.108 -18.187  0.00  0.00    +0.180 A 
ATOM     19  C   UNL     1      36.261 -20.609 -18.349  0.00  0.00    +0.148 A 
ATOM     20  H   UNL     1      34.181 -21.882 -20.191  0.00  0.00    +0.191 HD
ATOM     21  H   UNL     1      37.707 -19.202 -18.637  0.00  0.00    +0.144 HD
ATOM     22  H   UNL     1      37.609 -19.810 -17.047  0.00  0.00    +0.144 HD
ENDBRANCH   3  15
BRANCH   5  23
ATOM     23  C   UNL     1      32.361 -23.434 -13.710  0.00  0.00    +0.019 C 
ATOM     24  C   UNL     1      31.775 -22.195 -13.969  0.00  0.00    +0.002 C 
ATOM     25  C   UNL     1      31.581 -24.590 -13.720  0.00  0.00    +0.002 C 
ATOM     26  C   UNL     1      30.409 -22.112 -14.240  0.00  0.00    +0.000 C 
ATOM     27  C   UNL     1      30.215 -24.507 -13.990  0.00  0.00    +0.000 C 
ATOM     28  C   UNL     1      29.629 -23.268 -14.250  0.00  0.00    +0.000 C 
ENDBRANCH   5  23
TORSDOF 2
ENDMDL
