MODEL 1
REMARK VINA RESULT:     -12.5      0.000      0.000
REMARK  Name = 46937054
REMARK  4 active torsions:
REMARK  status: ('A' for Active; 'I' for Inactive)
REMARK    1  A    between atoms: C_5  and  C_18
REMARK    2  A    between atoms: C_11  and  O_19
REMARK    3  A    between atoms: O_19  and  C_20
REMARK    4  A    between atoms: C_20  and  C_22
REMARK                            x       y       z     vdW  Elec       q    Type
REMARK                         _______ _______ _______ _____ _____    ______ ____
ROOT
ATOM      1 CL   UNL     1      30.395 -22.956 -15.653  0.00  0.00    -0.047 Cl
ATOM      2  O   UNL     1      35.959 -22.165 -16.785  0.00  0.00    -0.263 OA
ATOM      3  N   UNL     1      34.343 -22.874 -15.258  0.00  0.00    -0.240 N 
ATOM      4  N   UNL     1      32.430 -22.387 -17.228  0.00  0.00    -0.351 NA
ATOM      5  C   UNL     1      35.144 -23.154 -14.065  0.00  0.00    +0.161 C 
ATOM      6  C   UNL     1      34.076 -23.469 -13.058  0.00  0.00    +0.057 C 
ATOM      7  C   UNL     1      32.998 -23.025 -14.997  0.00  0.00    +0.091 C 
ATOM      8  C   UNL     1      32.858 -23.406 -13.617  0.00  0.00    -0.005 C 
ATOM      9  C   UNL     1      34.806 -22.406 -16.466  0.00  0.00    +0.320 C 
ATOM     10  C   UNL     1      32.092 -22.788 -15.955  0.00  0.00    +0.206 C 
ATOM     11  C   UNL     1      33.690 -22.204 -17.462  0.00  0.00    +0.335 C 
ENDROOT
BRANCH   5  18
ATOM     12  O   UNL     1      35.528 -25.307 -15.006  0.00  0.00    -0.273 OA
ATOM     13  N   UNL     1      37.186 -24.437 -13.652  0.00  0.00    -0.278 N 
ATOM     14  C   UNL     1      37.756 -23.399 -12.800  0.00  0.00    +0.094 C 
ATOM     15  C   UNL     1      38.088 -25.573 -13.766  0.00  0.00    +0.094 C 
ATOM     16  C   UNL     1      38.960 -24.062 -12.146  0.00  0.00    +0.023 C 
ATOM     17  C   UNL     1      39.406 -25.071 -13.198  0.00  0.00    +0.023 C 
ATOM     18  C   UNL     1      35.961 -24.400 -14.294  0.00  0.00    +0.244 C 
ENDBRANCH   5  18
BRANCH  11  19
ATOM     19  O   UNL     1      34.134 -21.807 -18.664  0.00  0.00    -0.444 OA
BRANCH  19  20
ATOM     20  C   UNL     1      33.591 -20.568 -19.103  0.00  0.00    +0.235 C 
BRANCH  20  22
ATOM     21  F   UNL     1      37.590 -17.656 -21.788  0.00  0.00    -0.204 F 
ATOM     22  C   UNL     1      34.657 -19.791 -19.818  0.00  0.00    +0.021 C 
ATOM     23  C   UNL     1      35.983 -19.875 -19.396  0.00  0.00    +0.002 C 
ATOM     24  C   UNL     1      34.321 -18.986 -20.906  0.00  0.00    +0.002 C 
ATOM     25  C   UNL     1      36.974 -19.153 -20.061  0.00  0.00    +0.029 C 
ATOM     26  C   UNL     1      35.312 -18.264 -21.572  0.00  0.00    +0.029 C 
ATOM     27  C   UNL     1      36.639 -18.348 -21.149  0.00  0.00    +0.140 C 
ENDBRANCH  20  22
ENDBRANCH  19  20
ENDBRANCH  11  19
TORSDOF 4
ENDMDL
MODEL 2
REMARK VINA RESULT:     -11.0      2.559      5.058
REMARK  Name = 46937054
REMARK  4 active torsions:
REMARK  status: ('A' for Active; 'I' for Inactive)
REMARK    1  A    between atoms: C_5  and  C_18
REMARK    2  A    between atoms: C_11  and  O_19
REMARK    3  A    between atoms: O_19  and  C_20
REMARK    4  A    between atoms: C_20  and  C_22
REMARK                            x       y       z     vdW  Elec       q    Type
REMARK                         _______ _______ _______ _____ _____    ______ ____
ROOT
ATOM      1 CL   UNL     1      37.378 -22.481 -13.790  0.00  0.00    -0.047 Cl
ATOM      2  O   UNL     1      32.886 -22.677 -17.348  0.00  0.00    -0.263 OA
ATOM      3  N   UNL     1      33.699 -23.005 -15.185  0.00  0.00    -0.240 N 
ATOM      4  N   UNL     1      36.156 -22.039 -16.082  0.00  0.00    -0.351 NA
ATOM      5  C   UNL     1      32.540 -23.582 -14.502  0.00  0.00    +0.161 C 
ATOM      6  C   UNL     1      33.124 -23.916 -13.158  0.00  0.00    +0.057 C 
ATOM      7  C   UNL     1      34.800 -22.980 -14.356  0.00  0.00    +0.091 C 
ATOM      8  C   UNL     1      34.412 -23.548 -13.092  0.00  0.00    -0.005 C 
ATOM      9  C   UNL     1      33.769 -22.631 -16.506  0.00  0.00    +0.320 C 
ATOM     10  C   UNL     1      35.973 -22.511 -14.802  0.00  0.00    +0.206 C 
ATOM     11  C   UNL     1      35.134 -22.100 -16.875  0.00  0.00    +0.335 C 
ENDROOT
BRANCH   5  18
ATOM     12  O   UNL     1      31.729 -21.526 -13.616  0.00  0.00    -0.273 OA
ATOM     13  N   UNL     1      30.285 -22.743 -14.948  0.00  0.00    -0.278 N 
ATOM     14  C   UNL     1      29.943 -23.890 -15.783  0.00  0.00    +0.094 C 
ATOM     15  C   UNL     1      29.171 -21.813 -14.856  0.00  0.00    +0.094 C 
ATOM     16  C   UNL     1      28.440 -23.773 -15.991  0.00  0.00    +0.023 C 
ATOM     17  C   UNL     1      28.204 -22.269 -15.937  0.00  0.00    +0.023 C 
ATOM     18  C   UNL     1      31.492 -22.516 -14.309  0.00  0.00    +0.244 C 
ENDBRANCH   5  18
BRANCH  11  19
ATOM     19  O   UNL     1      35.199 -21.674 -18.145  0.00  0.00    -0.444 OA
BRANCH  19  20
ATOM     20  C   UNL     1      36.349 -20.890 -18.436  0.00  0.00    +0.235 C 
BRANCH  20  22
ATOM     21  F   UNL     1      35.082 -17.202 -22.495  0.00  0.00    -0.204 F 
ATOM     22  C   UNL     1      36.012 -19.907 -19.518  0.00  0.00    +0.021 C 
ATOM     23  C   UNL     1      34.719 -19.859 -20.038  0.00  0.00    +0.002 C 
ATOM     24  C   UNL     1      36.991 -19.042 -20.004  0.00  0.00    +0.002 C 
ATOM     25  C   UNL     1      34.404 -18.946 -21.044  0.00  0.00    +0.029 C 
ATOM     26  C   UNL     1      36.677 -18.128 -21.011  0.00  0.00    +0.029 C 
ATOM     27  C   UNL     1      35.383 -18.079 -21.530  0.00  0.00    +0.140 C 
ENDBRANCH  20  22
ENDBRANCH  19  20
ENDBRANCH  11  19
TORSDOF 4
ENDMDL
MODEL 3
REMARK VINA RESULT:     -11.0      6.607     11.133
REMARK  Name = 46937054
REMARK  4 active torsions:
REMARK  status: ('A' for Active; 'I' for Inactive)
REMARK    1  A    between atoms: C_5  and  C_18
REMARK    2  A    between atoms: C_11  and  O_19
REMARK    3  A    between atoms: O_19  and  C_20
REMARK    4  A    between atoms: C_20  and  C_22
REMARK                            x       y       z     vdW  Elec       q    Type
REMARK                         _______ _______ _______ _____ _____    ______ ____
ROOT
ATOM      1 CL   UNL     1      34.569 -16.091 -25.097  0.00  0.00    -0.047 Cl
ATOM      2  O   UNL     1      35.225 -14.696 -19.575  0.00  0.00    -0.263 OA
ATOM      3  N   UNL     1      34.419 -14.082 -21.677  0.00  0.00    -0.240 N 
ATOM      4  N   UNL     1      35.222 -16.590 -22.594  0.00  0.00    -0.351 NA
ATOM      5  C   UNL     1      33.964 -12.710 -21.447  0.00  0.00    +0.161 C 
ATOM      6  C   UNL     1      33.583 -12.286 -22.837  0.00  0.00    +0.057 C 
ATOM      7  C   UNL     1      34.301 -14.426 -23.007  0.00  0.00    +0.091 C 
ATOM      8  C   UNL     1      33.769 -13.288 -23.709  0.00  0.00    -0.005 C 
ATOM      9  C   UNL     1      35.003 -14.918 -20.754  0.00  0.00    +0.320 C 
ATOM     10  C   UNL     1      34.690 -15.636 -23.431  0.00  0.00    +0.206 C 
ATOM     11  C   UNL     1      35.372 -16.254 -21.352  0.00  0.00    +0.335 C 
ENDROOT
BRANCH   5  18
ATOM     12  O   UNL     1      32.176 -13.802 -20.316  0.00  0.00    -0.273 OA
ATOM     13  N   UNL     1      32.245 -11.496 -20.199  0.00  0.00    -0.278 N 
ATOM     14  C   UNL     1      32.838 -10.196 -20.500  0.00  0.00    +0.094 C 
ATOM     15  C   UNL     1      31.048 -11.348 -19.385  0.00  0.00    +0.094 C 
ATOM     16  C   UNL     1      31.785  -9.188 -20.063  0.00  0.00    +0.023 C 
ATOM     17  C   UNL     1      31.085  -9.902 -18.914  0.00  0.00    +0.023 C 
ATOM     18  C   UNL     1      32.716 -12.732 -20.602  0.00  0.00    +0.244 C 
ENDBRANCH   5  18
BRANCH  11  19
ATOM     19  O   UNL     1      35.886 -17.102 -20.448  0.00  0.00    -0.444 OA
BRANCH  19  20
ATOM     20  C   UNL     1      36.123 -18.411 -20.951  0.00  0.00    +0.235 C 
BRANCH  20  22
ATOM     21  F   UNL     1      33.290 -22.125 -17.810  0.00  0.00    -0.204 F 
ATOM     22  C   UNL     1      35.368 -19.401 -20.114  0.00  0.00    +0.021 C 
ATOM     23  C   UNL     1      33.977 -19.459 -20.187  0.00  0.00    +0.002 C 
ATOM     24  C   UNL     1      36.057 -20.263 -19.261  0.00  0.00    +0.002 C 
ATOM     25  C   UNL     1      33.274 -20.379 -19.409  0.00  0.00    +0.029 C 
ATOM     26  C   UNL     1      35.355 -21.184 -18.483  0.00  0.00    +0.029 C 
ATOM     27  C   UNL     1      33.963 -21.242 -18.557  0.00  0.00    +0.140 C 
ENDBRANCH  20  22
ENDBRANCH  19  20
ENDBRANCH  11  19
TORSDOF 4
ENDMDL
MODEL 4
REMARK VINA RESULT:      -9.9      9.626     13.384
REMARK  Name = 46937054
REMARK  4 active torsions:
REMARK  status: ('A' for Active; 'I' for Inactive)
REMARK    1  A    between atoms: C_5  and  C_18
REMARK    2  A    between atoms: C_11  and  O_19
REMARK    3  A    between atoms: O_19  and  C_20
REMARK    4  A    between atoms: C_20  and  C_22
REMARK                            x       y       z     vdW  Elec       q    Type
REMARK                         _______ _______ _______ _____ _____    ______ ____
ROOT
ATOM      1 CL   UNL     1      32.289 -14.253 -18.780  0.00  0.00    -0.047 Cl
ATOM      2  O   UNL     1      33.383 -10.812 -23.233  0.00  0.00    -0.263 OA
ATOM      3  N   UNL     1      32.245 -11.123 -21.220  0.00  0.00    -0.240 N 
ATOM      4  N   UNL     1      33.572 -13.564 -20.976  0.00  0.00    -0.351 NA
ATOM      5  C   UNL     1      31.403  -9.927 -21.151  0.00  0.00    +0.161 C 
ATOM      6  C   UNL     1      30.578 -10.215 -19.929  0.00  0.00    +0.057 C 
ATOM      7  C   UNL     1      31.972 -11.981 -20.176  0.00  0.00    +0.091 C 
ATOM      8  C   UNL     1      30.933 -11.386 -19.378  0.00  0.00    -0.005 C 
ATOM      9  C   UNL     1      33.119 -11.453 -22.229  0.00  0.00    +0.320 C 
ATOM     10  C   UNL     1      32.620 -13.149 -20.072  0.00  0.00    +0.206 C 
ATOM     11  C   UNL     1      33.799 -12.779 -21.981  0.00  0.00    +0.335 C 
ENDROOT
BRANCH   5  18
ATOM     12  O   UNL     1      32.854  -8.620 -19.789  0.00  0.00    -0.273 OA
ATOM     13  N   UNL     1      32.330  -7.783 -21.878  0.00  0.00    -0.278 N 
ATOM     14  C   UNL     1      31.663  -7.849 -23.174  0.00  0.00    +0.094 C 
ATOM     15  C   UNL     1      33.115  -6.564 -21.755  0.00  0.00    +0.094 C 
ATOM     16  C   UNL     1      31.844  -6.458 -23.765  0.00  0.00    +0.023 C 
ATOM     17  C   UNL     1      33.170  -6.003 -23.168  0.00  0.00    +0.023 C 
ATOM     18  C   UNL     1      32.266  -8.725 -20.866  0.00  0.00    +0.244 C 
ENDBRANCH   5  18
BRANCH  11  19
ATOM     19  O   UNL     1      34.700 -13.084 -22.926  0.00  0.00    -0.444 OA
BRANCH  19  20
ATOM     20  C   UNL     1      34.153 -13.757 -24.053  0.00  0.00    +0.235 C 
BRANCH  20  22
ATOM     21  F   UNL     1      35.099 -19.281 -23.533  0.00  0.00    -0.204 F 
ATOM     22  C   UNL     1      34.405 -15.229 -23.914  0.00  0.00    +0.021 C 
ATOM     23  C   UNL     1      35.248 -15.701 -22.908  0.00  0.00    +0.002 C 
ATOM     24  C   UNL     1      33.798 -16.126 -24.792  0.00  0.00    +0.002 C 
ATOM     25  C   UNL     1      35.483 -17.069 -22.779  0.00  0.00    +0.029 C 
ATOM     26  C   UNL     1      34.032 -17.496 -24.663  0.00  0.00    +0.029 C 
ATOM     27  C   UNL     1      34.875 -17.967 -23.656  0.00  0.00    +0.140 C 
ENDBRANCH  20  22
ENDBRANCH  19  20
ENDBRANCH  11  19
TORSDOF 4
ENDMDL
MODEL 5
REMARK VINA RESULT:      -9.6      3.242      5.034
REMARK  Name = 46937054
REMARK  4 active torsions:
REMARK  status: ('A' for Active; 'I' for Inactive)
REMARK    1  A    between atoms: C_5  and  C_18
REMARK    2  A    between atoms: C_11  and  O_19
REMARK    3  A    between atoms: O_19  and  C_20
REMARK    4  A    between atoms: C_20  and  C_22
REMARK                            x       y       z     vdW  Elec       q    Type
REMARK                         _______ _______ _______ _____ _____    ______ ____
ROOT
ATOM      1 CL   UNL     1      37.779 -20.956 -15.738  0.00  0.00    -0.047 Cl
ATOM      2  O   UNL     1      33.579 -21.812 -19.545  0.00  0.00    -0.263 OA
ATOM      3  N   UNL     1      34.373 -22.165 -17.380  0.00  0.00    -0.240 N 
ATOM      4  N   UNL     1      36.565 -20.573 -18.045  0.00  0.00    -0.351 NA
ATOM      5  C   UNL     1      33.360 -23.060 -16.818  0.00  0.00    +0.161 C 
ATOM      6  C   UNL     1      33.961 -23.387 -15.481  0.00  0.00    +0.057 C 
ATOM      7  C   UNL     1      35.410 -21.973 -16.492  0.00  0.00    +0.091 C 
ATOM      8  C   UNL     1      35.124 -22.742 -15.309  0.00  0.00    -0.005 C 
ATOM      9  C   UNL     1      34.398 -21.651 -18.655  0.00  0.00    +0.320 C 
ATOM     10  C   UNL     1      36.455 -21.204 -16.826  0.00  0.00    +0.206 C 
ATOM     11  C   UNL     1      35.612 -20.786 -18.896  0.00  0.00    +0.335 C 
ENDROOT
BRANCH   5  18
ATOM     12  O   UNL     1      31.901 -21.207 -17.147  0.00  0.00    -0.273 OA
ATOM     13  N   UNL     1      31.181 -22.876 -15.721  0.00  0.00    -0.278 N 
ATOM     14  C   UNL     1      31.337 -24.153 -15.031  0.00  0.00    +0.094 C 
ATOM     15  C   UNL     1      29.907 -22.256 -15.389  0.00  0.00    +0.094 C 
ATOM     16  C   UNL     1      30.204 -24.176 -14.015  0.00  0.00    +0.023 C 
ATOM     17  C   UNL     1      29.117 -23.355 -14.697  0.00  0.00    +0.023 C 
ATOM     18  C   UNL     1      32.085 -22.289 -16.587  0.00  0.00    +0.244 C 
ENDBRANCH   5  18
BRANCH  11  19
ATOM     19  O   UNL     1      35.617 -20.228 -20.115  0.00  0.00    -0.444 OA
BRANCH  19  20
ATOM     20  C   UNL     1      36.118 -18.897 -20.142  0.00  0.00    +0.235 C 
BRANCH  20  22
ATOM     21  F   UNL     1      34.279 -16.337 -24.806  0.00  0.00    -0.204 F 
ATOM     22  C   UNL     1      35.628 -18.214 -21.385  0.00  0.00    +0.021 C 
ATOM     23  C   UNL     1      35.880 -16.857 -21.581  0.00  0.00    +0.002 C 
ATOM     24  C   UNL     1      34.919 -18.937 -22.344  0.00  0.00    +0.002 C 
ATOM     25  C   UNL     1      35.424 -16.222 -22.737  0.00  0.00    +0.029 C 
ATOM     26  C   UNL     1      34.463 -18.303 -23.501  0.00  0.00    +0.029 C 
ATOM     27  C   UNL     1      34.716 -16.945 -23.697  0.00  0.00    +0.140 C 
ENDBRANCH  20  22
ENDBRANCH  19  20
ENDBRANCH  11  19
TORSDOF 4
ENDMDL
MODEL 6
REMARK VINA RESULT:      -9.5      3.570      8.489
REMARK  Name = 46937054
REMARK  4 active torsions:
REMARK  status: ('A' for Active; 'I' for Inactive)
REMARK    1  A    between atoms: C_5  and  C_18
REMARK    2  A    between atoms: C_11  and  O_19
REMARK    3  A    between atoms: O_19  and  C_20
REMARK    4  A    between atoms: C_20  and  C_22
REMARK                            x       y       z     vdW  Elec       q    Type
REMARK                         _______ _______ _______ _____ _____    ______ ____
ROOT
ATOM      1 CL   UNL     1      32.405 -21.774 -17.287  0.00  0.00    -0.047 Cl
ATOM      2  O   UNL     1      37.414 -20.284 -19.644  0.00  0.00    -0.263 OA
ATOM      3  N   UNL     1      35.086 -20.154 -19.725  0.00  0.00    -0.240 N 
ATOM      4  N   UNL     1      35.035 -21.608 -17.346  0.00  0.00    -0.351 NA
ATOM      5  C   UNL     1      34.858 -19.436 -20.980  0.00  0.00    +0.161 C 
ATOM      6  C   UNL     1      33.360 -19.488 -21.084  0.00  0.00    +0.057 C 
ATOM      7  C   UNL     1      33.894 -20.551 -19.159  0.00  0.00    +0.091 C 
ATOM      8  C   UNL     1      32.829 -20.115 -20.023  0.00  0.00    -0.005 C 
ATOM      9  C   UNL     1      36.303 -20.514 -19.196  0.00  0.00    +0.320 C 
ATOM     10  C   UNL     1      33.886 -21.248 -18.014  0.00  0.00    +0.206 C 
ATOM     11  C   UNL     1      36.157 -21.272 -17.898  0.00  0.00    +0.335 C 
ENDROOT
BRANCH   5  18
ATOM     12  O   UNL     1      35.648 -17.578 -19.718  0.00  0.00    -0.273 OA
ATOM     13  N   UNL     1      35.181 -17.214 -21.951  0.00  0.00    -0.278 N 
ATOM     14  C   UNL     1      34.745 -17.647 -23.275  0.00  0.00    +0.094 C 
ATOM     15  C   UNL     1      35.536 -15.803 -21.954  0.00  0.00    +0.094 C 
ATOM     16  C   UNL     1      34.574 -16.354 -24.060  0.00  0.00    +0.023 C 
ATOM     17  C   UNL     1      35.607 -15.431 -23.426  0.00  0.00    +0.023 C 
ATOM     18  C   UNL     1      35.270 -17.996 -20.813  0.00  0.00    +0.244 C 
ENDBRANCH   5  18
BRANCH  11  19
ATOM     19  O   UNL     1      37.337 -21.576 -17.339  0.00  0.00    -0.444 OA
BRANCH  19  20
ATOM     20  C   UNL     1      37.448 -21.194 -15.974  0.00  0.00    +0.235 C 
BRANCH  20  22
ATOM     21  F   UNL     1      38.107 -25.810 -12.821  0.00  0.00    -0.204 F 
ATOM     22  C   UNL     1      37.624 -22.424 -15.133  0.00  0.00    +0.021 C 
ATOM     23  C   UNL     1      36.550 -22.925 -14.398  0.00  0.00    +0.002 C 
ATOM     24  C   UNL     1      38.861 -23.067 -15.088  0.00  0.00    +0.002 C 
ATOM     25  C   UNL     1      36.713 -24.069 -13.616  0.00  0.00    +0.029 C 
ATOM     26  C   UNL     1      39.024 -24.211 -14.306  0.00  0.00    +0.029 C 
ATOM     27  C   UNL     1      37.950 -24.712 -13.570  0.00  0.00    +0.140 C 
ENDBRANCH  20  22
ENDBRANCH  19  20
ENDBRANCH  11  19
TORSDOF 4
ENDMDL
