MODEL 1
REMARK VINA RESULT:     -10.5      0.000      0.000
REMARK  Name = 16752640
REMARK  7 active torsions:
REMARK  status: ('A' for Active; 'I' for Inactive)
REMARK    1  A    between atoms: C_1  and  N_4
REMARK    2  A    between atoms: C_1  and  C_18
REMARK    3  A    between atoms: C_1  and  C_21
REMARK    4  A    between atoms: C_11  and  C_14
REMARK    5  A    between atoms: C_14  and  O_15
REMARK    6  A    between atoms: C_18  and  O_19
REMARK    7  A    between atoms: C_21  and  C_22
REMARK                            x       y       z     vdW  Elec       q    Type
REMARK                         _______ _______ _______ _____ _____    ______ ____
ROOT
ATOM      1  C   UNL     1      33.841 -10.798 -22.809  0.00  0.00    +0.186 C 
ENDROOT
BRANCH   1   4
ATOM      2  O   UNL     1      34.937 -12.826 -20.913  0.00  0.00    -0.269 OA
ATOM      3  O   UNL     1      33.379 -12.433 -25.259  0.00  0.00    -0.269 OA
ATOM      4  N   UNL     1      34.088 -12.210 -23.024  0.00  0.00    -0.213 N 
ATOM      5  C   UNL     1      34.701 -14.366 -22.697  0.00  0.00    +0.059 C 
ATOM      6  C   UNL     1      34.606 -13.052 -22.062  0.00  0.00    +0.256 C 
ATOM      7  C   UNL     1      33.834 -12.859 -24.214  0.00  0.00    +0.256 C 
ATOM      8  C   UNL     1      34.234 -14.249 -23.998  0.00  0.00    +0.058 C 
ATOM      9  C   UNL     1      35.154 -15.565 -22.189  0.00  0.00    +0.011 C 
ATOM     10  C   UNL     1      34.196 -15.326 -24.859  0.00  0.00    +0.005 C 
ATOM     11  C   UNL     1      35.124 -16.671 -23.044  0.00  0.00    +0.076 C 
ATOM     12  C   UNL     1      34.651 -16.553 -24.366  0.00  0.00    +0.007 C 
BRANCH  11  14
ATOM     13  O   UNL     1      35.084 -19.055 -22.844  0.00  0.00    -0.245 OA
ATOM     14  C   UNL     1      35.589 -17.963 -22.562  0.00  0.00    +0.338 C 
BRANCH  14  15
ATOM     15  O   UNL     1      36.670 -17.855 -21.743  0.00  0.00    -0.477 OA
ATOM     16  H   UNL     1      36.779 -17.093 -21.210  0.00  0.00    +0.295 HD
ENDBRANCH  14  15
ENDBRANCH  11  14
ENDBRANCH   1   4
BRANCH   1  18
ATOM     17  O   UNL     1      33.384  -9.299 -24.652  0.00  0.00    -0.248 OA
ATOM     18  C   UNL     1      34.200  -9.987 -24.046  0.00  0.00    +0.333 C 
BRANCH  18  19
ATOM     19  O   UNL     1      35.496 -10.074 -24.428  0.00  0.00    -0.479 OA
ATOM     20  H   UNL     1      35.751 -10.697 -25.080  0.00  0.00    +0.295 HD
ENDBRANCH  18  19
ENDBRANCH   1  18
BRANCH   1  21
ATOM     21  C   UNL     1      32.380 -10.539 -22.418  0.00  0.00    +0.058 C 
BRANCH  21  22
ATOM     22  C   UNL     1      32.224 -10.098 -20.982  0.00  0.00    -0.020 C 
ATOM     23  C   UNL     1      32.331  -8.750 -20.602  0.00  0.00    -0.004 C 
ATOM     24  C   UNL     1      32.175  -8.402 -19.240  0.00  0.00    -0.000 C 
ATOM     25  C   UNL     1      31.967 -11.088 -20.034  0.00  0.00    -0.004 C 
ATOM     26  C   UNL     1      32.591  -7.741 -21.543  0.00  0.00    -0.000 C 
ATOM     27  C   UNL     1      31.915  -9.411 -18.298  0.00  0.00    -0.000 C 
ATOM     28  C   UNL     1      31.812 -10.745 -18.693  0.00  0.00    -0.000 C 
ATOM     29  C   UNL     1      32.282  -7.055 -18.859  0.00  0.00    -0.000 C 
ATOM     30  C   UNL     1      32.695  -6.408 -21.148  0.00  0.00    -0.000 C 
ATOM     31  C   UNL     1      32.541  -6.065 -19.808  0.00  0.00    -0.000 C 
ENDBRANCH  21  22
ENDBRANCH   1  21
TORSDOF 7
ENDMDL
MODEL 2
REMARK VINA RESULT:     -10.4      9.795     14.622
REMARK  Name = 16752640
REMARK  7 active torsions:
REMARK  status: ('A' for Active; 'I' for Inactive)
REMARK    1  A    between atoms: C_1  and  N_4
REMARK    2  A    between atoms: C_1  and  C_18
REMARK    3  A    between atoms: C_1  and  C_21
REMARK    4  A    between atoms: C_11  and  C_14
REMARK    5  A    between atoms: C_14  and  O_15
REMARK    6  A    between atoms: C_18  and  O_19
REMARK    7  A    between atoms: C_21  and  C_22
REMARK                            x       y       z     vdW  Elec       q    Type
REMARK                         _______ _______ _______ _____ _____    ______ ____
ROOT
ATOM      1  C   UNL     1      34.288 -23.270 -13.566  0.00  0.00    +0.186 C 
ENDROOT
BRANCH   1   4
ATOM      2  O   UNL     1      36.547 -21.902 -14.956  0.00  0.00    -0.269 OA
ATOM      3  O   UNL     1      32.164 -23.233 -15.659  0.00  0.00    -0.269 OA
ATOM      4  N   UNL     1      34.338 -22.725 -14.908  0.00  0.00    -0.213 N 
ATOM      5  C   UNL     1      35.066 -21.705 -16.795  0.00  0.00    +0.059 C 
ATOM      6  C   UNL     1      35.450 -22.107 -15.442  0.00  0.00    +0.256 C 
ATOM      7  C   UNL     1      33.280 -22.766 -15.792  0.00  0.00    +0.256 C 
ATOM      8  C   UNL     1      33.754 -22.103 -17.006  0.00  0.00    +0.058 C 
ATOM      9  C   UNL     1      35.794 -21.048 -17.764  0.00  0.00    +0.011 C 
ATOM     10  C   UNL     1      33.102 -21.866 -18.198  0.00  0.00    +0.005 C 
ATOM     11  C   UNL     1      35.154 -20.796 -18.981  0.00  0.00    +0.076 C 
ATOM     12  C   UNL     1      33.821 -21.200 -19.196  0.00  0.00    +0.007 C 
BRANCH  11  14
ATOM     13  O   UNL     1      35.353 -19.553 -21.016  0.00  0.00    -0.245 OA
ATOM     14  C   UNL     1      35.873 -20.107 -20.041  0.00  0.00    +0.338 C 
BRANCH  14  15
ATOM     15  O   UNL     1      37.221 -20.129 -19.856  0.00  0.00    -0.477 OA
ATOM     16  H   UNL     1      37.591 -19.775 -19.072  0.00  0.00    +0.295 HD
ENDBRANCH  14  15
ENDBRANCH  11  14
ENDBRANCH   1   4
BRANCH   1  18
ATOM     17  O   UNL     1      32.068 -22.999 -12.642  0.00  0.00    -0.248 OA
ATOM     18  C   UNL     1      32.877 -23.723 -13.214  0.00  0.00    +0.333 C 
BRANCH  18  19
ATOM     19  O   UNL     1      32.576 -24.989 -13.587  0.00  0.00    -0.479 OA
ATOM     20  H   UNL     1      33.256 -25.629 -13.664  0.00  0.00    +0.295 HD
ENDBRANCH  18  19
ENDBRANCH   1  18
BRANCH   1  21
ATOM     21  C   UNL     1      35.269 -24.437 -13.398  0.00  0.00    +0.058 C 
BRANCH  21  22
ATOM     22  C   UNL     1      36.568 -24.026 -12.747  0.00  0.00    -0.020 C 
ATOM     23  C   UNL     1      37.809 -24.512 -13.191  0.00  0.00    -0.004 C 
ATOM     24  C   UNL     1      38.990 -24.087 -12.538  0.00  0.00    -0.000 C 
ATOM     25  C   UNL     1      36.492 -23.134 -11.677  0.00  0.00    -0.004 C 
ATOM     26  C   UNL     1      37.903 -25.410 -14.266  0.00  0.00    -0.000 C 
ATOM     27  C   UNL     1      38.897 -23.188 -11.463  0.00  0.00    -0.000 C 
ATOM     28  C   UNL     1      37.656 -22.716 -11.035  0.00  0.00    -0.000 C 
ATOM     29  C   UNL     1      40.231 -24.572 -12.981  0.00  0.00    -0.000 C 
ATOM     30  C   UNL     1      39.144 -25.882 -14.692  0.00  0.00    -0.000 C 
ATOM     31  C   UNL     1      40.306 -25.465 -14.051  0.00  0.00    -0.000 C 
ENDBRANCH  21  22
ENDBRANCH   1  21
TORSDOF 7
ENDMDL
MODEL 3
REMARK VINA RESULT:     -10.4      8.404     12.756
REMARK  Name = 16752640
REMARK  7 active torsions:
REMARK  status: ('A' for Active; 'I' for Inactive)
REMARK    1  A    between atoms: C_1  and  N_4
REMARK    2  A    between atoms: C_1  and  C_18
REMARK    3  A    between atoms: C_1  and  C_21
REMARK    4  A    between atoms: C_11  and  C_14
REMARK    5  A    between atoms: C_14  and  O_15
REMARK    6  A    between atoms: C_18  and  O_19
REMARK    7  A    between atoms: C_21  and  C_22
REMARK                            x       y       z     vdW  Elec       q    Type
REMARK                         _______ _______ _______ _____ _____    ______ ____
ROOT
ATOM      1  C   UNL     1      34.209 -22.887 -15.864  0.00  0.00    +0.186 C 
ENDROOT
BRANCH   1   4
ATOM      2  O   UNL     1      32.678 -21.737 -18.154  0.00  0.00    -0.269 OA
ATOM      3  O   UNL     1      36.950 -21.826 -16.361  0.00  0.00    -0.269 OA
ATOM      4  N   UNL     1      34.677 -22.037 -16.941  0.00  0.00    -0.213 N 
ATOM      5  C   UNL     1      34.737 -20.770 -18.817  0.00  0.00    +0.059 C 
ATOM      6  C   UNL     1      33.867 -21.568 -17.953  0.00  0.00    +0.256 C 
ATOM      7  C   UNL     1      35.982 -21.610 -17.066  0.00  0.00    +0.256 C 
ATOM      8  C   UNL     1      36.015 -20.795 -18.281  0.00  0.00    +0.058 C 
ATOM      9  C   UNL     1      34.443 -20.077 -19.973  0.00  0.00    +0.011 C 
ATOM     10  C   UNL     1      37.069 -20.129 -18.872  0.00  0.00    +0.005 C 
ATOM     11  C   UNL     1      35.495 -19.393 -20.590  0.00  0.00    +0.076 C 
ATOM     12  C   UNL     1      36.795 -19.420 -20.046  0.00  0.00    +0.007 C 
BRANCH  11  14
ATOM     13  O   UNL     1      34.220 -18.715 -22.497  0.00  0.00    -0.245 OA
ATOM     14  C   UNL     1      35.245 -18.644 -21.812  0.00  0.00    +0.338 C 
BRANCH  14  15
ATOM     15  O   UNL     1      36.282 -17.829 -22.143  0.00  0.00    -0.477 OA
ATOM     16  H   UNL     1      36.288 -17.392 -22.972  0.00  0.00    +0.295 HD
ENDBRANCH  14  15
ENDBRANCH  11  14
ENDBRANCH   1   4
BRANCH   1  18
ATOM     17  O   UNL     1      35.892 -24.539 -15.325  0.00  0.00    -0.248 OA
ATOM     18  C   UNL     1      35.377 -23.455 -15.070  0.00  0.00    +0.333 C 
BRANCH  18  19
ATOM     19  O   UNL     1      35.815 -22.668 -14.059  0.00  0.00    -0.479 OA
ATOM     20  H   UNL     1      35.793 -21.735 -14.149  0.00  0.00    +0.295 HD
ENDBRANCH  18  19
ENDBRANCH   1  18
BRANCH   1  21
ATOM     21  C   UNL     1      33.257 -22.131 -14.927  0.00  0.00    +0.058 C 
BRANCH  21  22
ATOM     22  C   UNL     1      32.166 -23.009 -14.363  0.00  0.00    -0.020 C 
ATOM     23  C   UNL     1      30.861 -22.999 -14.883  0.00  0.00    -0.004 C 
ATOM     24  C   UNL     1      29.883 -23.845 -14.309  0.00  0.00    -0.000 C 
ATOM     25  C   UNL     1      32.502 -23.840 -13.295  0.00  0.00    -0.004 C 
ATOM     26  C   UNL     1      30.505 -22.167 -15.957  0.00  0.00    -0.000 C 
ATOM     27  C   UNL     1      30.238 -24.677 -13.235  0.00  0.00    -0.000 C 
ATOM     28  C   UNL     1      31.539 -24.673 -12.731  0.00  0.00    -0.000 C 
ATOM     29  C   UNL     1      28.578 -23.836 -14.828  0.00  0.00    -0.000 C 
ATOM     30  C   UNL     1      29.204 -22.171 -16.460  0.00  0.00    -0.000 C 
ATOM     31  C   UNL     1      28.242 -23.003 -15.896  0.00  0.00    -0.000 C 
ENDBRANCH  21  22
ENDBRANCH   1  21
TORSDOF 7
ENDMDL
MODEL 4
REMARK VINA RESULT:     -10.3      0.631      2.220
REMARK  Name = 16752640
REMARK  7 active torsions:
REMARK  status: ('A' for Active; 'I' for Inactive)
REMARK    1  A    between atoms: C_1  and  N_4
REMARK    2  A    between atoms: C_1  and  C_18
REMARK    3  A    between atoms: C_1  and  C_21
REMARK    4  A    between atoms: C_11  and  C_14
REMARK    5  A    between atoms: C_14  and  O_15
REMARK    6  A    between atoms: C_18  and  O_19
REMARK    7  A    between atoms: C_21  and  C_22
REMARK                            x       y       z     vdW  Elec       q    Type
REMARK                         _______ _______ _______ _____ _____    ______ ____
ROOT
ATOM      1  C   UNL     1      34.083 -10.814 -23.238  0.00  0.00    +0.186 C 
ENDROOT
BRANCH   1   4
ATOM      2  O   UNL     1      35.052 -12.834 -21.267  0.00  0.00    -0.269 OA
ATOM      3  O   UNL     1      33.437 -12.517 -25.599  0.00  0.00    -0.269 OA
ATOM      4  N   UNL     1      34.211 -12.250 -23.390  0.00  0.00    -0.213 N 
ATOM      5  C   UNL     1      34.654 -14.431 -22.971  0.00  0.00    +0.059 C 
ATOM      6  C   UNL     1      34.679 -13.086 -22.398  0.00  0.00    +0.256 C 
ATOM      7  C   UNL     1      33.879 -12.930 -24.543  0.00  0.00    +0.256 C 
ATOM      8  C   UNL     1      34.170 -14.337 -24.268  0.00  0.00    +0.058 C 
ATOM      9  C   UNL     1      35.019 -15.639 -22.414  0.00  0.00    +0.011 C 
ATOM     10  C   UNL     1      34.026 -15.446 -25.075  0.00  0.00    +0.005 C 
ATOM     11  C   UNL     1      34.882 -16.777 -23.214  0.00  0.00    +0.076 C 
ATOM     12  C   UNL     1      34.391 -16.682 -24.532  0.00  0.00    +0.007 C 
BRANCH  11  14
ATOM     13  O   UNL     1      35.716 -18.284 -21.554  0.00  0.00    -0.245 OA
ATOM     14  C   UNL     1      35.251 -18.078 -22.680  0.00  0.00    +0.338 C 
BRANCH  14  15
ATOM     15  O   UNL     1      35.029 -19.087 -23.566  0.00  0.00    -0.477 OA
ATOM     16  H   UNL     1      34.965 -18.900 -24.481  0.00  0.00    +0.295 HD
ENDBRANCH  14  15
ENDBRANCH  11  14
ENDBRANCH   1   4
BRANCH   1  18
ATOM     17  O   UNL     1      35.717  -9.833 -24.729  0.00  0.00    -0.248 OA
ATOM     18  C   UNL     1      34.540 -10.090 -24.497  0.00  0.00    +0.333 C 
BRANCH  18  19
ATOM     19  O   UNL     1      33.546  -9.754 -25.353  0.00  0.00    -0.479 OA
ATOM     20  H   UNL     1      32.985  -9.029 -25.158  0.00  0.00    +0.295 HD
ENDBRANCH  18  19
ENDBRANCH   1  18
BRANCH   1  21
ATOM     21  C   UNL     1      32.642 -10.413 -22.897  0.00  0.00    +0.058 C 
BRANCH  21  22
ATOM     22  C   UNL     1      32.559  -9.433 -21.751  0.00  0.00    -0.020 C 
ATOM     23  C   UNL     1      32.229  -9.840 -20.448  0.00  0.00    -0.004 C 
ATOM     24  C   UNL     1      32.168  -8.872 -19.417  0.00  0.00    -0.000 C 
ATOM     25  C   UNL     1      32.825  -8.094 -22.035  0.00  0.00    -0.004 C 
ATOM     26  C   UNL     1      31.957 -11.183 -20.145  0.00  0.00    -0.000 C 
ATOM     27  C   UNL     1      32.440  -7.527 -19.720  0.00  0.00    -0.000 C 
ATOM     28  C   UNL     1      32.766  -7.142 -21.020  0.00  0.00    -0.000 C 
ATOM     29  C   UNL     1      31.837  -9.277 -18.114  0.00  0.00    -0.000 C 
ATOM     30  C   UNL     1      31.630 -11.569 -18.845  0.00  0.00    -0.000 C 
ATOM     31  C   UNL     1      31.570 -10.618 -17.831  0.00  0.00    -0.000 C 
ENDBRANCH  21  22
ENDBRANCH   1  21
TORSDOF 7
ENDMDL
MODEL 5
REMARK VINA RESULT:     -10.3     12.226     15.002
REMARK  Name = 16752640
REMARK  7 active torsions:
REMARK  status: ('A' for Active; 'I' for Inactive)
REMARK    1  A    between atoms: C_1  and  N_4
REMARK    2  A    between atoms: C_1  and  C_18
REMARK    3  A    between atoms: C_1  and  C_21
REMARK    4  A    between atoms: C_11  and  C_14
REMARK    5  A    between atoms: C_14  and  O_15
REMARK    6  A    between atoms: C_18  and  O_19
REMARK    7  A    between atoms: C_21  and  C_22
REMARK                            x       y       z     vdW  Elec       q    Type
REMARK                         _______ _______ _______ _____ _____    ______ ____
ROOT
ATOM      1  C   UNL     1      33.975 -23.360 -15.913  0.00  0.00    +0.186 C 
ENDROOT
BRANCH   1   4
ATOM      2  O   UNL     1      32.052 -21.518 -17.260  0.00  0.00    -0.269 OA
ATOM      3  O   UNL     1      32.208 -24.792 -13.985  0.00  0.00    -0.269 OA
ATOM      4  N   UNL     1      32.552 -23.200 -15.686  0.00  0.00    -0.213 N 
ATOM      5  C   UNL     1      30.416 -22.463 -15.831  0.00  0.00    +0.059 C 
ATOM      6  C   UNL     1      31.763 -22.304 -16.376  0.00  0.00    +0.256 C 
ATOM      7  C   UNL     1      31.839 -23.926 -14.755  0.00  0.00    +0.256 C 
ATOM      8  C   UNL     1      30.462 -23.443 -14.850  0.00  0.00    +0.058 C 
ATOM      9  C   UNL     1      29.245 -21.812 -16.157  0.00  0.00    +0.011 C 
ATOM     10  C   UNL     1      29.339 -23.825 -14.146  0.00  0.00    +0.005 C 
ATOM     11  C   UNL     1      28.093 -22.182 -15.457  0.00  0.00    +0.076 C 
ATOM     12  C   UNL     1      28.140 -23.177 -14.460  0.00  0.00    +0.007 C 
BRANCH  11  14
ATOM     13  O   UNL     1      25.785 -21.656 -15.109  0.00  0.00    -0.245 OA
ATOM     14  C   UNL     1      26.828 -21.530 -15.759  0.00  0.00    +0.338 C 
BRANCH  14  15
ATOM     15  O   UNL     1      26.901 -20.740 -16.864  0.00  0.00    -0.477 OA
ATOM     16  H   UNL     1      26.433 -20.975 -17.640  0.00  0.00    +0.295 HD
ENDBRANCH  14  15
ENDBRANCH  11  14
ENDBRANCH   1   4
BRANCH   1  18
ATOM     17  O   UNL     1      35.128 -21.572 -17.065  0.00  0.00    -0.248 OA
ATOM     18  C   UNL     1      34.424 -22.574 -17.137  0.00  0.00    +0.333 C 
BRANCH  18  19
ATOM     19  O   UNL     1      33.991 -23.069 -18.321  0.00  0.00    -0.479 OA
ATOM     20  H   UNL     1      33.727 -22.485 -19.005  0.00  0.00    +0.295 HD
ENDBRANCH  18  19
ENDBRANCH   1  18
BRANCH   1  21
ATOM     21  C   UNL     1      34.790 -22.929 -14.686  0.00  0.00    +0.058 C 
BRANCH  21  22
ATOM     22  C   UNL     1      35.846 -23.937 -14.297  0.00  0.00    -0.020 C 
ATOM     23  C   UNL     1      36.754 -23.696 -13.253  0.00  0.00    -0.004 C 
ATOM     24  C   UNL     1      37.720 -24.681 -12.938  0.00  0.00    -0.000 C 
ATOM     25  C   UNL     1      35.888 -25.129 -15.019  0.00  0.00    -0.004 C 
ATOM     26  C   UNL     1      36.726 -22.501 -12.518  0.00  0.00    -0.000 C 
ATOM     27  C   UNL     1      37.748 -25.877 -13.673  0.00  0.00    -0.000 C 
ATOM     28  C   UNL     1      36.838 -26.098 -14.707  0.00  0.00    -0.000 C 
ATOM     29  C   UNL     1      38.628 -24.441 -11.894  0.00  0.00    -0.000 C 
ATOM     30  C   UNL     1      37.637 -22.279 -11.484  0.00  0.00    -0.000 C 
ATOM     31  C   UNL     1      38.586 -23.247 -11.173  0.00  0.00    -0.000 C 
ENDBRANCH  21  22
ENDBRANCH   1  21
TORSDOF 7
ENDMDL
MODEL 6
REMARK VINA RESULT:     -10.2      9.358     14.176
REMARK  Name = 16752640
REMARK  7 active torsions:
REMARK  status: ('A' for Active; 'I' for Inactive)
REMARK    1  A    between atoms: C_1  and  N_4
REMARK    2  A    between atoms: C_1  and  C_18
REMARK    3  A    between atoms: C_1  and  C_21
REMARK    4  A    between atoms: C_11  and  C_14
REMARK    5  A    between atoms: C_14  and  O_15
REMARK    6  A    between atoms: C_18  and  O_19
REMARK    7  A    between atoms: C_21  and  C_22
REMARK                            x       y       z     vdW  Elec       q    Type
REMARK                         _______ _______ _______ _____ _____    ______ ____
ROOT
ATOM      1  C   UNL     1      34.599 -23.356 -14.456  0.00  0.00    +0.186 C 
ENDROOT
BRANCH   1   4
ATOM      2  O   UNL     1      36.874 -21.898 -15.725  0.00  0.00    -0.269 OA
ATOM      3  O   UNL     1      32.410 -22.920 -16.433  0.00  0.00    -0.269 OA
ATOM      4  N   UNL     1      34.630 -22.623 -15.707  0.00  0.00    -0.213 N 
ATOM      5  C   UNL     1      35.343 -21.370 -17.454  0.00  0.00    +0.059 C 
ATOM      6  C   UNL     1      35.752 -21.982 -16.190  0.00  0.00    +0.256 C 
ATOM      7  C   UNL     1      33.542 -22.488 -16.543  0.00  0.00    +0.256 C 
ATOM      8  C   UNL     1      34.007 -21.675 -17.667  0.00  0.00    +0.058 C 
ATOM      9  C   UNL     1      36.069 -20.611 -18.347  0.00  0.00    +0.011 C 
ATOM     10  C   UNL     1      33.327 -21.238 -18.785  0.00  0.00    +0.005 C 
ATOM     11  C   UNL     1      35.401 -20.156 -19.488  0.00  0.00    +0.076 C 
ATOM     12  C   UNL     1      34.043 -20.466 -19.704  0.00  0.00    +0.007 C 
BRANCH  11  14
ATOM     13  O   UNL     1      37.278 -18.946 -20.347  0.00  0.00    -0.245 OA
ATOM     14  C   UNL     1      36.117 -19.351 -20.465  0.00  0.00    +0.338 C 
BRANCH  14  15
ATOM     15  O   UNL     1      35.363 -19.074 -21.563  0.00  0.00    -0.477 OA
ATOM     16  H   UNL     1      34.536 -18.644 -21.468  0.00  0.00    +0.295 HD
ENDBRANCH  14  15
ENDBRANCH  11  14
ENDBRANCH   1   4
BRANCH   1  18
ATOM     17  O   UNL     1      32.555 -24.414 -13.709  0.00  0.00    -0.248 OA
ATOM     18  C   UNL     1      33.192 -23.378 -13.873  0.00  0.00    +0.333 C 
BRANCH  18  19
ATOM     19  O   UNL     1      32.695 -22.164 -13.539  0.00  0.00    -0.479 OA
ATOM     20  H   UNL     1      33.278 -21.458 -13.340  0.00  0.00    +0.295 HD
ENDBRANCH  18  19
ENDBRANCH   1  18
BRANCH   1  21
ATOM     21  C   UNL     1      35.115 -24.789 -14.634  0.00  0.00    +0.058 C 
BRANCH  21  22
ATOM     22  C   UNL     1      36.527 -24.973 -14.131  0.00  0.00    -0.020 C 
ATOM     23  C   UNL     1      37.044 -24.211 -13.071  0.00  0.00    -0.004 C 
ATOM     24  C   UNL     1      38.375 -24.432 -12.646  0.00  0.00    -0.000 C 
ATOM     25  C   UNL     1      37.310 -25.940 -14.763  0.00  0.00    -0.004 C 
ATOM     26  C   UNL     1      36.270 -23.233 -12.425  0.00  0.00    -0.000 C 
ATOM     27  C   UNL     1      39.150 -25.409 -13.292  0.00  0.00    -0.000 C 
ATOM     28  C   UNL     1      38.620 -26.157 -14.343  0.00  0.00    -0.000 C 
ATOM     29  C   UNL     1      38.893 -23.669 -11.586  0.00  0.00    -0.000 C 
ATOM     30  C   UNL     1      36.800 -22.485 -11.374  0.00  0.00    -0.000 C 
ATOM     31  C   UNL     1      38.109 -22.702 -10.956  0.00  0.00    -0.000 C 
ENDBRANCH  21  22
ENDBRANCH   1  21
TORSDOF 7
ENDMDL
MODEL 7
REMARK VINA RESULT:     -10.2     12.384     14.949
REMARK  Name = 16752640
REMARK  7 active torsions:
REMARK  status: ('A' for Active; 'I' for Inactive)
REMARK    1  A    between atoms: C_1  and  N_4
REMARK    2  A    between atoms: C_1  and  C_18
REMARK    3  A    between atoms: C_1  and  C_21
REMARK    4  A    between atoms: C_11  and  C_14
REMARK    5  A    between atoms: C_14  and  O_15
REMARK    6  A    between atoms: C_18  and  O_19
REMARK    7  A    between atoms: C_21  and  C_22
REMARK                            x       y       z     vdW  Elec       q    Type
REMARK                         _______ _______ _______ _____ _____    ______ ____
ROOT
ATOM      1  C   UNL     1      34.293 -23.142 -15.517  0.00  0.00    +0.186 C 
ENDROOT
BRANCH   1   4
ATOM      2  O   UNL     1      32.325 -21.474 -17.017  0.00  0.00    -0.269 OA
ATOM      3  O   UNL     1      32.520 -24.692 -13.689  0.00  0.00    -0.269 OA
ATOM      4  N   UNL     1      32.850 -23.095 -15.388  0.00  0.00    -0.213 N 
ATOM      5  C   UNL     1      30.677 -22.533 -15.685  0.00  0.00    +0.059 C 
ATOM      6  C   UNL     1      32.041 -22.272 -16.143  0.00  0.00    +0.256 C 
ATOM      7  C   UNL     1      32.136 -23.866 -14.495  0.00  0.00    +0.256 C 
ATOM      8  C   UNL     1      30.734 -23.496 -14.689  0.00  0.00    +0.058 C 
ATOM      9  C   UNL     1      29.482 -21.982 -16.100  0.00  0.00    +0.011 C 
ATOM     10  C   UNL     1      29.600 -23.960 -14.055  0.00  0.00    +0.005 C 
ATOM     11  C   UNL     1      28.319 -22.436 -15.471  0.00  0.00    +0.076 C 
ATOM     12  C   UNL     1      28.377 -23.414 -14.458  0.00  0.00    +0.007 C 
BRANCH  11  14
ATOM     13  O   UNL     1      26.066 -21.713 -15.114  0.00  0.00    -0.245 OA
ATOM     14  C   UNL     1      27.030 -21.890 -15.867  0.00  0.00    +0.338 C 
BRANCH  14  15
ATOM     15  O   UNL     1      26.980 -21.582 -17.191  0.00  0.00    -0.477 OA
ATOM     16  H   UNL     1      27.743 -21.681 -17.724  0.00  0.00    +0.295 HD
ENDBRANCH  14  15
ENDBRANCH  11  14
ENDBRANCH   1   4
BRANCH   1  18
ATOM     17  O   UNL     1      35.612 -21.888 -17.112  0.00  0.00    -0.248 OA
ATOM     18  C   UNL     1      34.730 -22.718 -16.912  0.00  0.00    +0.333 C 
BRANCH  18  19
ATOM     19  O   UNL     1      34.074 -23.332 -17.925  0.00  0.00    -0.479 OA
ATOM     20  H   UNL     1      34.430 -23.315 -18.792  0.00  0.00    +0.295 HD
ENDBRANCH  18  19
ENDBRANCH   1  18
BRANCH   1  21
ATOM     21  C   UNL     1      34.980 -22.263 -14.463  0.00  0.00    +0.058 C 
BRANCH  21  22
ATOM     22  C   UNL     1      35.684 -23.066 -13.395  0.00  0.00    -0.020 C 
ATOM     23  C   UNL     1      36.996 -23.535 -13.562  0.00  0.00    -0.004 C 
ATOM     24  C   UNL     1      37.600 -24.282 -12.523  0.00  0.00    -0.000 C 
ATOM     25  C   UNL     1      34.976 -23.327 -12.222  0.00  0.00    -0.004 C 
ATOM     26  C   UNL     1      37.722 -23.282 -14.737  0.00  0.00    -0.000 C 
ATOM     27  C   UNL     1      36.875 -24.535 -11.347  0.00  0.00    -0.000 C 
ATOM     28  C   UNL     1      35.571 -24.061 -11.199  0.00  0.00    -0.000 C 
ATOM     29  C   UNL     1      38.913 -24.752 -12.689  0.00  0.00    -0.000 C 
ATOM     30  C   UNL     1      39.026 -23.757 -14.885  0.00  0.00    -0.000 C 
ATOM     31  C   UNL     1      39.620 -24.491 -13.864  0.00  0.00    -0.000 C 
ENDBRANCH  21  22
ENDBRANCH   1  21
TORSDOF 7
ENDMDL
MODEL 8
REMARK VINA RESULT:     -10.0      2.888      8.404
REMARK  Name = 16752640
REMARK  7 active torsions:
REMARK  status: ('A' for Active; 'I' for Inactive)
REMARK    1  A    between atoms: C_1  and  N_4
REMARK    2  A    between atoms: C_1  and  C_18
REMARK    3  A    between atoms: C_1  and  C_21
REMARK    4  A    between atoms: C_11  and  C_14
REMARK    5  A    between atoms: C_14  and  O_15
REMARK    6  A    between atoms: C_18  and  O_19
REMARK    7  A    between atoms: C_21  and  C_22
REMARK                            x       y       z     vdW  Elec       q    Type
REMARK                         _______ _______ _______ _____ _____    ______ ____
ROOT
ATOM      1  C   UNL     1      32.578 -11.006 -20.731  0.00  0.00    +0.186 C 
ENDROOT
BRANCH   1   4
ATOM      2  O   UNL     1      31.886  -8.528 -19.219  0.00  0.00    -0.269 OA
ATOM      3  O   UNL     1      33.153  -9.928 -23.451  0.00  0.00    -0.269 OA
ATOM      4  N   UNL     1      32.530  -9.635 -21.198  0.00  0.00    -0.213 N 
ATOM      5  C   UNL     1      32.257  -7.387 -21.262  0.00  0.00    +0.059 C 
ATOM      6  C   UNL     1      32.190  -8.565 -20.397  0.00  0.00    +0.256 C 
ATOM      7  C   UNL     1      32.818  -9.256 -22.493  0.00  0.00    +0.256 C 
ATOM      8  C   UNL     1      32.637  -7.805 -22.529  0.00  0.00    +0.058 C 
ATOM      9  C   UNL     1      32.011  -6.061 -20.975  0.00  0.00    +0.011 C 
ATOM     10  C   UNL     1      32.791  -6.919 -23.575  0.00  0.00    +0.005 C 
ATOM     11  C   UNL     1      32.161  -5.144 -22.019  0.00  0.00    +0.076 C 
ATOM     12  C   UNL     1      32.545  -5.569 -23.307  0.00  0.00    +0.007 C 
BRANCH  11  14
ATOM     13  O   UNL     1      31.166  -3.010 -22.442  0.00  0.00    -0.245 OA
ATOM     14  C   UNL     1      31.915  -3.731 -21.775  0.00  0.00    +0.338 C 
BRANCH  14  15
ATOM     15  O   UNL     1      32.610  -3.259 -20.705  0.00  0.00    -0.477 OA
ATOM     16  H   UNL     1      33.009  -3.858 -20.105  0.00  0.00    +0.295 HD
ENDBRANCH  14  15
ENDBRANCH  11  14
ENDBRANCH   1   4
BRANCH   1  18
ATOM     17  O   UNL     1      31.595 -11.778 -18.659  0.00  0.00    -0.248 OA
ATOM     18  C   UNL     1      31.429 -11.297 -19.776  0.00  0.00    +0.333 C 
BRANCH  18  19
ATOM     19  O   UNL     1      30.201 -10.977 -20.248  0.00  0.00    -0.479 OA
ATOM     20  H   UNL     1      29.608 -10.483 -19.716  0.00  0.00    +0.295 HD
ENDBRANCH  18  19
ENDBRANCH   1  18
BRANCH   1  21
ATOM     21  C   UNL     1      32.550 -11.998 -21.901  0.00  0.00    +0.058 C 
BRANCH  21  22
ATOM     22  C   UNL     1      33.481 -13.170 -21.703  0.00  0.00    -0.020 C 
ATOM     23  C   UNL     1      33.891 -13.983 -22.772  0.00  0.00    -0.004 C 
ATOM     24  C   UNL     1      34.766 -15.066 -22.519  0.00  0.00    -0.000 C 
ATOM     25  C   UNL     1      33.926 -13.420 -20.404  0.00  0.00    -0.004 C 
ATOM     26  C   UNL     1      33.453 -13.746 -24.084  0.00  0.00    -0.000 C 
ATOM     27  C   UNL     1      35.205 -15.304 -21.206  0.00  0.00    -0.000 C 
ATOM     28  C   UNL     1      34.787 -14.486 -20.157  0.00  0.00    -0.000 C 
ATOM     29  C   UNL     1      35.177 -15.880 -23.587  0.00  0.00    -0.000 C 
ATOM     30  C   UNL     1      33.870 -14.564 -25.134  0.00  0.00    -0.000 C 
ATOM     31  C   UNL     1      34.730 -15.630 -24.886  0.00  0.00    -0.000 C 
ENDBRANCH  21  22
ENDBRANCH   1  21
TORSDOF 7
ENDMDL
MODEL 9
REMARK VINA RESULT:      -9.9      1.755      3.243
REMARK  Name = 16752640
REMARK  7 active torsions:
REMARK  status: ('A' for Active; 'I' for Inactive)
REMARK    1  A    between atoms: C_1  and  N_4
REMARK    2  A    between atoms: C_1  and  C_18
REMARK    3  A    between atoms: C_1  and  C_21
REMARK    4  A    between atoms: C_11  and  C_14
REMARK    5  A    between atoms: C_14  and  O_15
REMARK    6  A    between atoms: C_18  and  O_19
REMARK    7  A    between atoms: C_21  and  C_22
REMARK                            x       y       z     vdW  Elec       q    Type
REMARK                         _______ _______ _______ _____ _____    ______ ____
ROOT
ATOM      1  C   UNL     1      34.394 -12.673 -24.256  0.00  0.00    +0.186 C 
ENDROOT
BRANCH   1   4
ATOM      2  O   UNL     1      34.976 -13.463 -21.438  0.00  0.00    -0.269 OA
ATOM      3  O   UNL     1      34.366 -15.313 -25.642  0.00  0.00    -0.269 OA
ATOM      4  N   UNL     1      34.611 -13.996 -23.705  0.00  0.00    -0.213 N 
ATOM      5  C   UNL     1      35.037 -15.685 -22.257  0.00  0.00    +0.059 C 
ATOM      6  C   UNL     1      34.877 -14.236 -22.373  0.00  0.00    +0.256 C 
ATOM      7  C   UNL     1      34.575 -15.153 -24.454  0.00  0.00    +0.256 C 
ATOM      8  C   UNL     1      34.854 -16.240 -23.515  0.00  0.00    +0.058 C 
ATOM      9  C   UNL     1      35.316 -16.461 -21.152  0.00  0.00    +0.011 C 
ATOM     10  C   UNL     1      34.941 -17.599 -23.734  0.00  0.00    +0.005 C 
ATOM     11  C   UNL     1      35.409 -17.842 -21.349  0.00  0.00    +0.076 C 
ATOM     12  C   UNL     1      35.224 -18.405 -22.627  0.00  0.00    +0.007 C 
BRANCH  11  14
ATOM     13  O   UNL     1      36.768 -18.741 -19.597  0.00  0.00    -0.245 OA
ATOM     14  C   UNL     1      35.701 -18.710 -20.219  0.00  0.00    +0.338 C 
BRANCH  14  15
ATOM     15  O   UNL     1      34.653 -19.515 -19.897  0.00  0.00    -0.477 OA
ATOM     16  H   UNL     1      34.536 -19.800 -19.012  0.00  0.00    +0.295 HD
ENDBRANCH  14  15
ENDBRANCH  11  14
ENDBRANCH   1   4
BRANCH   1  18
ATOM     17  O   UNL     1      34.022 -12.273 -26.613  0.00  0.00    -0.248 OA
ATOM     18  C   UNL     1      33.610 -12.747 -25.559  0.00  0.00    +0.333 C 
BRANCH  18  19
ATOM     19  O   UNL     1      32.419 -13.386 -25.471  0.00  0.00    -0.479 OA
ATOM     20  H   UNL     1      31.926 -13.566 -26.247  0.00  0.00    +0.295 HD
ENDBRANCH  18  19
ENDBRANCH   1  18
BRANCH   1  21
ATOM     21  C   UNL     1      33.666 -11.763 -23.258  0.00  0.00    +0.058 C 
BRANCH  21  22
ATOM     22  C   UNL     1      34.112 -10.323 -23.341  0.00  0.00    -0.020 C 
ATOM     23  C   UNL     1      33.515  -9.314 -22.567  0.00  0.00    -0.004 C 
ATOM     24  C   UNL     1      33.979  -7.983 -22.691  0.00  0.00    -0.000 C 
ATOM     25  C   UNL     1      35.149 -10.024 -24.225  0.00  0.00    -0.004 C 
ATOM     26  C   UNL     1      32.469  -9.596 -21.674  0.00  0.00    -0.000 C 
ATOM     27  C   UNL     1      35.025  -7.700 -23.585  0.00  0.00    -0.000 C 
ATOM     28  C   UNL     1      35.605  -8.714 -24.346  0.00  0.00    -0.000 C 
ATOM     29  C   UNL     1      33.383  -6.974 -21.918  0.00  0.00    -0.000 C 
ATOM     30  C   UNL     1      31.889  -8.582 -20.913  0.00  0.00    -0.000 C 
ATOM     31  C   UNL     1      32.344  -7.273 -21.035  0.00  0.00    -0.000 C 
ENDBRANCH  21  22
ENDBRANCH   1  21
TORSDOF 7
ENDMDL
