MODEL 1
REMARK VINA RESULT:     -11.2      0.000      0.000
REMARK  Name = 5472495
REMARK  6 active torsions:
REMARK  status: ('A' for Active; 'I' for Inactive)
REMARK    1  A    between atoms: C_2  and  C_23
REMARK    2  A    between atoms: C_3  and  C_7
REMARK    3  A    between atoms: C_7  and  C_13
REMARK    4  A    between atoms: C_16  and  S_19
REMARK    5  A    between atoms: C_23  and  C_25
REMARK    6  A    between atoms: C_25  and  O_26
REMARK                            x       y       z     vdW  Elec       q    Type
REMARK                         _______ _______ _______ _____ _____    ______ ____
ROOT
ATOM      1  F   UNL     1      36.908 -23.446 -11.893  0.00  0.00    -0.204 F 
ATOM      2  C   UNL     1      32.668 -22.680 -14.332  0.00  0.00    -0.030 C 
ATOM      3  C   UNL     1      33.728 -22.735 -16.367  0.00  0.00    -0.036 C 
ATOM      4  C   UNL     1      32.456 -22.580 -15.662  0.00  0.00    +0.037 C 
ATOM      5  C   UNL     1      34.110 -22.909 -14.122  0.00  0.00    -0.005 C 
ATOM      6  C   UNL     1      34.771 -22.944 -15.361  0.00  0.00    -0.008 C 
ATOM      7  C   UNL     1      34.819 -23.077 -12.941  0.00  0.00    +0.029 C 
ATOM      8  C   UNL     1      36.138 -23.145 -15.446  0.00  0.00    +0.002 C 
ATOM      9  C   UNL     1      31.168 -22.349 -16.377  0.00  0.00    +0.009 C 
ATOM     10  C   UNL     1      36.200 -23.280 -13.018  0.00  0.00    +0.140 C 
ATOM     11  C   UNL     1      36.854 -23.314 -14.259  0.00  0.00    +0.030 C 
ENDROOT
BRANCH   3  12
ATOM     12  C   UNL     1      33.933 -22.696 -17.690  0.00  0.00    +0.049 C 
BRANCH  12  13
ATOM     13  C   UNL     1      34.430 -21.537 -18.449  0.00  0.00    -0.018 C 
ATOM     14  C   UNL     1      35.786 -21.254 -18.447  0.00  0.00    -0.003 C 
ATOM     15  C   UNL     1      33.532 -20.750 -19.154  0.00  0.00    -0.003 C 
ATOM     16  C   UNL     1      35.366 -19.357 -19.881  0.00  0.00    +0.106 C 
ATOM     17  C   UNL     1      36.258 -20.157 -19.168  0.00  0.00    +0.018 C 
ATOM     18  C   UNL     1      34.004 -19.653 -19.875  0.00  0.00    +0.018 C 
BRANCH  16  19
ATOM     19  S   UNL     1      35.957 -17.983 -20.783  0.00  0.00    +0.010 S 
ATOM     20  O   UNL     1      35.500 -16.775 -20.111  0.00  0.00    -0.169 OA
ATOM     21  O   UNL     1      37.377 -18.168 -21.050  0.00  0.00    -0.169 OA
ATOM     22  C   UNL     1      35.119 -18.088 -22.348  0.00  0.00    +0.182 C 
ENDBRANCH  16  19
ENDBRANCH  12  13
ENDBRANCH   3  12
BRANCH   2  23
ATOM     23  C   UNL     1      31.714 -22.595 -13.197  0.00  0.00    +0.132 C 
BRANCH  23  25
ATOM     24  O   UNL     1      31.145 -24.929 -13.644  0.00  0.00    -0.250 OA
ATOM     25  C   UNL     1      31.093 -23.943 -12.924  0.00  0.00    +0.318 C 
BRANCH  25  26
ATOM     26  O   UNL     1      30.441 -23.917 -11.731  0.00  0.00    -0.480 OA
ATOM     27  H   UNL     1      30.928 -23.871 -10.933  0.00  0.00    +0.295 HD
ENDBRANCH  25  26
ENDBRANCH  23  25
ENDBRANCH   2  23
TORSDOF 6
ENDMDL
MODEL 2
REMARK VINA RESULT:     -10.9      5.246     10.174
REMARK  Name = 5472495
REMARK  6 active torsions:
REMARK  status: ('A' for Active; 'I' for Inactive)
REMARK    1  A    between atoms: C_2  and  C_23
REMARK    2  A    between atoms: C_3  and  C_7
REMARK    3  A    between atoms: C_7  and  C_13
REMARK    4  A    between atoms: C_16  and  S_19
REMARK    5  A    between atoms: C_23  and  C_25
REMARK    6  A    between atoms: C_25  and  O_26
REMARK                            x       y       z     vdW  Elec       q    Type
REMARK                         _______ _______ _______ _____ _____    ______ ____
ROOT
ATOM      1  F   UNL     1      33.304 -12.853 -26.010  0.00  0.00    -0.204 F 
ATOM      2  C   UNL     1      34.381 -14.035 -21.325  0.00  0.00    -0.030 C 
ATOM      3  C   UNL     1      35.261 -16.062 -21.946  0.00  0.00    -0.036 C 
ATOM      4  C   UNL     1      34.960 -15.154 -20.839  0.00  0.00    +0.037 C 
ATOM      5  C   UNL     1      34.284 -14.176 -22.789  0.00  0.00    -0.005 C 
ATOM      6  C   UNL     1      34.819 -15.414 -23.183  0.00  0.00    -0.008 C 
ATOM      7  C   UNL     1      33.769 -13.301 -23.733  0.00  0.00    +0.029 C 
ATOM      8  C   UNL     1      34.850 -15.799 -24.513  0.00  0.00    +0.002 C 
ATOM      9  C   UNL     1      35.276 -15.491 -19.421  0.00  0.00    +0.009 C 
ATOM     10  C   UNL     1      33.795 -13.681 -25.078  0.00  0.00    +0.140 C 
ATOM     11  C   UNL     1      34.332 -14.919 -25.464  0.00  0.00    +0.030 C 
ENDROOT
BRANCH   3  12
ATOM     12  C   UNL     1      35.833 -17.270 -21.873  0.00  0.00    +0.049 C 
BRANCH  12  13
ATOM     13  C   UNL     1      35.373 -18.390 -21.037  0.00  0.00    -0.018 C 
ATOM     14  C   UNL     1      36.285 -19.064 -20.240  0.00  0.00    -0.003 C 
ATOM     15  C   UNL     1      34.035 -18.752 -21.060  0.00  0.00    -0.003 C 
ATOM     16  C   UNL     1      34.505 -20.499 -19.460  0.00  0.00    +0.106 C 
ATOM     17  C   UNL     1      35.849 -20.125 -19.446  0.00  0.00    +0.018 C 
ATOM     18  C   UNL     1      33.598 -19.812 -20.266  0.00  0.00    +0.018 C 
BRANCH  16  19
ATOM     19  S   UNL     1      33.960 -21.827 -18.466  0.00  0.00    +0.010 S 
ATOM     20  O   UNL     1      32.620 -21.511 -17.991  0.00  0.00    -0.169 OA
ATOM     21  O   UNL     1      34.199 -23.077 -19.174  0.00  0.00    -0.169 OA
ATOM     22  C   UNL     1      35.054 -21.808 -17.064  0.00  0.00    +0.182 C 
ENDBRANCH  16  19
ENDBRANCH  12  13
ENDBRANCH   3  12
BRANCH   2  23
ATOM     23  C   UNL     1      33.892 -12.822 -20.620  0.00  0.00    +0.132 C 
BRANCH  23  25
ATOM     24  O   UNL     1      32.079 -13.748 -19.268  0.00  0.00    -0.250 OA
ATOM     25  C   UNL     1      32.466 -13.013 -20.164  0.00  0.00    +0.318 C 
BRANCH  25  26
ATOM     26  O   UNL     1      31.636 -12.235 -20.908  0.00  0.00    -0.480 OA
ATOM     27  H   UNL     1      31.936 -11.873 -21.718  0.00  0.00    +0.295 HD
ENDBRANCH  25  26
ENDBRANCH  23  25
ENDBRANCH   2  23
TORSDOF 6
ENDMDL
MODEL 3
REMARK VINA RESULT:     -10.6      4.424      9.678
REMARK  Name = 5472495
REMARK  6 active torsions:
REMARK  status: ('A' for Active; 'I' for Inactive)
REMARK    1  A    between atoms: C_2  and  C_23
REMARK    2  A    between atoms: C_3  and  C_7
REMARK    3  A    between atoms: C_7  and  C_13
REMARK    4  A    between atoms: C_16  and  S_19
REMARK    5  A    between atoms: C_23  and  C_25
REMARK    6  A    between atoms: C_25  and  O_26
REMARK                            x       y       z     vdW  Elec       q    Type
REMARK                         _______ _______ _______ _____ _____    ______ ____
ROOT
ATOM      1  F   UNL     1      33.741 -12.269 -21.436  0.00  0.00    -0.204 F 
ATOM      2  C   UNL     1      35.084 -16.552 -23.526  0.00  0.00    -0.030 C 
ATOM      3  C   UNL     1      35.867 -17.380 -21.533  0.00  0.00    -0.036 C 
ATOM      4  C   UNL     1      35.662 -17.634 -22.959  0.00  0.00    +0.037 C 
ATOM      5  C   UNL     1      34.889 -15.540 -22.472  0.00  0.00    -0.005 C 
ATOM      6  C   UNL     1      35.365 -16.034 -21.246  0.00  0.00    -0.008 C 
ATOM      7  C   UNL     1      34.337 -14.270 -22.551  0.00  0.00    +0.029 C 
ATOM      8  C   UNL     1      35.301 -15.279 -20.087  0.00  0.00    +0.002 C 
ATOM      9  C   UNL     1      36.059 -18.916 -23.608  0.00  0.00    +0.009 C 
ATOM     10  C   UNL     1      34.270 -13.500 -21.387  0.00  0.00    +0.140 C 
ATOM     11  C   UNL     1      34.747 -14.000 -20.165  0.00  0.00    +0.030 C 
ENDROOT
BRANCH   3  12
ATOM     12  C   UNL     1      36.412 -18.206 -20.632  0.00  0.00    +0.049 C 
BRANCH  12  13
ATOM     13  C   UNL     1      35.700 -19.255 -19.886  0.00  0.00    -0.018 C 
ATOM     14  C   UNL     1      36.413 -20.096 -19.047  0.00  0.00    -0.003 C 
ATOM     15  C   UNL     1      34.327 -19.384 -20.034  0.00  0.00    -0.003 C 
ATOM     16  C   UNL     1      34.358 -21.230 -18.478  0.00  0.00    +0.106 C 
ATOM     17  C   UNL     1      35.738 -21.090 -18.338  0.00  0.00    +0.018 C 
ATOM     18  C   UNL     1      33.652 -20.377 -19.325  0.00  0.00    +0.018 C 
BRANCH  16  19
ATOM     19  S   UNL     1      33.513 -22.475 -17.590  0.00  0.00    +0.010 S 
ATOM     20  O   UNL     1      32.143 -22.026 -17.382  0.00  0.00    -0.169 OA
ATOM     21  O   UNL     1      33.764 -23.761 -18.225  0.00  0.00    -0.169 OA
ATOM     22  C   UNL     1      34.321 -22.513 -16.006  0.00  0.00    +0.182 C 
ENDBRANCH  16  19
ENDBRANCH  12  13
ENDBRANCH   3  12
BRANCH   2  23
ATOM     23  C   UNL     1      34.674 -16.308 -24.933  0.00  0.00    +0.132 C 
BRANCH  23  25
ATOM     24  O   UNL     1      32.908 -17.991 -25.068  0.00  0.00    -0.250 OA
ATOM     25  C   UNL     1      33.281 -16.833 -25.178  0.00  0.00    +0.318 C 
BRANCH  25  26
ATOM     26  O   UNL     1      32.464 -15.813 -25.554  0.00  0.00    -0.480 OA
ATOM     27  H   UNL     1      32.693 -15.277 -26.288  0.00  0.00    +0.295 HD
ENDBRANCH  25  26
ENDBRANCH  23  25
ENDBRANCH   2  23
TORSDOF 6
ENDMDL
MODEL 4
REMARK VINA RESULT:     -10.6      2.055      3.268
REMARK  Name = 5472495
REMARK  6 active torsions:
REMARK  status: ('A' for Active; 'I' for Inactive)
REMARK    1  A    between atoms: C_2  and  C_23
REMARK    2  A    between atoms: C_3  and  C_7
REMARK    3  A    between atoms: C_7  and  C_13
REMARK    4  A    between atoms: C_16  and  S_19
REMARK    5  A    between atoms: C_23  and  C_25
REMARK    6  A    between atoms: C_25  and  O_26
REMARK                            x       y       z     vdW  Elec       q    Type
REMARK                         _______ _______ _______ _____ _____    ______ ____
ROOT
ATOM      1  F   UNL     1      30.317 -23.272 -12.487  0.00  0.00    -0.204 F 
ATOM      2  C   UNL     1      34.892 -22.621 -14.266  0.00  0.00    -0.030 C 
ATOM      3  C   UNL     1      34.139 -22.589 -16.434  0.00  0.00    -0.036 C 
ATOM      4  C   UNL     1      35.299 -22.499 -15.548  0.00  0.00    +0.037 C 
ATOM      5  C   UNL     1      33.428 -22.796 -14.272  0.00  0.00    -0.005 C 
ATOM      6  C   UNL     1      32.954 -22.779 -15.595  0.00  0.00    -0.008 C 
ATOM      7  C   UNL     1      32.549 -22.961 -13.212  0.00  0.00    +0.029 C 
ATOM      8  C   UNL     1      31.607 -22.926 -15.883  0.00  0.00    +0.002 C 
ATOM      9  C   UNL     1      36.685 -22.303 -16.062  0.00  0.00    +0.009 C 
ATOM     10  C   UNL     1      31.188 -23.111 -13.493  0.00  0.00    +0.140 C 
ATOM     11  C   UNL     1      30.721 -23.093 -14.817  0.00  0.00    +0.030 C 
ENDROOT
BRANCH   3  12
ATOM     12  C   UNL     1      34.131 -22.516 -17.770  0.00  0.00    +0.049 C 
BRANCH  12  13
ATOM     13  C   UNL     1      34.560 -21.358 -18.571  0.00  0.00    -0.018 C 
ATOM     14  C   UNL     1      35.913 -21.099 -18.722  0.00  0.00    -0.003 C 
ATOM     15  C   UNL     1      33.602 -20.546 -19.161  0.00  0.00    -0.003 C 
ATOM     16  C   UNL     1      35.368 -19.178 -20.081  0.00  0.00    +0.106 C 
ATOM     17  C   UNL     1      36.319 -20.003 -19.483  0.00  0.00    +0.018 C 
ATOM     18  C   UNL     1      34.009 -19.450 -19.921  0.00  0.00    +0.018 C 
BRANCH  16  19
ATOM     19  S   UNL     1      35.878 -17.806 -21.033  0.00  0.00    +0.010 S 
ATOM     20  O   UNL     1      35.379 -16.601 -20.384  0.00  0.00    -0.169 OA
ATOM     21  O   UNL     1      37.299 -17.934 -21.323  0.00  0.00    -0.169 OA
ATOM     22  C   UNL     1      35.015 -17.993 -22.576  0.00  0.00    +0.182 C 
ENDBRANCH  16  19
ENDBRANCH  12  13
ENDBRANCH   3  12
BRANCH   2  23
ATOM     23  C   UNL     1      35.673 -22.598 -13.002  0.00  0.00    +0.132 C 
BRANCH  23  25
ATOM     24  O   UNL     1      36.793 -24.769 -13.084  0.00  0.00    -0.250 OA
ATOM     25  C   UNL     1      36.001 -24.002 -12.557  0.00  0.00    +0.318 C 
BRANCH  25  26
ATOM     26  O   UNL     1      35.273 -24.317 -11.453  0.00  0.00    -0.480 OA
ATOM     27  H   UNL     1      34.498 -23.832 -11.250  0.00  0.00    +0.295 HD
ENDBRANCH  25  26
ENDBRANCH  23  25
ENDBRANCH   2  23
TORSDOF 6
ENDMDL
MODEL 5
REMARK VINA RESULT:      -9.8      4.373      6.497
REMARK  Name = 5472495
REMARK  6 active torsions:
REMARK  status: ('A' for Active; 'I' for Inactive)
REMARK    1  A    between atoms: C_2  and  C_23
REMARK    2  A    between atoms: C_3  and  C_7
REMARK    3  A    between atoms: C_7  and  C_13
REMARK    4  A    between atoms: C_16  and  S_19
REMARK    5  A    between atoms: C_23  and  C_25
REMARK    6  A    between atoms: C_25  and  O_26
REMARK                            x       y       z     vdW  Elec       q    Type
REMARK                         _______ _______ _______ _____ _____    ______ ____
ROOT
ATOM      1  F   UNL     1      33.412 -21.280 -19.079  0.00  0.00    -0.204 F 
ATOM      2  C   UNL     1      31.196 -23.215 -15.097  0.00  0.00    -0.030 C 
ATOM      3  C   UNL     1      33.175 -23.321 -13.939  0.00  0.00    -0.036 C 
ATOM      4  C   UNL     1      31.736 -23.581 -13.914  0.00  0.00    +0.037 C 
ATOM      5  C   UNL     1      32.283 -22.695 -15.947  0.00  0.00    -0.005 C 
ATOM      6  C   UNL     1      33.501 -22.755 -15.250  0.00  0.00    -0.008 C 
ATOM      7  C   UNL     1      32.237 -22.199 -17.242  0.00  0.00    +0.029 C 
ATOM      8  C   UNL     1      34.686 -22.325 -15.824  0.00  0.00    +0.002 C 
ATOM      9  C   UNL     1      31.049 -24.163 -12.726  0.00  0.00    +0.009 C 
ATOM     10  C   UNL     1      33.428 -21.764 -17.830  0.00  0.00    +0.140 C 
ATOM     11  C   UNL     1      34.642 -21.826 -17.127  0.00  0.00    +0.030 C 
ENDROOT
BRANCH   3  12
ATOM     12  C   UNL     1      34.058 -23.549 -12.959  0.00  0.00    +0.049 C 
BRANCH  12  13
ATOM     13  C   UNL     1      35.485 -23.859 -13.143  0.00  0.00    -0.018 C 
ATOM     14  C   UNL     1      35.850 -24.969 -13.889  0.00  0.00    -0.003 C 
ATOM     15  C   UNL     1      36.440 -23.034 -12.569  0.00  0.00    -0.003 C 
ATOM     16  C   UNL     1      38.173 -24.440 -13.492  0.00  0.00    +0.106 C 
ATOM     17  C   UNL     1      37.202 -25.262 -14.065  0.00  0.00    +0.018 C 
ATOM     18  C   UNL     1      37.792 -23.326 -12.745  0.00  0.00    +0.018 C 
BRANCH  16  19
ATOM     19  S   UNL     1      39.866 -24.808 -13.713  0.00  0.00    +0.010 S 
ATOM     20  O   UNL     1      40.627 -23.996 -12.773  0.00  0.00    -0.169 OA
ATOM     21  O   UNL     1      40.039 -26.254 -13.723  0.00  0.00    -0.169 OA
ATOM     22  C   UNL     1      40.233 -24.231 -15.355  0.00  0.00    +0.182 C 
ENDBRANCH  16  19
ENDBRANCH  12  13
ENDBRANCH   3  12
BRANCH   2  23
ATOM     23  C   UNL     1      29.790 -23.276 -15.572  0.00  0.00    +0.132 C 
BRANCH  23  25
ATOM     24  O   UNL     1      28.987 -21.359 -14.287  0.00  0.00    -0.250 OA
ATOM     25  C   UNL     1      29.097 -21.954 -15.348  0.00  0.00    +0.318 C 
BRANCH  25  26
ATOM     26  O   UNL     1      28.589 -21.495 -16.523  0.00  0.00    -0.480 OA
ATOM     27  H   UNL     1      28.297 -20.608 -16.591  0.00  0.00    +0.295 HD
ENDBRANCH  25  26
ENDBRANCH  23  25
ENDBRANCH   2  23
TORSDOF 6
ENDMDL
MODEL 6
REMARK VINA RESULT:      -9.8      4.409      6.923
REMARK  Name = 5472495
REMARK  6 active torsions:
REMARK  status: ('A' for Active; 'I' for Inactive)
REMARK    1  A    between atoms: C_2  and  C_23
REMARK    2  A    between atoms: C_3  and  C_7
REMARK    3  A    between atoms: C_7  and  C_13
REMARK    4  A    between atoms: C_16  and  S_19
REMARK    5  A    between atoms: C_23  and  C_25
REMARK    6  A    between atoms: C_25  and  O_26
REMARK                            x       y       z     vdW  Elec       q    Type
REMARK                         _______ _______ _______ _____ _____    ______ ____
ROOT
ATOM      1  F   UNL     1      37.317 -21.428 -17.185  0.00  0.00    -0.204 F 
ATOM      2  C   UNL     1      36.973 -23.347 -12.635  0.00  0.00    -0.030 C 
ATOM      3  C   UNL     1      34.691 -23.533 -12.791  0.00  0.00    -0.036 C 
ATOM      4  C   UNL     1      35.874 -23.748 -11.959  0.00  0.00    +0.037 C 
ATOM      5  C   UNL     1      36.536 -22.851 -13.952  0.00  0.00    -0.005 C 
ATOM      6  C   UNL     1      35.140 -22.958 -14.061  0.00  0.00    -0.008 C 
ATOM      7  C   UNL     1      37.285 -22.336 -15.000  0.00  0.00    +0.029 C 
ATOM      8  C   UNL     1      34.469 -22.558 -15.205  0.00  0.00    +0.002 C 
ATOM      9  C   UNL     1      35.793 -24.324 -10.586  0.00  0.00    +0.009 C 
ATOM     10  C   UNL     1      36.617 -21.929 -16.159  0.00  0.00    +0.140 C 
ATOM     11  C   UNL     1      35.222 -22.039 -16.260  0.00  0.00    +0.030 C 
ENDROOT
BRANCH   3  12
ATOM     12  C   UNL     1      33.418 -23.801 -12.476  0.00  0.00    +0.049 C 
BRANCH  12  13
ATOM     13  C   UNL     1      32.247 -23.532 -13.325  0.00  0.00    -0.018 C 
ATOM     14  C   UNL     1      31.625 -24.583 -13.980  0.00  0.00    -0.003 C 
ATOM     15  C   UNL     1      31.785 -22.230 -13.455  0.00  0.00    -0.003 C 
ATOM     16  C   UNL     1      30.039 -23.024 -14.924  0.00  0.00    +0.106 C 
ATOM     17  C   UNL     1      30.514 -24.328 -14.785  0.00  0.00    +0.018 C 
ATOM     18  C   UNL     1      30.674 -21.976 -14.259  0.00  0.00    +0.018 C 
BRANCH  16  19
ATOM     19  S   UNL     1      28.649 -22.706 -15.931  0.00  0.00    +0.010 S 
ATOM     20  O   UNL     1      29.010 -21.659 -16.877  0.00  0.00    -0.169 OA
ATOM     21  O   UNL     1      28.120 -23.971 -16.421  0.00  0.00    -0.169 OA
ATOM     22  C   UNL     1      27.437 -22.037 -14.813  0.00  0.00    +0.182 C 
ENDBRANCH  16  19
ENDBRANCH  12  13
ENDBRANCH   3  12
BRANCH   2  23
ATOM     23  C   UNL     1      38.404 -23.356 -12.235  0.00  0.00    +0.132 C 
BRANCH  23  25
ATOM     24  O   UNL     1      38.650 -25.736 -12.731  0.00  0.00    -0.250 OA
ATOM     25  C   UNL     1      39.091 -24.597 -12.751  0.00  0.00    +0.318 C 
BRANCH  25  26
ATOM     26  O   UNL     1      40.311 -24.272 -13.255  0.00  0.00    -0.480 OA
ATOM     27  H   UNL     1      40.887 -24.947 -13.556  0.00  0.00    +0.295 HD
ENDBRANCH  25  26
ENDBRANCH  23  25
ENDBRANCH   2  23
TORSDOF 6
ENDMDL
MODEL 7
REMARK VINA RESULT:      -9.5      5.122     10.635
REMARK  Name = 5472495
REMARK  6 active torsions:
REMARK  status: ('A' for Active; 'I' for Inactive)
REMARK    1  A    between atoms: C_2  and  C_23
REMARK    2  A    between atoms: C_3  and  C_7
REMARK    3  A    between atoms: C_7  and  C_13
REMARK    4  A    between atoms: C_16  and  S_19
REMARK    5  A    between atoms: C_23  and  C_25
REMARK    6  A    between atoms: C_25  and  O_26
REMARK                            x       y       z     vdW  Elec       q    Type
REMARK                         _______ _______ _______ _____ _____    ______ ____
ROOT
ATOM      1  F   UNL     1      32.836 -11.654 -19.968  0.00  0.00    -0.204 F 
ATOM      2  C   UNL     1      33.867 -14.590 -23.818  0.00  0.00    -0.030 C 
ATOM      3  C   UNL     1      35.244 -15.917 -22.550  0.00  0.00    -0.036 C 
ATOM      4  C   UNL     1      34.665 -15.679 -23.871  0.00  0.00    +0.037 C 
ATOM      5  C   UNL     1      33.898 -14.075 -22.438  0.00  0.00    -0.005 C 
ATOM      6  C   UNL     1      34.740 -14.878 -21.650  0.00  0.00    -0.008 C 
ATOM      7  C   UNL     1      33.248 -12.982 -21.883  0.00  0.00    +0.029 C 
ATOM      8  C   UNL     1      34.947 -14.610 -20.307  0.00  0.00    +0.002 C 
ATOM      9  C   UNL     1      34.962 -16.551 -25.044  0.00  0.00    +0.009 C 
ATOM     10  C   UNL     1      33.452 -12.703 -20.529  0.00  0.00    +0.140 C 
ATOM     11  C   UNL     1      34.294 -13.510 -19.747  0.00  0.00    +0.030 C 
ENDROOT
BRANCH   3  12
ATOM     12  C   UNL     1      36.086 -16.896 -22.197  0.00  0.00    +0.049 C 
BRANCH  12  13
ATOM     13  C   UNL     1      35.762 -18.036 -21.324  0.00  0.00    -0.018 C 
ATOM     14  C   UNL     1      36.753 -18.583 -20.524  0.00  0.00    -0.003 C 
ATOM     15  C   UNL     1      34.471 -18.543 -21.317  0.00  0.00    -0.003 C 
ATOM     16  C   UNL     1      35.151 -20.181 -19.678  0.00  0.00    +0.106 C 
ATOM     17  C   UNL     1      36.445 -19.662 -19.695  0.00  0.00    +0.018 C 
ATOM     18  C   UNL     1      34.164 -19.621 -20.488  0.00  0.00    +0.018 C 
BRANCH  16  19
ATOM     19  S   UNL     1      34.767 -21.532 -18.640  0.00  0.00    +0.010 S 
ATOM     20  O   UNL     1      34.715 -22.731 -19.466  0.00  0.00    -0.169 OA
ATOM     21  O   UNL     1      35.639 -21.496 -17.474  0.00  0.00    -0.169 OA
ATOM     22  C   UNL     1      33.119 -21.193 -18.065  0.00  0.00    +0.182 C 
ENDBRANCH  16  19
ENDBRANCH  12  13
ENDBRANCH   3  12
BRANCH   2  23
ATOM     23  C   UNL     1      33.057 -13.939 -24.881  0.00  0.00    +0.132 C 
BRANCH  23  25
ATOM     24  O   UNL     1      33.904 -11.663 -25.153  0.00  0.00    -0.250 OA
ATOM     25  C   UNL     1      33.837 -12.823 -25.531  0.00  0.00    +0.318 C 
BRANCH  25  26
ATOM     26  O   UNL     1      34.475 -13.291 -26.637  0.00  0.00    -0.480 OA
ATOM     27  H   UNL     1      34.052 -13.915 -27.192  0.00  0.00    +0.295 HD
ENDBRANCH  25  26
ENDBRANCH  23  25
ENDBRANCH   2  23
TORSDOF 6
ENDMDL
MODEL 8
REMARK VINA RESULT:      -9.3      2.378      3.842
REMARK  Name = 5472495
REMARK  6 active torsions:
REMARK  status: ('A' for Active; 'I' for Inactive)
REMARK    1  A    between atoms: C_2  and  C_23
REMARK    2  A    between atoms: C_3  and  C_7
REMARK    3  A    between atoms: C_7  and  C_13
REMARK    4  A    between atoms: C_16  and  S_19
REMARK    5  A    between atoms: C_23  and  C_25
REMARK    6  A    between atoms: C_25  and  O_26
REMARK                            x       y       z     vdW  Elec       q    Type
REMARK                         _______ _______ _______ _____ _____    ______ ____
ROOT
ATOM      1  F   UNL     1      27.974 -21.951 -14.191  0.00  0.00    -0.204 F 
ATOM      2  C   UNL     1      32.904 -22.404 -14.216  0.00  0.00    -0.030 C 
ATOM      3  C   UNL     1      32.970 -22.510 -16.507  0.00  0.00    -0.036 C 
ATOM      4  C   UNL     1      33.744 -22.526 -15.266  0.00  0.00    +0.037 C 
ATOM      5  C   UNL     1      31.532 -22.301 -14.745  0.00  0.00    -0.005 C 
ATOM      6  C   UNL     1      31.558 -22.365 -16.148  0.00  0.00    -0.008 C 
ATOM      7  C   UNL     1      30.328 -22.160 -14.070  0.00  0.00    +0.029 C 
ATOM      8  C   UNL     1      30.396 -22.292 -16.898  0.00  0.00    +0.002 C 
ATOM      9  C   UNL     1      35.229 -22.662 -15.252  0.00  0.00    +0.009 C 
ATOM     10  C   UNL     1      29.150 -22.086 -14.818  0.00  0.00    +0.140 C 
ATOM     11  C   UNL     1      29.184 -22.151 -16.220  0.00  0.00    +0.030 C 
ENDROOT
BRANCH   3  12
ATOM     12  C   UNL     1      33.439 -22.609 -17.757  0.00  0.00    +0.049 C 
BRANCH  12  13
ATOM     13  C   UNL     1      33.971 -21.501 -18.567  0.00  0.00    -0.018 C 
ATOM     14  C   UNL     1      33.097 -20.562 -19.092  0.00  0.00    -0.003 C 
ATOM     15  C   UNL     1      35.337 -21.415 -18.790  0.00  0.00    -0.003 C 
ATOM     16  C   UNL     1      34.973 -19.412 -20.089  0.00  0.00    +0.106 C 
ATOM     17  C   UNL     1      33.601 -19.510 -19.858  0.00  0.00    +0.018 C 
ATOM     18  C   UNL     1      35.840 -20.364 -19.555  0.00  0.00    +0.018 C 
BRANCH  16  19
ATOM     19  S   UNL     1      35.603 -18.096 -21.048  0.00  0.00    +0.010 S 
ATOM     20  O   UNL     1      35.239 -18.340 -22.438  0.00  0.00    -0.169 OA
ATOM     21  O   UNL     1      35.239 -16.835 -20.417  0.00  0.00    -0.169 OA
ATOM     22  C   UNL     1      37.368 -18.254 -20.909  0.00  0.00    +0.182 C 
ENDBRANCH  16  19
ENDBRANCH  12  13
ENDBRANCH   3  12
BRANCH   2  23
ATOM     23  C   UNL     1      33.187 -22.366 -12.758  0.00  0.00    +0.132 C 
BRANCH  23  25
ATOM     24  O   UNL     1      34.772 -23.925 -11.742  0.00  0.00    -0.250 OA
ATOM     25  C   UNL     1      33.698 -23.704 -12.282  0.00  0.00    +0.318 C 
BRANCH  25  26
ATOM     26  O   UNL     1      32.776 -24.669 -12.545  0.00  0.00    -0.480 OA
ATOM     27  H   UNL     1      31.900 -24.577 -12.228  0.00  0.00    +0.295 HD
ENDBRANCH  25  26
ENDBRANCH  23  25
ENDBRANCH   2  23
TORSDOF 6
ENDMDL
MODEL 9
REMARK VINA RESULT:      -9.2      7.835     13.130
REMARK  Name = 5472495
REMARK  6 active torsions:
REMARK  status: ('A' for Active; 'I' for Inactive)
REMARK    1  A    between atoms: C_2  and  C_23
REMARK    2  A    between atoms: C_3  and  C_7
REMARK    3  A    between atoms: C_7  and  C_13
REMARK    4  A    between atoms: C_16  and  S_19
REMARK    5  A    between atoms: C_23  and  C_25
REMARK    6  A    between atoms: C_25  and  O_26
REMARK                            x       y       z     vdW  Elec       q    Type
REMARK                         _______ _______ _______ _____ _____    ______ ____
ROOT
ATOM      1  F   UNL     1      30.675  -9.755 -18.441  0.00  0.00    -0.204 F 
ATOM      2  C   UNL     1      33.596  -9.030 -22.372  0.00  0.00    -0.030 C 
ATOM      3  C   UNL     1      33.491 -11.244 -22.968  0.00  0.00    -0.036 C 
ATOM      4  C   UNL     1      34.027  -9.922 -23.290  0.00  0.00    +0.037 C 
ATOM      5  C   UNL     1      32.749  -9.752 -21.405  0.00  0.00    -0.005 C 
ATOM      6  C   UNL     1      32.677 -11.110 -21.759  0.00  0.00    -0.008 C 
ATOM      7  C   UNL     1      32.077  -9.280 -20.287  0.00  0.00    +0.029 C 
ATOM      8  C   UNL     1      31.941 -12.015 -21.011  0.00  0.00    +0.002 C 
ATOM      9  C   UNL     1      34.908  -9.682 -24.469  0.00  0.00    +0.009 C 
ATOM     10  C   UNL     1      31.333 -10.186 -19.526  0.00  0.00    +0.140 C 
ATOM     11  C   UNL     1      31.265 -11.541 -19.885  0.00  0.00    +0.030 C 
ENDROOT
BRANCH   3  12
ATOM     12  C   UNL     1      33.691 -12.386 -23.637  0.00  0.00    +0.049 C 
BRANCH  12  13
ATOM     13  C   UNL     1      34.249 -13.626 -23.073  0.00  0.00    -0.018 C 
ATOM     14  C   UNL     1      34.637 -13.654 -21.743  0.00  0.00    -0.003 C 
ATOM     15  C   UNL     1      34.377 -14.745 -23.883  0.00  0.00    -0.003 C 
ATOM     16  C   UNL     1      35.298 -15.962 -22.011  0.00  0.00    +0.106 C 
ATOM     17  C   UNL     1      35.165 -14.830 -21.208  0.00  0.00    +0.018 C 
ATOM     18  C   UNL     1      34.904 -15.920 -23.348  0.00  0.00    +0.018 C 
BRANCH  16  19
ATOM     19  S   UNL     1      35.958 -17.433 -21.341  0.00  0.00    +0.010 S 
ATOM     20  O   UNL     1      37.270 -17.648 -21.937  0.00  0.00    -0.169 OA
ATOM     21  O   UNL     1      35.822 -17.395 -19.891  0.00  0.00    -0.169 OA
ATOM     22  C   UNL     1      34.874 -18.713 -21.929  0.00  0.00    +0.182 C 
ENDBRANCH  16  19
ENDBRANCH  12  13
ENDBRANCH   3  12
BRANCH   2  23
ATOM     23  C   UNL     1      33.855  -7.572 -22.252  0.00  0.00    +0.132 C 
BRANCH  23  25
ATOM     24  O   UNL     1      31.642  -6.664 -22.750  0.00  0.00    -0.250 OA
ATOM     25  C   UNL     1      32.826  -6.785 -23.026  0.00  0.00    +0.318 C 
BRANCH  25  26
ATOM     26  O   UNL     1      33.408  -6.209 -24.112  0.00  0.00    -0.480 OA
ATOM     27  H   UNL     1      34.042  -6.685 -24.610  0.00  0.00    +0.295 HD
ENDBRANCH  25  26
ENDBRANCH  23  25
ENDBRANCH   2  23
TORSDOF 6
ENDMDL
