MODEL 1
REMARK VINA RESULT:     -11.7      0.000      0.000
REMARK  Name = 5288712
REMARK  5 active torsions:
REMARK  status: ('A' for Active; 'I' for Inactive)
REMARK    1  A    between atoms: C_1  and  N_18
REMARK    2  A    between atoms: C_2  and  S_7
REMARK    3  A    between atoms: S_7  and  N_10
REMARK    4  A    between atoms: N_10  and  C_13
REMARK    5  A    between atoms: N_18  and  C_26
REMARK                            x       y       z     vdW  Elec       q    Type
REMARK                         _______ _______ _______ _____ _____    ______ ____
ROOT
ATOM      1  C   UNL     1      35.825 -19.051 -20.236  0.00  0.00    +0.048 C 
ATOM      2  C   UNL     1      34.592 -21.089 -18.773  0.00  0.00    +0.129 C 
ATOM      3  C   UNL     1      34.435 -19.194 -20.264  0.00  0.00    +0.016 C 
ATOM      4  C   UNL     1      36.595 -19.932 -19.471  0.00  0.00    +0.016 C 
ATOM      5  C   UNL     1      33.820 -20.212 -19.534  0.00  0.00    +0.022 C 
ATOM      6  C   UNL     1      35.980 -20.950 -18.742  0.00  0.00    +0.022 C 
ENDROOT
BRANCH   2   7
ATOM      7  S   UNL     1      33.823 -22.363 -17.860  0.00  0.00    +0.103 S 
ATOM      8  O   UNL     1      33.912 -23.590 -18.644  0.00  0.00    -0.146 OA
ATOM      9  O   UNL     1      32.512 -21.853 -17.477  0.00  0.00    -0.146 OA
BRANCH   7  10
ATOM     10  N   UNL     1      34.768 -22.526 -16.534  0.00  0.00    -0.093 NA
BRANCH  10  13
ATOM     11  N   UNL     1      33.060 -23.166 -14.970  0.00  0.00    -0.369 N 
ATOM     12  N   UNL     1      34.956 -22.123 -14.247  0.00  0.00    -0.369 N 
ATOM     13  C   UNL     1      34.267 -22.613 -15.330  0.00  0.00    +0.212 C 
ATOM     14  H   UNL     1      32.470 -23.553 -15.656  0.00  0.00    +0.159 HD
ATOM     15  H   UNL     1      32.786 -23.175 -14.024  0.00  0.00    +0.159 HD
ATOM     16  H   UNL     1      35.838 -21.702 -14.374  0.00  0.00    +0.159 HD
ATOM     17  H   UNL     1      34.571 -22.194 -13.345  0.00  0.00    +0.159 HD
ENDBRANCH  10  13
ENDBRANCH   7  10
ENDBRANCH   2   7
BRANCH   1  18
ATOM     18  N   UNL     1      36.445 -18.026 -20.970  0.00  0.00    -0.311 N 
ATOM     19  H   UNL     1      37.360 -17.795 -20.690  0.00  0.00    +0.152 HD
BRANCH  18  26
ATOM     20  O   UNL     1      35.421 -15.691 -19.588  0.00  0.00    -0.270 OA
ATOM     21  N   UNL     1      34.463 -14.189 -21.139  0.00  0.00    -0.280 N 
ATOM     22  C   UNL     1      34.813 -15.347 -23.095  0.00  0.00    +0.019 C 
ATOM     23  C   UNL     1      35.348 -16.124 -21.983  0.00  0.00    +0.069 C 
ATOM     24  C   UNL     1      34.288 -14.182 -22.528  0.00  0.00    +0.051 C 
ATOM     25  C   UNL     1      35.111 -15.354 -20.716  0.00  0.00    +0.251 C 
ATOM     26  C   UNL     1      35.951 -17.313 -22.014  0.00  0.00    +0.066 C 
ATOM     27  C   UNL     1      34.750 -15.557 -24.460  0.00  0.00    +0.001 C 
ATOM     28  C   UNL     1      33.689 -13.195 -23.286  0.00  0.00    +0.015 C 
ATOM     29  C   UNL     1      34.148 -14.569 -25.247  0.00  0.00    +0.000 C 
ATOM     30  C   UNL     1      33.622 -13.400 -24.666  0.00  0.00    +0.001 C 
ATOM     31  H   UNL     1      34.168 -13.467 -20.538  0.00  0.00    +0.155 HD
ENDBRANCH  18  26
ENDBRANCH   1  18
TORSDOF 5
ENDMDL
MODEL 2
REMARK VINA RESULT:     -11.6      3.825      6.299
REMARK  Name = 5288712
REMARK  5 active torsions:
REMARK  status: ('A' for Active; 'I' for Inactive)
REMARK    1  A    between atoms: C_1  and  N_18
REMARK    2  A    between atoms: C_2  and  S_7
REMARK    3  A    between atoms: S_7  and  N_10
REMARK    4  A    between atoms: N_10  and  C_13
REMARK    5  A    between atoms: N_18  and  C_26
REMARK                            x       y       z     vdW  Elec       q    Type
REMARK                         _______ _______ _______ _____ _____    ______ ____
ROOT
ATOM      1  C   UNL     1      35.544 -22.434 -15.521  0.00  0.00    +0.048 C 
ATOM      2  C   UNL     1      36.468 -23.099 -12.968  0.00  0.00    +0.129 C 
ATOM      3  C   UNL     1      36.869 -22.174 -15.164  0.00  0.00    +0.016 C 
ATOM      4  C   UNL     1      34.683 -23.029 -14.594  0.00  0.00    +0.016 C 
ATOM      5  C   UNL     1      37.330 -22.506 -13.890  0.00  0.00    +0.022 C 
ATOM      6  C   UNL     1      35.144 -23.360 -13.319  0.00  0.00    +0.022 C 
ENDROOT
BRANCH   2   7
ATOM      7  S   UNL     1      37.045 -23.514 -11.373  0.00  0.00    +0.103 S 
ATOM      8  O   UNL     1      36.024 -24.334 -10.729  0.00  0.00    -0.146 OA
ATOM      9  O   UNL     1      37.453 -22.260 -10.750  0.00  0.00    -0.146 OA
BRANCH   7  10
ATOM     10  N   UNL     1      38.358 -24.449 -11.658  0.00  0.00    -0.093 NA
BRANCH  10  13
ATOM     11  N   UNL     1      37.288 -26.368 -12.634  0.00  0.00    -0.369 N 
ATOM     12  N   UNL     1      39.384 -25.751 -13.294  0.00  0.00    -0.369 N 
ATOM     13  C   UNL     1      38.320 -25.470 -12.472  0.00  0.00    +0.212 C 
ATOM     14  H   UNL     1      36.466 -26.275 -12.100  0.00  0.00    +0.159 HD
ATOM     15  H   UNL     1      37.374 -27.103 -13.282  0.00  0.00    +0.159 HD
ATOM     16  H   UNL     1      40.186 -25.180 -13.273  0.00  0.00    +0.159 HD
ATOM     17  H   UNL     1      39.345 -26.522 -13.904  0.00  0.00    +0.159 HD
ENDBRANCH  10  13
ENDBRANCH   7  10
ENDBRANCH   2   7
BRANCH   1  18
ATOM     18  N   UNL     1      35.079 -22.101 -16.804  0.00  0.00    -0.311 N 
ATOM     19  H   UNL     1      34.242 -22.539 -17.081  0.00  0.00    +0.152 HD
BRANCH  18  26
ATOM     20  O   UNL     1      32.759 -21.475 -18.427  0.00  0.00    -0.270 OA
ATOM     21  N   UNL     1      33.361 -19.982 -20.156  0.00  0.00    -0.280 N 
ATOM     22  C   UNL     1      35.603 -19.726 -19.710  0.00  0.00    +0.019 C 
ATOM     23  C   UNL     1      35.025 -20.636 -18.727  0.00  0.00    +0.069 C 
ATOM     24  C   UNL     1      34.550 -19.359 -20.553  0.00  0.00    +0.051 C 
ATOM     25  C   UNL     1      33.563 -20.792 -19.034  0.00  0.00    +0.251 C 
ATOM     26  C   UNL     1      35.629 -21.256 -17.712  0.00  0.00    +0.066 C 
ATOM     27  C   UNL     1      36.877 -19.230 -19.914  0.00  0.00    +0.001 C 
ATOM     28  C   UNL     1      34.722 -18.496 -21.617  0.00  0.00    +0.015 C 
ATOM     29  C   UNL     1      37.072 -18.353 -20.986  0.00  0.00    +0.000 C 
ATOM     30  C   UNL     1      36.006 -17.990 -21.829  0.00  0.00    +0.001 C 
ATOM     31  H   UNL     1      32.495 -19.866 -20.610  0.00  0.00    +0.155 HD
ENDBRANCH  18  26
ENDBRANCH   1  18
TORSDOF 5
ENDMDL
MODEL 3
REMARK VINA RESULT:     -11.3      1.415      1.795
REMARK  Name = 5288712
REMARK  5 active torsions:
REMARK  status: ('A' for Active; 'I' for Inactive)
REMARK    1  A    between atoms: C_1  and  N_18
REMARK    2  A    between atoms: C_2  and  S_7
REMARK    3  A    between atoms: S_7  and  N_10
REMARK    4  A    between atoms: N_10  and  C_13
REMARK    5  A    between atoms: N_18  and  C_26
REMARK                            x       y       z     vdW  Elec       q    Type
REMARK                         _______ _______ _______ _____ _____    ______ ____
ROOT
ATOM      1  C   UNL     1      35.723 -19.152 -20.331  0.00  0.00    +0.048 C 
ATOM      2  C   UNL     1      34.518 -21.094 -18.722  0.00  0.00    +0.129 C 
ATOM      3  C   UNL     1      34.334 -19.298 -20.328  0.00  0.00    +0.016 C 
ATOM      4  C   UNL     1      36.507 -19.982 -19.525  0.00  0.00    +0.016 C 
ATOM      5  C   UNL     1      33.732 -20.267 -19.524  0.00  0.00    +0.022 C 
ATOM      6  C   UNL     1      35.906 -20.952 -18.722  0.00  0.00    +0.022 C 
ENDROOT
BRANCH   2   7
ATOM      7  S   UNL     1      33.766 -22.307 -17.716  0.00  0.00    +0.103 S 
ATOM      8  O   UNL     1      33.867 -23.586 -18.411  0.00  0.00    -0.146 OA
ATOM      9  O   UNL     1      32.451 -21.785 -17.365  0.00  0.00    -0.146 OA
BRANCH   7  10
ATOM     10  N   UNL     1      34.718 -22.364 -16.386  0.00  0.00    -0.093 NA
BRANCH  10  13
ATOM     11  N   UNL     1      33.008 -23.143 -14.887  0.00  0.00    -0.369 N 
ATOM     12  N   UNL     1      34.961 -22.289 -14.070  0.00  0.00    -0.369 N 
ATOM     13  C   UNL     1      34.233 -22.595 -15.194  0.00  0.00    +0.212 C 
ATOM     14  H   UNL     1      32.391 -23.405 -15.607  0.00  0.00    +0.159 HD
ATOM     15  H   UNL     1      32.750 -23.270 -13.945  0.00  0.00    +0.159 HD
ATOM     16  H   UNL     1      35.858 -21.892 -14.157  0.00  0.00    +0.159 HD
ATOM     17  H   UNL     1      34.587 -22.468 -13.178  0.00  0.00    +0.159 HD
ENDBRANCH  10  13
ENDBRANCH   7  10
ENDBRANCH   2   7
BRANCH   1  18
ATOM     18  N   UNL     1      36.329 -18.175 -21.139  0.00  0.00    -0.311 N 
ATOM     19  H   UNL     1      37.159 -18.452 -21.592  0.00  0.00    +0.152 HD
BRANCH  18  26
ATOM     20  O   UNL     1      35.071 -18.496 -23.732  0.00  0.00    -0.270 OA
ATOM     21  N   UNL     1      34.225 -16.421 -24.482  0.00  0.00    -0.280 N 
ATOM     22  C   UNL     1      34.831 -15.074 -22.719  0.00  0.00    +0.019 C 
ATOM     23  C   UNL     1      35.272 -16.438 -22.447  0.00  0.00    +0.069 C 
ATOM     24  C   UNL     1      34.201 -15.120 -23.966  0.00  0.00    +0.051 C 
ATOM     25  C   UNL     1      34.870 -17.302 -23.607  0.00  0.00    +0.251 C 
ATOM     26  C   UNL     1      35.924 -16.903 -21.380  0.00  0.00    +0.066 C 
ATOM     27  C   UNL     1      34.927 -13.885 -22.020  0.00  0.00    +0.001 C 
ATOM     28  C   UNL     1      33.650 -14.001 -24.558  0.00  0.00    +0.015 C 
ATOM     29  C   UNL     1      34.374 -12.739 -22.601  0.00  0.00    +0.000 C 
ATOM     30  C   UNL     1      33.742 -12.796 -23.858  0.00  0.00    +0.001 C 
ATOM     31  H   UNL     1      33.838 -16.682 -25.349  0.00  0.00    +0.155 HD
ENDBRANCH  18  26
ENDBRANCH   1  18
TORSDOF 5
ENDMDL
MODEL 4
REMARK VINA RESULT:     -11.3      2.698      9.431
REMARK  Name = 5288712
REMARK  5 active torsions:
REMARK  status: ('A' for Active; 'I' for Inactive)
REMARK    1  A    between atoms: C_1  and  N_18
REMARK    2  A    between atoms: C_2  and  S_7
REMARK    3  A    between atoms: S_7  and  N_10
REMARK    4  A    between atoms: N_10  and  C_13
REMARK    5  A    between atoms: N_18  and  C_26
REMARK                            x       y       z     vdW  Elec       q    Type
REMARK                         _______ _______ _______ _____ _____    ______ ____
ROOT
ATOM      1  C   UNL     1      35.058 -20.993 -18.635  0.00  0.00    +0.048 C 
ATOM      2  C   UNL     1      35.552 -19.029 -20.562  0.00  0.00    +0.129 C 
ATOM      3  C   UNL     1      33.997 -20.411 -19.333  0.00  0.00    +0.016 C 
ATOM      4  C   UNL     1      36.368 -20.587 -18.905  0.00  0.00    +0.016 C 
ATOM      5  C   UNL     1      34.244 -19.432 -20.295  0.00  0.00    +0.022 C 
ATOM      6  C   UNL     1      36.615 -19.607 -19.866  0.00  0.00    +0.022 C 
ENDROOT
BRANCH   2   7
ATOM      7  S   UNL     1      35.862 -17.802 -21.765  0.00  0.00    +0.103 S 
ATOM      8  O   UNL     1      35.024 -18.093 -22.924  0.00  0.00    -0.146 OA
ATOM      9  O   UNL     1      37.310 -17.747 -21.924  0.00  0.00    -0.146 OA
BRANCH   7  10
ATOM     10  N   UNL     1      35.323 -16.422 -21.069  0.00  0.00    -0.093 NA
BRANCH  10  13
ATOM     11  N   UNL     1      34.655 -14.125 -21.298  0.00  0.00    -0.369 N 
ATOM     12  N   UNL     1      35.653 -15.217 -23.036  0.00  0.00    -0.369 N 
ATOM     13  C   UNL     1      35.205 -15.307 -21.740  0.00  0.00    +0.212 C 
ATOM     14  H   UNL     1      34.296 -14.059 -20.384  0.00  0.00    +0.159 HD
ATOM     15  H   UNL     1      34.620 -13.345 -21.898  0.00  0.00    +0.159 HD
ATOM     16  H   UNL     1      36.069 -15.998 -23.468  0.00  0.00    +0.159 HD
ATOM     17  H   UNL     1      35.559 -14.372 -23.532  0.00  0.00    +0.159 HD
ENDBRANCH  10  13
ENDBRANCH   7  10
ENDBRANCH   2   7
BRANCH   1  18
ATOM     18  N   UNL     1      34.810 -21.980 -17.666  0.00  0.00    -0.311 N 
ATOM     19  H   UNL     1      35.568 -22.574 -17.459  0.00  0.00    +0.152 HD
BRANCH  18  26
ATOM     20  O   UNL     1      35.856 -23.443 -15.391  0.00  0.00    -0.270 OA
ATOM     21  N   UNL     1      34.093 -24.046 -13.939  0.00  0.00    -0.280 N 
ATOM     22  C   UNL     1      32.306 -23.146 -15.073  0.00  0.00    +0.019 C 
ATOM     23  C   UNL     1      33.527 -22.876 -15.823  0.00  0.00    +0.069 C 
ATOM     24  C   UNL     1      32.706 -23.859 -13.938  0.00  0.00    +0.051 C 
ATOM     25  C   UNL     1      34.682 -23.470 -15.069  0.00  0.00    +0.251 C 
ATOM     26  C   UNL     1      33.666 -22.225 -16.978  0.00  0.00    +0.066 C 
ATOM     27  C   UNL     1      30.973 -22.845 -15.283  0.00  0.00    +0.001 C 
ATOM     28  C   UNL     1      31.808 -24.292 -12.983  0.00  0.00    +0.015 C 
ATOM     29  C   UNL     1      30.047 -23.274 -14.327  0.00  0.00    +0.000 C 
ATOM     30  C   UNL     1      30.460 -23.991 -13.188  0.00  0.00    +0.001 C 
ATOM     31  H   UNL     1      34.589 -24.523 -13.234  0.00  0.00    +0.155 HD
ENDBRANCH  18  26
ENDBRANCH   1  18
TORSDOF 5
ENDMDL
MODEL 5
REMARK VINA RESULT:     -11.0      3.720      6.262
REMARK  Name = 5288712
REMARK  5 active torsions:
REMARK  status: ('A' for Active; 'I' for Inactive)
REMARK    1  A    between atoms: C_1  and  N_18
REMARK    2  A    between atoms: C_2  and  S_7
REMARK    3  A    between atoms: S_7  and  N_10
REMARK    4  A    between atoms: N_10  and  C_13
REMARK    5  A    between atoms: N_18  and  C_26
REMARK                            x       y       z     vdW  Elec       q    Type
REMARK                         _______ _______ _______ _____ _____    ______ ____
ROOT
ATOM      1  C   UNL     1      35.874 -22.786 -15.700  0.00  0.00    +0.048 C 
ATOM      2  C   UNL     1      37.226 -24.281 -13.763  0.00  0.00    +0.129 C 
ATOM      3  C   UNL     1      37.181 -22.449 -15.339  0.00  0.00    +0.016 C 
ATOM      4  C   UNL     1      35.247 -23.875 -15.088  0.00  0.00    +0.016 C 
ATOM      5  C   UNL     1      37.855 -23.195 -14.372  0.00  0.00    +0.022 C 
ATOM      6  C   UNL     1      35.921 -24.621 -14.121  0.00  0.00    +0.022 C 
ENDROOT
BRANCH   2   7
ATOM      7  S   UNL     1      38.070 -25.214 -12.553  0.00  0.00    +0.103 S 
ATOM      8  O   UNL     1      39.404 -25.507 -13.065  0.00  0.00    -0.146 OA
ATOM      9  O   UNL     1      37.182 -26.316 -12.198  0.00  0.00    -0.146 OA
BRANCH   7  10
ATOM     10  N   UNL     1      38.214 -24.185 -11.289  0.00  0.00    -0.093 NA
BRANCH  10  13
ATOM     11  N   UNL     1      35.966 -24.047 -10.448  0.00  0.00    -0.369 N 
ATOM     12  N   UNL     1      37.261 -22.174 -10.599  0.00  0.00    -0.369 N 
ATOM     13  C   UNL     1      37.191 -23.530 -10.805  0.00  0.00    +0.212 C 
ATOM     14  H   UNL     1      35.789 -25.010 -10.549  0.00  0.00    +0.159 HD
ATOM     15  H   UNL     1      35.267 -23.452 -10.093  0.00  0.00    +0.159 HD
ATOM     16  H   UNL     1      38.089 -21.685 -10.816  0.00  0.00    +0.159 HD
ATOM     17  H   UNL     1      36.485 -21.691 -10.235  0.00  0.00    +0.159 HD
ENDBRANCH  10  13
ENDBRANCH   7  10
ENDBRANCH   2   7
BRANCH   1  18
ATOM     18  N   UNL     1      35.194 -22.035 -16.674  0.00  0.00    -0.311 N 
ATOM     19  H   UNL     1      34.214 -22.120 -16.669  0.00  0.00    +0.152 HD
BRANCH  18  26
ATOM     20  O   UNL     1      32.836 -21.526 -18.282  0.00  0.00    -0.270 OA
ATOM     21  N   UNL     1      33.374 -20.081 -20.072  0.00  0.00    -0.280 N 
ATOM     22  C   UNL     1      35.615 -19.753 -19.670  0.00  0.00    +0.019 C 
ATOM     23  C   UNL     1      35.075 -20.642 -18.647  0.00  0.00    +0.069 C 
ATOM     24  C   UNL     1      34.541 -19.443 -20.509  0.00  0.00    +0.051 C 
ATOM     25  C   UNL     1      33.613 -20.845 -18.925  0.00  0.00    +0.251 C 
ATOM     26  C   UNL     1      35.709 -21.210 -17.620  0.00  0.00    +0.066 C 
ATOM     27  C   UNL     1      36.872 -19.233 -19.911  0.00  0.00    +0.001 C 
ATOM     28  C   UNL     1      34.675 -18.614 -21.605  0.00  0.00    +0.015 C 
ATOM     29  C   UNL     1      37.030 -18.390 -21.017  0.00  0.00    +0.000 C 
ATOM     30  C   UNL     1      35.942 -18.084 -21.856  0.00  0.00    +0.001 C 
ATOM     31  H   UNL     1      32.498 -20.003 -20.515  0.00  0.00    +0.155 HD
ENDBRANCH  18  26
ENDBRANCH   1  18
TORSDOF 5
ENDMDL
MODEL 6
REMARK VINA RESULT:     -10.4      2.626      9.639
REMARK  Name = 5288712
REMARK  5 active torsions:
REMARK  status: ('A' for Active; 'I' for Inactive)
REMARK    1  A    between atoms: C_1  and  N_18
REMARK    2  A    between atoms: C_2  and  S_7
REMARK    3  A    between atoms: S_7  and  N_10
REMARK    4  A    between atoms: N_10  and  C_13
REMARK    5  A    between atoms: N_18  and  C_26
REMARK                            x       y       z     vdW  Elec       q    Type
REMARK                         _______ _______ _______ _____ _____    ______ ____
ROOT
ATOM      1  C   UNL     1      34.991 -20.956 -18.539  0.00  0.00    +0.048 C 
ATOM      2  C   UNL     1      35.432 -19.076 -20.560  0.00  0.00    +0.129 C 
ATOM      3  C   UNL     1      33.913 -20.425 -19.252  0.00  0.00    +0.016 C 
ATOM      4  C   UNL     1      36.291 -20.542 -18.843  0.00  0.00    +0.016 C 
ATOM      5  C   UNL     1      34.134 -19.487 -20.261  0.00  0.00    +0.022 C 
ATOM      6  C   UNL     1      36.512 -19.603 -19.851  0.00  0.00    +0.022 C 
ENDROOT
BRANCH   2   7
ATOM      7  S   UNL     1      35.709 -17.901 -21.822  0.00  0.00    +0.103 S 
ATOM      8  O   UNL     1      34.753 -18.164 -22.893  0.00  0.00    -0.146 OA
ATOM      9  O   UNL     1      37.137 -17.945 -22.112  0.00  0.00    -0.146 OA
BRANCH   7  10
ATOM     10  N   UNL     1      35.325 -16.472 -21.123  0.00  0.00    -0.093 NA
BRANCH  10  13
ATOM     11  N   UNL     1      34.633 -14.187 -21.405  0.00  0.00    -0.369 N 
ATOM     12  N   UNL     1      35.678 -15.297 -23.103  0.00  0.00    -0.369 N 
ATOM     13  C   UNL     1      35.206 -15.370 -21.816  0.00  0.00    +0.212 C 
ATOM     14  H   UNL     1      34.256 -14.110 -20.499  0.00  0.00    +0.159 HD
ATOM     15  H   UNL     1      34.601 -13.418 -22.019  0.00  0.00    +0.159 HD
ATOM     16  H   UNL     1      36.112 -16.080 -23.514  0.00  0.00    +0.159 HD
ATOM     17  H   UNL     1      35.584 -14.462 -23.616  0.00  0.00    +0.159 HD
ENDBRANCH  10  13
ENDBRANCH   7  10
ENDBRANCH   2   7
BRANCH   1  18
ATOM     18  N   UNL     1      34.769 -21.901 -17.524  0.00  0.00    -0.311 N 
ATOM     19  H   UNL     1      33.988 -22.487 -17.650  0.00  0.00    +0.152 HD
BRANCH  18  26
ATOM     20  O   UNL     1      32.718 -22.971 -15.777  0.00  0.00    -0.270 OA
ATOM     21  N   UNL     1      33.639 -23.473 -13.660  0.00  0.00    -0.280 N 
ATOM     22  C   UNL     1      35.824 -22.844 -14.009  0.00  0.00    +0.019 C 
ATOM     23  C   UNL     1      35.062 -22.609 -15.231  0.00  0.00    +0.069 C 
ATOM     24  C   UNL     1      34.912 -23.369 -13.088  0.00  0.00    +0.051 C 
ATOM     25  C   UNL     1      33.641 -23.025 -14.985  0.00  0.00    +0.251 C 
ATOM     26  C   UNL     1      35.489 -22.115 -16.394  0.00  0.00    +0.066 C 
ATOM     27  C   UNL     1      37.147 -22.652 -13.660  0.00  0.00    +0.001 C 
ATOM     28  C   UNL     1      35.278 -23.718 -11.803  0.00  0.00    +0.015 C 
ATOM     29  C   UNL     1      37.539 -22.999 -12.362  0.00  0.00    +0.000 C 
ATOM     30  C   UNL     1      36.614 -23.527 -11.443  0.00  0.00    +0.001 C 
ATOM     31  H   UNL     1      32.845 -23.818 -13.190  0.00  0.00    +0.155 HD
ENDBRANCH  18  26
ENDBRANCH   1  18
TORSDOF 5
ENDMDL
MODEL 7
REMARK VINA RESULT:     -10.1      6.292     10.354
REMARK  Name = 5288712
REMARK  5 active torsions:
REMARK  status: ('A' for Active; 'I' for Inactive)
REMARK    1  A    between atoms: C_1  and  N_18
REMARK    2  A    between atoms: C_2  and  S_7
REMARK    3  A    between atoms: S_7  and  N_10
REMARK    4  A    between atoms: N_10  and  C_13
REMARK    5  A    between atoms: N_18  and  C_26
REMARK                            x       y       z     vdW  Elec       q    Type
REMARK                         _______ _______ _______ _____ _____    ______ ____
ROOT
ATOM      1  C   UNL     1      34.001 -11.623 -23.157  0.00  0.00    +0.048 C 
ATOM      2  C   UNL     1      32.997  -9.137 -22.367  0.00  0.00    +0.129 C 
ATOM      3  C   UNL     1      34.473 -10.453 -23.756  0.00  0.00    +0.016 C 
ATOM      4  C   UNL     1      33.024 -11.544 -22.160  0.00  0.00    +0.016 C 
ATOM      5  C   UNL     1      33.972  -9.212 -23.361  0.00  0.00    +0.022 C 
ATOM      6  C   UNL     1      32.522 -10.303 -21.766  0.00  0.00    +0.022 C 
ENDROOT
BRANCH   2   7
ATOM      7  S   UNL     1      32.369  -7.584 -21.874  0.00  0.00    +0.103 S 
ATOM      8  O   UNL     1      31.201  -7.293 -22.699  0.00  0.00    -0.146 OA
ATOM      9  O   UNL     1      33.501  -6.666 -21.886  0.00  0.00    -0.146 OA
BRANCH   7  10
ATOM     10  N   UNL     1      31.868  -7.831 -20.335  0.00  0.00    -0.093 NA
BRANCH  10  13
ATOM     11  N   UNL     1      33.559  -6.756 -19.008  0.00  0.00    -0.369 N 
ATOM     12  N   UNL     1      32.754  -8.808 -18.415  0.00  0.00    -0.369 N 
ATOM     13  C   UNL     1      32.689  -7.776 -19.320  0.00  0.00    +0.212 C 
ATOM     14  H   UNL     1      33.607  -5.957 -19.581  0.00  0.00    +0.159 HD
ATOM     15  H   UNL     1      34.133  -6.827 -18.211  0.00  0.00    +0.159 HD
ATOM     16  H   UNL     1      32.178  -9.599 -18.528  0.00  0.00    +0.159 HD
ATOM     17  H   UNL     1      33.375  -8.756 -17.654  0.00  0.00    +0.159 HD
ENDBRANCH  10  13
ENDBRANCH   7  10
ENDBRANCH   2   7
BRANCH   1  18
ATOM     18  N   UNL     1      34.506 -12.873 -23.553  0.00  0.00    -0.311 N 
ATOM     19  H   UNL     1      34.682 -12.976 -24.516  0.00  0.00    +0.152 HD
BRANCH  18  26
ATOM     20  O   UNL     1      34.153 -15.004 -25.487  0.00  0.00    -0.270 OA
ATOM     21  N   UNL     1      34.569 -17.096 -24.470  0.00  0.00    -0.280 N 
ATOM     22  C   UNL     1      35.077 -16.415 -22.333  0.00  0.00    +0.019 C 
ATOM     23  C   UNL     1      34.782 -15.241 -23.147  0.00  0.00    +0.069 C 
ATOM     24  C   UNL     1      34.934 -17.514 -23.186  0.00  0.00    +0.051 C 
ATOM     25  C   UNL     1      34.452 -15.704 -24.537  0.00  0.00    +0.251 C 
ATOM     26  C   UNL     1      34.783 -13.957 -22.785  0.00  0.00    +0.066 C 
ATOM     27  C   UNL     1      35.434 -16.590 -21.010  0.00  0.00    +0.001 C 
ATOM     28  C   UNL     1      35.138 -18.811 -22.759  0.00  0.00    +0.015 C 
ATOM     29  C   UNL     1      35.646 -17.897 -20.557  0.00  0.00    +0.000 C 
ATOM     30  C   UNL     1      35.499 -18.997 -21.423  0.00  0.00    +0.001 C 
ATOM     31  H   UNL     1      34.415 -17.704 -25.230  0.00  0.00    +0.155 HD
ENDBRANCH  18  26
ENDBRANCH   1  18
TORSDOF 5
ENDMDL
MODEL 8
REMARK VINA RESULT:     -10.0      2.060      2.644
REMARK  Name = 5288712
REMARK  5 active torsions:
REMARK  status: ('A' for Active; 'I' for Inactive)
REMARK    1  A    between atoms: C_1  and  N_18
REMARK    2  A    between atoms: C_2  and  S_7
REMARK    3  A    between atoms: S_7  and  N_10
REMARK    4  A    between atoms: N_10  and  C_13
REMARK    5  A    between atoms: N_18  and  C_26
REMARK                            x       y       z     vdW  Elec       q    Type
REMARK                         _______ _______ _______ _____ _____    ______ ____
ROOT
ATOM      1  C   UNL     1      35.562 -18.335 -21.439  0.00  0.00    +0.048 C 
ATOM      2  C   UNL     1      34.945 -20.310 -19.560  0.00  0.00    +0.129 C 
ATOM      3  C   UNL     1      34.255 -18.818 -21.331  0.00  0.00    +0.016 C 
ATOM      4  C   UNL     1      36.559 -18.845 -20.602  0.00  0.00    +0.016 C 
ATOM      5  C   UNL     1      33.948 -19.803 -20.393  0.00  0.00    +0.022 C 
ATOM      6  C   UNL     1      36.251 -19.831 -19.665  0.00  0.00    +0.022 C 
ENDROOT
BRANCH   2   7
ATOM      7  S   UNL     1      34.561 -21.544 -18.386  0.00  0.00    +0.103 S 
ATOM      8  O   UNL     1      35.416 -21.335 -17.223  0.00  0.00    -0.146 OA
ATOM      9  O   UNL     1      34.621 -22.815 -19.099  0.00  0.00    -0.146 OA
BRANCH   7  10
ATOM     10  N   UNL     1      33.015 -21.216 -17.959  0.00  0.00    -0.093 NA
BRANCH  10  13
ATOM     11  N   UNL     1      31.058 -21.810 -16.696  0.00  0.00    -0.369 N 
ATOM     12  N   UNL     1      33.051 -22.845 -16.294  0.00  0.00    -0.369 N 
ATOM     13  C   UNL     1      32.387 -21.904 -17.042  0.00  0.00    +0.212 C 
ATOM     14  H   UNL     1      30.472 -21.169 -17.160  0.00  0.00    +0.159 HD
ATOM     15  H   UNL     1      30.694 -22.383 -15.984  0.00  0.00    +0.159 HD
ATOM     16  H   UNL     1      34.011 -23.008 -16.447  0.00  0.00    +0.159 HD
ATOM     17  H   UNL     1      32.569 -23.358 -15.607  0.00  0.00    +0.159 HD
ENDBRANCH  10  13
ENDBRANCH   7  10
ENDBRANCH   2   7
BRANCH   1  18
ATOM     18  N   UNL     1      35.872 -17.341 -22.383  0.00  0.00    -0.311 N 
ATOM     19  H   UNL     1      36.427 -17.633 -23.143  0.00  0.00    +0.152 HD
BRANCH  18  26
ATOM     20  O   UNL     1      34.700 -17.122 -25.027  0.00  0.00    -0.270 OA
ATOM     21  N   UNL     1      33.936 -14.916 -25.391  0.00  0.00    -0.280 N 
ATOM     22  C   UNL     1      34.513 -13.949 -23.386  0.00  0.00    +0.019 C 
ATOM     23  C   UNL     1      34.908 -15.353 -23.366  0.00  0.00    +0.069 C 
ATOM     24  C   UNL     1      33.927 -13.737 -24.638  0.00  0.00    +0.051 C 
ATOM     25  C   UNL     1      34.525 -15.967 -24.682  0.00  0.00    +0.251 C 
ATOM     26  C   UNL     1      35.509 -16.034 -22.389  0.00  0.00    +0.066 C 
ATOM     27  C   UNL     1      34.614 -12.919 -22.470  0.00  0.00    +0.001 C 
ATOM     28  C   UNL     1      33.427 -12.508 -25.021  0.00  0.00    +0.015 C 
ATOM     29  C   UNL     1      34.113 -11.666 -22.838  0.00  0.00    +0.000 C 
ATOM     30  C   UNL     1      33.526 -11.462 -24.101  0.00  0.00    +0.001 C 
ATOM     31  H   UNL     1      33.574 -14.995 -26.304  0.00  0.00    +0.155 HD
ENDBRANCH  18  26
ENDBRANCH   1  18
TORSDOF 5
ENDMDL
MODEL 9
REMARK VINA RESULT:     -10.0      2.305      2.972
REMARK  Name = 5288712
REMARK  5 active torsions:
REMARK  status: ('A' for Active; 'I' for Inactive)
REMARK    1  A    between atoms: C_1  and  N_18
REMARK    2  A    between atoms: C_2  and  S_7
REMARK    3  A    between atoms: S_7  and  N_10
REMARK    4  A    between atoms: N_10  and  C_13
REMARK    5  A    between atoms: N_18  and  C_26
REMARK                            x       y       z     vdW  Elec       q    Type
REMARK                         _______ _______ _______ _____ _____    ______ ____
ROOT
ATOM      1  C   UNL     1      35.579 -20.165 -19.267  0.00  0.00    +0.048 C 
ATOM      2  C   UNL     1      35.376 -21.804 -17.012  0.00  0.00    +0.129 C 
ATOM      3  C   UNL     1      36.687 -20.360 -18.439  0.00  0.00    +0.016 C 
ATOM      4  C   UNL     1      34.369 -20.795 -18.962  0.00  0.00    +0.016 C 
ATOM      5  C   UNL     1      36.586 -21.178 -17.314  0.00  0.00    +0.022 C 
ATOM      6  C   UNL     1      34.267 -21.612 -17.837  0.00  0.00    +0.022 C 
ENDROOT
BRANCH   2   7
ATOM      7  S   UNL     1      35.249 -22.828 -15.604  0.00  0.00    +0.103 S 
ATOM      8  O   UNL     1      34.490 -24.015 -15.982  0.00  0.00    -0.146 OA
ATOM      9  O   UNL     1      34.756 -21.977 -14.527  0.00  0.00    -0.146 OA
BRANCH   7  10
ATOM     10  N   UNL     1      36.793 -23.276 -15.299  0.00  0.00    -0.093 NA
BRANCH  10  13
ATOM     11  N   UNL     1      36.255 -24.870 -13.582  0.00  0.00    -0.369 N 
ATOM     12  N   UNL     1      38.332 -24.845 -14.527  0.00  0.00    -0.369 N 
ATOM     13  C   UNL     1      37.084 -24.272 -14.504  0.00  0.00    +0.212 C 
ATOM     14  H   UNL     1      35.332 -24.549 -13.469  0.00  0.00    +0.159 HD
ATOM     15  H   UNL     1      36.587 -25.618 -13.036  0.00  0.00    +0.159 HD
ATOM     16  H   UNL     1      39.019 -24.506 -15.148  0.00  0.00    +0.159 HD
ATOM     17  H   UNL     1      38.541 -25.595 -13.925  0.00  0.00    +0.159 HD
ENDBRANCH  10  13
ENDBRANCH   7  10
ENDBRANCH   2   7
BRANCH   1  18
ATOM     18  N   UNL     1      35.681 -19.342 -20.401  0.00  0.00    -0.311 N 
ATOM     19  H   UNL     1      35.911 -19.800 -21.241  0.00  0.00    +0.152 HD
BRANCH  18  26
ATOM     20  O   UNL     1      35.181 -19.061 -23.244  0.00  0.00    -0.270 OA
ATOM     21  N   UNL     1      34.817 -16.789 -23.780  0.00  0.00    -0.280 N 
ATOM     22  C   UNL     1      35.043 -15.839 -21.697  0.00  0.00    +0.019 C 
ATOM     23  C   UNL     1      35.236 -17.280 -21.584  0.00  0.00    +0.069 C 
ATOM     24  C   UNL     1      34.791 -15.594 -23.051  0.00  0.00    +0.051 C 
ATOM     25  C   UNL     1      35.085 -17.883 -22.951  0.00  0.00    +0.251 C 
ATOM     26  C   UNL     1      35.503 -18.000 -20.493  0.00  0.00    +0.066 C 
ATOM     27  C   UNL     1      35.068 -14.800 -20.785  0.00  0.00    +0.001 C 
ATOM     28  C   UNL     1      34.557 -14.325 -23.541  0.00  0.00    +0.015 C 
ATOM     29  C   UNL     1      34.833 -13.506 -21.262  0.00  0.00    +0.000 C 
ATOM     30  C   UNL     1      34.580 -13.270 -22.626  0.00  0.00    +0.001 C 
ATOM     31  H   UNL     1      34.665 -16.850 -24.751  0.00  0.00    +0.155 HD
ENDBRANCH  18  26
ENDBRANCH   1  18
TORSDOF 5
ENDMDL
