MODEL 1
REMARK VINA RESULT:     -12.3      0.000      0.000
REMARK  Name = 66571548
REMARK  8 active torsions:
REMARK  status: ('A' for Active; 'I' for Inactive)
REMARK    1  A    between atoms: C_2  and  C_10
REMARK    2  A    between atoms: C_2  and  C_22
REMARK    3  A    between atoms: N_3  and  C_15
REMARK    4  A    between atoms: C_15  and  C_18
REMARK    5  A    between atoms: C_18  and  O_19
REMARK    6  A    between atoms: C_25  and  N_28
REMARK    7  A    between atoms: C_29  and  C_31
REMARK    8  A    between atoms: C_31  and  C_34
REMARK                            x       y       z     vdW  Elec       q    Type
REMARK                         _______ _______ _______ _____ _____    ______ ____
ROOT
ATOM      1  O   UNL     1      32.608 -21.931 -18.450  0.00  0.00    -0.286 OA
ATOM      2  C   UNL     1      33.672 -21.786 -17.810  0.00  0.00    +0.199 C 
ENDROOT
BRANCH   2  10
ATOM      3  N   UNL     1      34.818 -23.111 -14.655  0.00  0.00    -0.261 N 
ATOM      4  N   UNL     1      32.892 -23.819 -13.388  0.00  0.00    -0.322 NA
ATOM      5  N   UNL     1      30.793 -23.450 -14.567  0.00  0.00    -0.170 NA
ATOM      6  N   UNL     1      30.841 -24.400 -12.428  0.00  0.00    -0.293 N 
ATOM      7  C   UNL     1      33.472 -23.289 -14.480  0.00  0.00    +0.201 C 
ATOM      8  C   UNL     1      35.050 -22.545 -15.881  0.00  0.00    +0.071 C 
ATOM      9  C   UNL     1      32.828 -22.828 -15.621  0.00  0.00    +0.069 C 
ATOM     10  C   UNL     1      33.833 -22.358 -16.503  0.00  0.00    +0.059 C 
ATOM     11  C   UNL     1      31.437 -22.925 -15.636  0.00  0.00    +0.116 C 
ATOM     12  C   UNL     1      31.551 -23.858 -13.524  0.00  0.00    +0.143 C 
ATOM     13  H   UNL     1      31.329 -24.717 -11.634  0.00  0.00    +0.155 HD
ATOM     14  H   UNL     1      29.859 -24.460 -12.458  0.00  0.00    +0.155 HD
BRANCH   3  15
ATOM     15  C   UNL     1      35.915 -23.486 -13.639  0.00  0.00    +0.091 C 
ATOM     16  C   UNL     1      36.336 -24.975 -13.702  0.00  0.00    +0.023 C 
ATOM     17  C   UNL     1      37.181 -22.648 -13.932  0.00  0.00    +0.023 C 
BRANCH  15  18
ATOM     18  C   UNL     1      35.439 -23.179 -12.196  0.00  0.00    +0.155 C 
BRANCH  18  19
ATOM     19  O   UNL     1      35.103 -24.381 -11.510  0.00  0.00    -0.380 OA
ATOM     20  H   UNL     1      35.834 -25.014 -11.591  0.00  0.00    +0.211 HD
ENDBRANCH  18  19
ENDBRANCH  15  18
ENDBRANCH   3  15
ENDBRANCH   2  10
BRANCH   2  22
ATOM     21  N   UNL     1      37.058 -20.277 -18.572  0.00  0.00    -0.241 NA
ATOM     22  C   UNL     1      34.748 -20.987 -18.493  0.00  0.00    +0.059 C 
ATOM     23  C   UNL     1      34.471 -20.236 -19.631  0.00  0.00    +0.021 C 
ATOM     24  C   UNL     1      36.045 -20.973 -18.007  0.00  0.00    +0.102 C 
ATOM     25  C   UNL     1      35.486 -19.506 -20.240  0.00  0.00    +0.070 C 
ATOM     26  C   UNL     1      36.751 -19.560 -19.677  0.00  0.00    +0.113 C 
BRANCH  25  28
ATOM     27  O   UNL     1      37.308 -17.711 -21.812  0.00  0.00    -0.274 OA
ATOM     28  N   UNL     1      35.238 -18.745 -21.380  0.00  0.00    -0.282 N 
ATOM     29  C   UNL     1      36.129 -17.916 -22.085  0.00  0.00    +0.232 C 
ATOM     30  H   UNL     1      34.323 -18.793 -21.737  0.00  0.00    +0.155 HD
BRANCH  29  31
ATOM     31  C   UNL     1      35.446 -17.265 -23.277  0.00  0.00    +0.131 C 
BRANCH  31  34
ATOM     32 CL   UNL     1      33.476 -11.794 -22.024  0.00  0.00    -0.081 Cl
ATOM     33  N   UNL     1      35.091 -15.423 -21.728  0.00  0.00    -0.247 NA
ATOM     34  C   UNL     1      34.937 -15.876 -22.992  0.00  0.00    +0.068 C 
ATOM     35  C   UNL     1      34.348 -15.146 -24.012  0.00  0.00    +0.016 C 
ATOM     36  C   UNL     1      33.889 -13.867 -23.715  0.00  0.00    +0.014 C 
ATOM     37  C   UNL     1      34.633 -14.176 -21.477  0.00  0.00    +0.110 C 
ATOM     38  C   UNL     1      34.030 -13.366 -22.426  0.00  0.00    +0.077 C 
ENDBRANCH  31  34
ENDBRANCH  29  31
ENDBRANCH  25  28
ENDBRANCH   2  22
TORSDOF 8
ENDMDL
MODEL 2
REMARK VINA RESULT:     -12.1      1.903      2.391
REMARK  Name = 66571548
REMARK  8 active torsions:
REMARK  status: ('A' for Active; 'I' for Inactive)
REMARK    1  A    between atoms: C_2  and  C_10
REMARK    2  A    between atoms: C_2  and  C_22
REMARK    3  A    between atoms: N_3  and  C_15
REMARK    4  A    between atoms: C_15  and  C_18
REMARK    5  A    between atoms: C_18  and  O_19
REMARK    6  A    between atoms: C_25  and  N_28
REMARK    7  A    between atoms: C_29  and  C_31
REMARK    8  A    between atoms: C_31  and  C_34
REMARK                            x       y       z     vdW  Elec       q    Type
REMARK                         _______ _______ _______ _____ _____    ______ ____
ROOT
ATOM      1  O   UNL     1      32.819 -21.383 -19.208  0.00  0.00    -0.286 OA
ATOM      2  C   UNL     1      33.894 -21.246 -18.585  0.00  0.00    +0.199 C 
ENDROOT
BRANCH   2  10
ATOM      3  N   UNL     1      35.155 -22.737 -15.551  0.00  0.00    -0.261 N 
ATOM      4  N   UNL     1      33.277 -23.527 -14.260  0.00  0.00    -0.322 NA
ATOM      5  N   UNL     1      31.137 -23.106 -15.344  0.00  0.00    -0.170 NA
ATOM      6  N   UNL     1      31.263 -24.174 -13.265  0.00  0.00    -0.293 N 
ATOM      7  C   UNL     1      33.816 -22.933 -15.340  0.00  0.00    +0.201 C 
ATOM      8  C   UNL     1      35.341 -22.101 -16.751  0.00  0.00    +0.071 C 
ATOM      9  C   UNL     1      33.130 -22.413 -16.431  0.00  0.00    +0.069 C 
ATOM     10  C   UNL     1      34.102 -21.888 -17.319  0.00  0.00    +0.059 C 
ATOM     11  C   UNL     1      31.740 -22.519 -16.403  0.00  0.00    +0.116 C 
ATOM     12  C   UNL     1      31.932 -23.567 -14.352  0.00  0.00    +0.143 C 
ATOM     13  H   UNL     1      31.779 -24.532 -12.507  0.00  0.00    +0.155 HD
ATOM     14  H   UNL     1      30.281 -24.238 -13.265  0.00  0.00    +0.155 HD
BRANCH   3  15
ATOM     15  C   UNL     1      36.287 -23.161 -14.596  0.00  0.00    +0.091 C 
ATOM     16  C   UNL     1      36.018 -22.797 -13.115  0.00  0.00    +0.023 C 
ATOM     17  C   UNL     1      36.451 -24.697 -14.659  0.00  0.00    +0.023 C 
BRANCH  15  18
ATOM     18  C   UNL     1      37.624 -22.501 -15.020  0.00  0.00    +0.155 C 
BRANCH  18  19
ATOM     19  O   UNL     1      38.722 -23.364 -14.741  0.00  0.00    -0.380 OA
ATOM     20  H   UNL     1      39.029 -23.773 -15.566  0.00  0.00    +0.211 HD
ENDBRANCH  18  19
ENDBRANCH  15  18
ENDBRANCH   3  15
ENDBRANCH   2  10
BRANCH   2  22
ATOM     21  N   UNL     1      37.247 -20.006 -19.825  0.00  0.00    -0.241 NA
ATOM     22  C   UNL     1      34.930 -20.376 -19.245  0.00  0.00    +0.059 C 
ATOM     23  C   UNL     1      34.576 -19.182 -19.864  0.00  0.00    +0.021 C 
ATOM     24  C   UNL     1      36.267 -20.740 -19.252  0.00  0.00    +0.102 C 
ATOM     25  C   UNL     1      35.557 -18.399 -20.463  0.00  0.00    +0.070 C 
ATOM     26  C   UNL     1      36.866 -18.852 -20.417  0.00  0.00    +0.113 C 
BRANCH  25  28
ATOM     27  O   UNL     1      35.479 -15.600 -19.378  0.00  0.00    -0.274 OA
ATOM     28  N   UNL     1      35.233 -17.198 -21.090  0.00  0.00    -0.282 N 
ATOM     29  C   UNL     1      35.211 -15.905 -20.537  0.00  0.00    +0.232 C 
ATOM     30  H   UNL     1      34.988 -17.263 -22.040  0.00  0.00    +0.155 HD
BRANCH  29  31
ATOM     31  C   UNL     1      34.800 -14.872 -21.574  0.00  0.00    +0.131 C 
BRANCH  31  34
ATOM     32 CL   UNL     1      30.763 -10.929 -19.692  0.00  0.00    -0.081 Cl
ATOM     33  N   UNL     1      33.534 -12.812 -21.847  0.00  0.00    -0.247 NA
ATOM     34  C   UNL     1      33.773 -13.892 -21.070  0.00  0.00    +0.068 C 
ATOM     35  C   UNL     1      33.137 -14.136 -19.864  0.00  0.00    +0.016 C 
ATOM     36  C   UNL     1      32.193 -13.212 -19.427  0.00  0.00    +0.014 C 
ATOM     37  C   UNL     1      32.611 -11.937 -21.391  0.00  0.00    +0.110 C 
ATOM     38  C   UNL     1      31.920 -12.089 -20.199  0.00  0.00    +0.077 C 
ENDBRANCH  31  34
ENDBRANCH  29  31
ENDBRANCH  25  28
ENDBRANCH   2  22
TORSDOF 8
ENDMDL
MODEL 3
REMARK VINA RESULT:     -12.0      1.484      3.023
REMARK  Name = 66571548
REMARK  8 active torsions:
REMARK  status: ('A' for Active; 'I' for Inactive)
REMARK    1  A    between atoms: C_2  and  C_10
REMARK    2  A    between atoms: C_2  and  C_22
REMARK    3  A    between atoms: N_3  and  C_15
REMARK    4  A    between atoms: C_15  and  C_18
REMARK    5  A    between atoms: C_18  and  O_19
REMARK    6  A    between atoms: C_25  and  N_28
REMARK    7  A    between atoms: C_29  and  C_31
REMARK    8  A    between atoms: C_31  and  C_34
REMARK                            x       y       z     vdW  Elec       q    Type
REMARK                         _______ _______ _______ _____ _____    ______ ____
ROOT
ATOM      1  O   UNL     1      34.178 -23.455 -19.212  0.00  0.00    -0.286 OA
ATOM      2  C   UNL     1      34.286 -22.531 -18.376  0.00  0.00    +0.199 C 
ENDROOT
BRANCH   2  10
ATOM      3  N   UNL     1      32.192 -22.794 -15.449  0.00  0.00    -0.261 N 
ATOM      4  N   UNL     1      33.619 -22.984 -13.514  0.00  0.00    -0.322 NA
ATOM      5  N   UNL     1      35.988 -22.943 -14.075  0.00  0.00    -0.170 NA
ATOM      6  N   UNL     1      35.263 -23.148 -11.859  0.00  0.00    -0.293 N 
ATOM      7  C   UNL     1      33.416 -22.858 -14.837  0.00  0.00    +0.201 C 
ATOM      8  C   UNL     1      32.363 -22.669 -16.803  0.00  0.00    +0.071 C 
ATOM      9  C   UNL     1      34.391 -22.770 -15.823  0.00  0.00    +0.069 C 
ATOM     10  C   UNL     1      33.717 -22.651 -17.064  0.00  0.00    +0.059 C 
ATOM     11  C   UNL     1      35.718 -22.817 -15.395  0.00  0.00    +0.116 C 
ATOM     12  C   UNL     1      34.936 -23.018 -13.229  0.00  0.00    +0.143 C 
ATOM     13  H   UNL     1      34.546 -23.208 -11.187  0.00  0.00    +0.155 HD
ATOM     14  H   UNL     1      36.205 -23.179 -11.578  0.00  0.00    +0.155 HD
BRANCH   3  15
ATOM     15  C   UNL     1      30.827 -22.851 -14.736  0.00  0.00    +0.091 C 
ATOM     16  C   UNL     1      30.741 -21.941 -13.488  0.00  0.00    +0.023 C 
ATOM     17  C   UNL     1      29.728 -22.377 -15.716  0.00  0.00    +0.023 C 
BRANCH  15  18
ATOM     18  C   UNL     1      30.509 -24.303 -14.299  0.00  0.00    +0.155 C 
BRANCH  18  19
ATOM     19  O   UNL     1      30.824 -24.495 -12.924  0.00  0.00    -0.380 OA
ATOM     20  H   UNL     1      30.672 -25.423 -12.684  0.00  0.00    +0.211 HD
ENDBRANCH  18  19
ENDBRANCH  15  18
ENDBRANCH   3  15
ENDBRANCH   2  10
BRANCH   2  22
ATOM     21  N   UNL     1      36.885 -19.784 -18.519  0.00  0.00    -0.241 NA
ATOM     22  C   UNL     1      35.038 -21.312 -18.837  0.00  0.00    +0.059 C 
ATOM     23  C   UNL     1      34.623 -20.592 -19.952  0.00  0.00    +0.021 C 
ATOM     24  C   UNL     1      36.164 -20.871 -18.161  0.00  0.00    +0.102 C 
ATOM     25  C   UNL     1      35.339 -19.468 -20.351  0.00  0.00    +0.070 C 
ATOM     26  C   UNL     1      36.452 -19.110 -19.608  0.00  0.00    +0.113 C 
BRANCH  25  28
ATOM     27  O   UNL     1      36.941 -17.691 -22.165  0.00  0.00    -0.274 OA
ATOM     28  N   UNL     1      34.947 -18.726 -21.463  0.00  0.00    -0.282 N 
ATOM     29  C   UNL     1      35.738 -17.905 -22.286  0.00  0.00    +0.232 C 
ATOM     30  H   UNL     1      33.995 -18.784 -21.703  0.00  0.00    +0.155 HD
BRANCH  29  31
ATOM     31  C   UNL     1      34.909 -17.276 -23.395  0.00  0.00    +0.131 C 
BRANCH  31  34
ATOM     32 CL   UNL     1      33.983 -11.430 -22.799  0.00  0.00    -0.081 Cl
ATOM     33  N   UNL     1      34.113 -15.140 -24.244  0.00  0.00    -0.247 NA
ATOM     34  C   UNL     1      34.688 -15.797 -23.213  0.00  0.00    +0.068 C 
ATOM     35  C   UNL     1      35.075 -15.193 -22.027  0.00  0.00    +0.016 C 
ATOM     36  C   UNL     1      34.857 -13.826 -21.891  0.00  0.00    +0.014 C 
ATOM     37  C   UNL     1      33.917 -13.813 -24.076  0.00  0.00    +0.110 C 
ATOM     38  C   UNL     1      34.268 -13.115 -22.931  0.00  0.00    +0.077 C 
ENDBRANCH  31  34
ENDBRANCH  29  31
ENDBRANCH  25  28
ENDBRANCH   2  22
TORSDOF 8
ENDMDL
MODEL 4
REMARK VINA RESULT:     -11.9      1.824      3.204
REMARK  Name = 66571548
REMARK  8 active torsions:
REMARK  status: ('A' for Active; 'I' for Inactive)
REMARK    1  A    between atoms: C_2  and  C_10
REMARK    2  A    between atoms: C_2  and  C_22
REMARK    3  A    between atoms: N_3  and  C_15
REMARK    4  A    between atoms: C_15  and  C_18
REMARK    5  A    between atoms: C_18  and  O_19
REMARK    6  A    between atoms: C_25  and  N_28
REMARK    7  A    between atoms: C_29  and  C_31
REMARK    8  A    between atoms: C_31  and  C_34
REMARK                            x       y       z     vdW  Elec       q    Type
REMARK                         _______ _______ _______ _____ _____    ______ ____
ROOT
ATOM      1  O   UNL     1      36.907 -21.623 -18.078  0.00  0.00    -0.286 OA
ATOM      2  C   UNL     1      35.703 -21.459 -17.783  0.00  0.00    +0.199 C 
ENDROOT
BRANCH   2  10
ATOM      3  N   UNL     1      33.699 -22.695 -15.049  0.00  0.00    -0.261 N 
ATOM      4  N   UNL     1      35.148 -23.064 -13.157  0.00  0.00    -0.322 NA
ATOM      5  N   UNL     1      37.474 -22.510 -13.620  0.00  0.00    -0.170 NA
ATOM      6  N   UNL     1      36.805 -23.311 -11.525  0.00  0.00    -0.293 N 
ATOM      7  C   UNL     1      34.920 -22.688 -14.427  0.00  0.00    +0.201 C 
ATOM      8  C   UNL     1      33.839 -22.252 -16.338  0.00  0.00    +0.071 C 
ATOM      9  C   UNL     1      35.861 -22.228 -15.340  0.00  0.00    +0.069 C 
ATOM     10  C   UNL     1      35.170 -21.954 -16.547  0.00  0.00    +0.059 C 
ATOM     11  C   UNL     1      37.179 -22.146 -14.890  0.00  0.00    +0.116 C 
ATOM     12  C   UNL     1      36.454 -22.941 -12.844  0.00  0.00    +0.143 C 
ATOM     13  H   UNL     1      36.112 -23.634 -10.904  0.00  0.00    +0.155 HD
ATOM     14  H   UNL     1      37.741 -23.246 -11.228  0.00  0.00    +0.155 HD
BRANCH   3  15
ATOM     15  C   UNL     1      32.367 -23.131 -14.409  0.00  0.00    +0.091 C 
ATOM     16  C   UNL     1      31.895 -22.201 -13.265  0.00  0.00    +0.023 C 
ATOM     17  C   UNL     1      31.260 -23.112 -15.489  0.00  0.00    +0.023 C 
BRANCH  15  18
ATOM     18  C   UNL     1      32.486 -24.570 -13.845  0.00  0.00    +0.155 C 
BRANCH  18  19
ATOM     19  O   UNL     1      32.640 -24.544 -12.430  0.00  0.00    -0.380 OA
ATOM     20  H   UNL     1      32.174 -23.774 -12.068  0.00  0.00    +0.211 HD
ENDBRANCH  18  19
ENDBRANCH  15  18
ENDBRANCH   3  15
ENDBRANCH   2  10
BRANCH   2  22
ATOM     21  N   UNL     1      32.755 -20.456 -19.934  0.00  0.00    -0.241 NA
ATOM     22  C   UNL     1      34.873 -20.720 -18.798  0.00  0.00    +0.059 C 
ATOM     23  C   UNL     1      35.404 -19.662 -19.527  0.00  0.00    +0.021 C 
ATOM     24  C   UNL     1      33.555 -21.076 -19.037  0.00  0.00    +0.102 C 
ATOM     25  C   UNL     1      34.612 -19.000 -20.459  0.00  0.00    +0.070 C 
ATOM     26  C   UNL     1      33.306 -19.432 -20.623  0.00  0.00    +0.113 C 
BRANCH  25  28
ATOM     27  O   UNL     1      34.620 -18.537 -23.426  0.00  0.00    -0.274 OA
ATOM     28  N   UNL     1      35.117 -17.937 -21.204  0.00  0.00    -0.282 N 
ATOM     29  C   UNL     1      35.096 -17.763 -22.599  0.00  0.00    +0.232 C 
ATOM     30  H   UNL     1      35.543 -17.216 -20.688  0.00  0.00    +0.155 HD
BRANCH  29  31
ATOM     31  C   UNL     1      35.760 -16.455 -23.000  0.00  0.00    +0.131 C 
BRANCH  31  34
ATOM     32 CL   UNL     1      32.570 -11.662 -21.503  0.00  0.00    -0.081 Cl
ATOM     33  N   UNL     1      34.940 -14.860 -21.355  0.00  0.00    -0.247 NA
ATOM     34  C   UNL     1      34.943 -15.238 -22.653  0.00  0.00    +0.068 C 
ATOM     35  C   UNL     1      34.248 -14.578 -23.655  0.00  0.00    +0.016 C 
ATOM     36  C   UNL     1      33.504 -13.458 -23.301  0.00  0.00    +0.014 C 
ATOM     37  C   UNL     1      34.206 -13.767 -21.049  0.00  0.00    +0.110 C 
ATOM     38  C   UNL     1      33.476 -13.038 -21.976  0.00  0.00    +0.077 C 
ENDBRANCH  31  34
ENDBRANCH  29  31
ENDBRANCH  25  28
ENDBRANCH   2  22
TORSDOF 8
ENDMDL
MODEL 5
REMARK VINA RESULT:     -11.7      5.166     12.084
REMARK  Name = 66571548
REMARK  8 active torsions:
REMARK  status: ('A' for Active; 'I' for Inactive)
REMARK    1  A    between atoms: C_2  and  C_10
REMARK    2  A    between atoms: C_2  and  C_22
REMARK    3  A    between atoms: N_3  and  C_15
REMARK    4  A    between atoms: C_15  and  C_18
REMARK    5  A    between atoms: C_18  and  O_19
REMARK    6  A    between atoms: C_25  and  N_28
REMARK    7  A    between atoms: C_29  and  C_31
REMARK    8  A    between atoms: C_31  and  C_34
REMARK                            x       y       z     vdW  Elec       q    Type
REMARK                         _______ _______ _______ _____ _____    ______ ____
ROOT
ATOM      1  O   UNL     1      34.821 -11.093 -24.835  0.00  0.00    -0.286 OA
ATOM      2  C   UNL     1      34.194 -11.727 -23.960  0.00  0.00    +0.199 C 
ENDROOT
BRANCH   2  10
ATOM      3  N   UNL     1      32.389 -10.677 -21.017  0.00  0.00    -0.261 N 
ATOM      4  N   UNL     1      31.781  -8.360 -21.290  0.00  0.00    -0.322 NA
ATOM      5  N   UNL     1      32.533  -7.425 -23.409  0.00  0.00    -0.170 NA
ATOM      6  N   UNL     1      31.347  -6.134 -21.858  0.00  0.00    -0.293 N 
ATOM      7  C   UNL     1      32.357  -9.499 -21.713  0.00  0.00    +0.201 C 
ATOM      8  C   UNL     1      33.059 -11.623 -21.748  0.00  0.00    +0.071 C 
ATOM      9  C   UNL     1      33.020  -9.696 -22.918  0.00  0.00    +0.069 C 
ATOM     10  C   UNL     1      33.462 -11.043 -22.933  0.00  0.00    +0.059 C 
ATOM     11  C   UNL     1      33.094  -8.600 -23.777  0.00  0.00    +0.116 C 
ATOM     12  C   UNL     1      31.920  -7.379 -22.204  0.00  0.00    +0.143 C 
ATOM     13  H   UNL     1      30.885  -6.028 -20.995  0.00  0.00    +0.155 HD
ATOM     14  H   UNL     1      31.411  -5.373 -22.478  0.00  0.00    +0.155 HD
BRANCH   3  15
ATOM     15  C   UNL     1      31.771 -10.917 -19.625  0.00  0.00    +0.091 C 
ATOM     16  C   UNL     1      30.244 -10.669 -19.575  0.00  0.00    +0.023 C 
ATOM     17  C   UNL     1      32.000 -12.392 -19.220  0.00  0.00    +0.023 C 
BRANCH  15  18
ATOM     18  C   UNL     1      32.445 -10.002 -18.572  0.00  0.00    +0.155 C 
BRANCH  18  19
ATOM     19  O   UNL     1      31.703  -8.798 -18.404  0.00  0.00    -0.380 OA
ATOM     20  H   UNL     1      32.128  -8.249 -17.726  0.00  0.00    +0.211 HD
ENDBRANCH  18  19
ENDBRANCH  15  18
ENDBRANCH   3  15
ENDBRANCH   2  10
BRANCH   2  22
ATOM     21  N   UNL     1      33.720 -15.241 -25.284  0.00  0.00    -0.241 NA
ATOM     22  C   UNL     1      34.261 -13.227 -24.060  0.00  0.00    +0.059 C 
ATOM     23  C   UNL     1      34.888 -13.984 -23.076  0.00  0.00    +0.021 C 
ATOM     24  C   UNL     1      33.697 -13.897 -25.133  0.00  0.00    +0.102 C 
ATOM     25  C   UNL     1      34.932 -15.369 -23.196  0.00  0.00    +0.070 C 
ATOM     26  C   UNL     1      34.339 -15.944 -24.309  0.00  0.00    +0.113 C 
BRANCH  25  28
ATOM     27  O   UNL     1      35.219 -18.352 -23.000  0.00  0.00    -0.274 OA
ATOM     28  N   UNL     1      35.553 -16.154 -22.227  0.00  0.00    -0.282 N 
ATOM     29  C   UNL     1      35.663 -17.555 -22.179  0.00  0.00    +0.232 C 
ATOM     30  H   UNL     1      35.968 -15.665 -21.481  0.00  0.00    +0.155 HD
BRANCH  29  31
ATOM     31  C   UNL     1      36.424 -18.004 -20.941  0.00  0.00    +0.131 C 
BRANCH  31  34
ATOM     32 CL   UNL     1      33.753 -22.301 -17.811  0.00  0.00    -0.081 Cl
ATOM     33  N   UNL     1      36.491 -19.869 -19.379  0.00  0.00    -0.247 NA
ATOM     34  C   UNL     1      35.718 -19.082 -20.162  0.00  0.00    +0.068 C 
ATOM     35  C   UNL     1      34.343 -19.217 -20.279  0.00  0.00    +0.016 C 
ATOM     36  C   UNL     1      33.723 -20.222 -19.546  0.00  0.00    +0.014 C 
ATOM     37  C   UNL     1      35.852 -20.835 -18.681  0.00  0.00    +0.110 C 
ATOM     38  C   UNL     1      34.484 -21.051 -18.730  0.00  0.00    +0.077 C 
ENDBRANCH  31  34
ENDBRANCH  29  31
ENDBRANCH  25  28
ENDBRANCH   2  22
TORSDOF 8
ENDMDL
MODEL 6
REMARK VINA RESULT:     -11.7      1.890      2.395
REMARK  Name = 66571548
REMARK  8 active torsions:
REMARK  status: ('A' for Active; 'I' for Inactive)
REMARK    1  A    between atoms: C_2  and  C_10
REMARK    2  A    between atoms: C_2  and  C_22
REMARK    3  A    between atoms: N_3  and  C_15
REMARK    4  A    between atoms: C_15  and  C_18
REMARK    5  A    between atoms: C_18  and  O_19
REMARK    6  A    between atoms: C_25  and  N_28
REMARK    7  A    between atoms: C_29  and  C_31
REMARK    8  A    between atoms: C_31  and  C_34
REMARK                            x       y       z     vdW  Elec       q    Type
REMARK                         _______ _______ _______ _____ _____    ______ ____
ROOT
ATOM      1  O   UNL     1      37.918 -20.736 -16.097  0.00  0.00    -0.286 OA
ATOM      2  C   UNL     1      36.834 -21.359 -16.079  0.00  0.00    +0.199 C 
ENDROOT
BRANCH   2  10
ATOM      3  N   UNL     1      36.602 -23.277 -13.031  0.00  0.00    -0.261 N 
ATOM      4  N   UNL     1      34.300 -23.926 -12.721  0.00  0.00    -0.322 NA
ATOM      5  N   UNL     1      32.841 -23.128 -14.499  0.00  0.00    -0.170 NA
ATOM      6  N   UNL     1      32.008 -24.389 -12.712  0.00  0.00    -0.293 N 
ATOM      7  C   UNL     1      35.284 -23.312 -13.402  0.00  0.00    +0.201 C 
ATOM      8  C   UNL     1      37.319 -22.564 -13.956  0.00  0.00    +0.071 C 
ATOM      9  C   UNL     1      35.155 -22.608 -14.592  0.00  0.00    +0.069 C 
ATOM     10  C   UNL     1      36.447 -22.137 -14.937  0.00  0.00    +0.059 C 
ATOM     11  C   UNL     1      33.874 -22.531 -15.138  0.00  0.00    +0.116 C 
ATOM     12  C   UNL     1      33.115 -23.779 -13.346  0.00  0.00    +0.143 C 
ATOM     13  H   UNL     1      32.135 -24.881 -11.868  0.00  0.00    +0.155 HD
ATOM     14  H   UNL     1      31.112 -24.322 -13.113  0.00  0.00    +0.155 HD
BRANCH   3  15
ATOM     15  C   UNL     1      37.200 -23.933 -11.771  0.00  0.00    +0.091 C 
ATOM     16  C   UNL     1      37.244 -25.479 -11.840  0.00  0.00    +0.023 C 
ATOM     17  C   UNL     1      38.658 -23.448 -11.595  0.00  0.00    +0.023 C 
BRANCH  15  18
ATOM     18  C   UNL     1      36.387 -23.527 -10.516  0.00  0.00    +0.155 C 
BRANCH  18  19
ATOM     19  O   UNL     1      35.598 -24.619 -10.052  0.00  0.00    -0.380 OA
ATOM     20  H   UNL     1      34.832 -24.734 -10.636  0.00  0.00    +0.211 HD
ENDBRANCH  18  19
ENDBRANCH  15  18
ENDBRANCH   3  15
ENDBRANCH   2  10
BRANCH   2  22
ATOM     21  N   UNL     1      33.955 -21.823 -18.491  0.00  0.00    -0.241 NA
ATOM     22  C   UNL     1      35.984 -21.236 -17.314  0.00  0.00    +0.059 C 
ATOM     23  C   UNL     1      36.398 -20.466 -18.396  0.00  0.00    +0.021 C 
ATOM     24  C   UNL     1      34.766 -21.890 -17.411  0.00  0.00    +0.102 C 
ATOM     25  C   UNL     1      35.590 -20.373 -19.525  0.00  0.00    +0.070 C 
ATOM     26  C   UNL     1      34.389 -21.064 -19.522  0.00  0.00    +0.113 C 
BRANCH  25  28
ATOM     27  O   UNL     1      35.672 -17.394 -19.892  0.00  0.00    -0.274 OA
ATOM     28  N   UNL     1      35.978 -19.610 -20.624  0.00  0.00    -0.282 N 
ATOM     29  C   UNL     1      36.000 -18.210 -20.749  0.00  0.00    +0.232 C 
ATOM     30  H   UNL     1      36.275 -20.116 -21.414  0.00  0.00    +0.155 HD
BRANCH  29  31
ATOM     31  C   UNL     1      36.494 -17.788 -22.124  0.00  0.00    +0.131 C 
BRANCH  31  34
ATOM     32 CL   UNL     1      33.243 -13.419 -24.518  0.00  0.00    -0.081 Cl
ATOM     33  N   UNL     1      35.694 -15.491 -22.157  0.00  0.00    -0.247 NA
ATOM     34  C   UNL     1      35.661 -16.703 -22.754  0.00  0.00    +0.068 C 
ATOM     35  C   UNL     1      34.916 -16.991 -23.886  0.00  0.00    +0.016 C 
ATOM     36  C   UNL     1      34.157 -15.967 -24.443  0.00  0.00    +0.014 C 
ATOM     37  C   UNL     1      34.945 -14.521 -22.727  0.00  0.00    +0.110 C 
ATOM     38  C   UNL     1      34.166 -14.705 -23.858  0.00  0.00    +0.077 C 
ENDBRANCH  31  34
ENDBRANCH  29  31
ENDBRANCH  25  28
ENDBRANCH   2  22
TORSDOF 8
ENDMDL
MODEL 7
REMARK VINA RESULT:     -11.2      5.293     12.543
REMARK  Name = 66571548
REMARK  8 active torsions:
REMARK  status: ('A' for Active; 'I' for Inactive)
REMARK    1  A    between atoms: C_2  and  C_10
REMARK    2  A    between atoms: C_2  and  C_22
REMARK    3  A    between atoms: N_3  and  C_15
REMARK    4  A    between atoms: C_15  and  C_18
REMARK    5  A    between atoms: C_18  and  O_19
REMARK    6  A    between atoms: C_25  and  N_28
REMARK    7  A    between atoms: C_29  and  C_31
REMARK    8  A    between atoms: C_31  and  C_34
REMARK                            x       y       z     vdW  Elec       q    Type
REMARK                         _______ _______ _______ _____ _____    ______ ____
ROOT
ATOM      1  O   UNL     1      31.887 -12.910 -20.040  0.00  0.00    -0.286 OA
ATOM      2  C   UNL     1      32.645 -12.417 -20.904  0.00  0.00    +0.199 C 
ENDROOT
BRANCH   2  10
ATOM      3  N   UNL     1      32.850  -9.064 -22.221  0.00  0.00    -0.261 N 
ATOM      4  N   UNL     1      32.516  -7.516 -20.402  0.00  0.00    -0.322 NA
ATOM      5  N   UNL     1      32.150  -8.627 -18.266  0.00  0.00    -0.170 NA
ATOM      6  N   UNL     1      32.161  -6.293 -18.441  0.00  0.00    -0.293 N 
ATOM      7  C   UNL     1      32.616  -8.758 -20.906  0.00  0.00    +0.201 C 
ATOM      8  C   UNL     1      32.887 -10.425 -22.375  0.00  0.00    +0.071 C 
ATOM      9  C   UNL     1      32.502  -9.952 -20.204  0.00  0.00    +0.069 C 
ATOM     10  C   UNL     1      32.675 -11.002 -21.140  0.00  0.00    +0.059 C 
ATOM     11  C   UNL     1      32.261  -9.850 -18.834  0.00  0.00    +0.116 C 
ATOM     12  C   UNL     1      32.282  -7.551 -19.074  0.00  0.00    +0.143 C 
ATOM     13  H   UNL     1      32.246  -5.466 -18.969  0.00  0.00    +0.155 HD
ATOM     14  H   UNL     1      31.990  -6.243 -17.473  0.00  0.00    +0.155 HD
BRANCH   3  15
ATOM     15  C   UNL     1      33.045  -8.044 -23.360  0.00  0.00    +0.091 C 
ATOM     16  C   UNL     1      34.220  -7.065 -23.121  0.00  0.00    +0.023 C 
ATOM     17  C   UNL     1      33.353  -8.806 -24.670  0.00  0.00    +0.023 C 
BRANCH  15  18
ATOM     18  C   UNL     1      31.754  -7.211 -23.562  0.00  0.00    +0.155 C 
BRANCH  18  19
ATOM     19  O   UNL     1      31.878  -5.934 -22.944  0.00  0.00    -0.380 OA
ATOM     20  H   UNL     1      32.647  -5.470 -23.312  0.00  0.00    +0.211 HD
ENDBRANCH  18  19
ENDBRANCH  15  18
ENDBRANCH   3  15
ENDBRANCH   2  10
BRANCH   2  22
ATOM     21  N   UNL     1      34.399 -14.147 -23.776  0.00  0.00    -0.241 NA
ATOM     22  C   UNL     1      33.503 -13.394 -21.661  0.00  0.00    +0.059 C 
ATOM     23  C   UNL     1      34.176 -14.419 -21.003  0.00  0.00    +0.021 C 
ATOM     24  C   UNL     1      33.645 -13.303 -23.036  0.00  0.00    +0.102 C 
ATOM     25  C   UNL     1      34.960 -15.307 -21.730  0.00  0.00    +0.070 C 
ATOM     26  C   UNL     1      35.039 -15.130 -23.103  0.00  0.00    +0.113 C 
BRANCH  25  28
ATOM     27  O   UNL     1      35.487 -18.122 -22.631  0.00  0.00    -0.274 OA
ATOM     28  N   UNL     1      35.645 -16.343 -21.099  0.00  0.00    -0.282 N 
ATOM     29  C   UNL     1      35.868 -17.651 -21.563  0.00  0.00    +0.232 C 
ATOM     30  H   UNL     1      36.021 -16.131 -20.215  0.00  0.00    +0.155 HD
BRANCH  29  31
ATOM     31  C   UNL     1      36.666 -18.463 -20.556  0.00  0.00    +0.131 C 
BRANCH  31  34
ATOM     32 CL   UNL     1      33.492 -22.468 -17.511  0.00  0.00    -0.081 Cl
ATOM     33  N   UNL     1      36.484 -20.232 -18.896  0.00  0.00    -0.247 NA
ATOM     34  C   UNL     1      35.835 -19.468 -19.802  0.00  0.00    +0.068 C 
ATOM     35  C   UNL     1      34.477 -19.560 -20.064  0.00  0.00    +0.016 C 
ATOM     36  C   UNL     1      33.739 -20.497 -19.350  0.00  0.00    +0.014 C 
ATOM     37  C   UNL     1      35.734 -21.132 -18.221  0.00  0.00    +0.110 C 
ATOM     38  C   UNL     1      34.371 -21.302 -18.410  0.00  0.00    +0.077 C 
ENDBRANCH  31  34
ENDBRANCH  29  31
ENDBRANCH  25  28
ENDBRANCH   2  22
TORSDOF 8
ENDMDL
MODEL 8
REMARK VINA RESULT:     -11.1      5.010     12.586
REMARK  Name = 66571548
REMARK  8 active torsions:
REMARK  status: ('A' for Active; 'I' for Inactive)
REMARK    1  A    between atoms: C_2  and  C_10
REMARK    2  A    between atoms: C_2  and  C_22
REMARK    3  A    between atoms: N_3  and  C_15
REMARK    4  A    between atoms: C_15  and  C_18
REMARK    5  A    between atoms: C_18  and  O_19
REMARK    6  A    between atoms: C_25  and  N_28
REMARK    7  A    between atoms: C_29  and  C_31
REMARK    8  A    between atoms: C_31  and  C_34
REMARK                            x       y       z     vdW  Elec       q    Type
REMARK                         _______ _______ _______ _____ _____    ______ ____
ROOT
ATOM      1  O   UNL     1      32.032 -12.898 -21.036  0.00  0.00    -0.286 OA
ATOM      2  C   UNL     1      32.853 -12.489 -21.885  0.00  0.00    +0.199 C 
ENDROOT
BRANCH   2  10
ATOM      3  N   UNL     1      33.862  -9.185 -22.931  0.00  0.00    -0.261 N 
ATOM      4  N   UNL     1      33.042  -7.597 -21.312  0.00  0.00    -0.322 NA
ATOM      5  N   UNL     1      31.809  -8.647 -19.493  0.00  0.00    -0.170 NA
ATOM      6  N   UNL     1      32.118  -6.328 -19.579  0.00  0.00    -0.293 N 
ATOM      7  C   UNL     1      33.194  -8.847 -21.784  0.00  0.00    +0.201 C 
ATOM      8  C   UNL     1      33.816 -10.544 -23.104  0.00  0.00    +0.071 C 
ATOM      9  C   UNL     1      32.712 -10.017 -21.209  0.00  0.00    +0.069 C 
ATOM     10  C   UNL     1      33.109 -11.086 -22.050  0.00  0.00    +0.059 C 
ATOM     11  C   UNL     1      31.997  -9.879 -20.019  0.00  0.00    +0.116 C 
ATOM     12  C   UNL     1      32.336  -7.597 -20.163  0.00  0.00    +0.143 C 
ATOM     13  H   UNL     1      32.473  -5.519 -20.013  0.00  0.00    +0.155 HD
ATOM     14  H   UNL     1      31.610  -6.253 -18.739  0.00  0.00    +0.155 HD
BRANCH   3  15
ATOM     15  C   UNL     1      34.562  -8.201 -23.888  0.00  0.00    +0.091 C 
ATOM     16  C   UNL     1      33.636  -7.073 -24.403  0.00  0.00    +0.023 C 
ATOM     17  C   UNL     1      35.731  -7.517 -23.141  0.00  0.00    +0.023 C 
BRANCH  15  18
ATOM     18  C   UNL     1      35.132  -8.957 -25.115  0.00  0.00    +0.155 C 
BRANCH  18  19
ATOM     19  O   UNL     1      36.486  -9.334 -24.889  0.00  0.00    -0.380 OA
ATOM     20  H   UNL     1      37.073  -8.743 -25.385  0.00  0.00    +0.211 HD
ENDBRANCH  18  19
ENDBRANCH  15  18
ENDBRANCH   3  15
ENDBRANCH   2  10
BRANCH   2  22
ATOM     21  N   UNL     1      34.089 -14.439 -24.883  0.00  0.00    -0.241 NA
ATOM     22  C   UNL     1      33.536 -13.550 -22.704  0.00  0.00    +0.059 C 
ATOM     23  C   UNL     1      34.225 -14.594 -22.095  0.00  0.00    +0.021 C 
ATOM     24  C   UNL     1      33.497 -13.519 -24.089  0.00  0.00    +0.102 C 
ATOM     25  C   UNL     1      34.845 -15.561 -22.879  0.00  0.00    +0.070 C 
ATOM     26  C   UNL     1      34.749 -15.439 -24.256  0.00  0.00    +0.113 C 
BRANCH  25  28
ATOM     27  O   UNL     1      35.351 -16.199 -19.989  0.00  0.00    -0.274 OA
ATOM     28  N   UNL     1      35.541 -16.618 -22.298  0.00  0.00    -0.282 N 
ATOM     29  C   UNL     1      35.751 -16.877 -20.932  0.00  0.00    +0.232 C 
ATOM     30  H   UNL     1      35.935 -17.267 -22.923  0.00  0.00    +0.155 HD
BRANCH  29  31
ATOM     31  C   UNL     1      36.568 -18.143 -20.732  0.00  0.00    +0.131 C 
BRANCH  31  34
ATOM     32 CL   UNL     1      33.760 -22.438 -17.722  0.00  0.00    -0.081 Cl
ATOM     33  N   UNL     1      36.550 -19.954 -19.107  0.00  0.00    -0.247 NA
ATOM     34  C   UNL     1      35.828 -19.223 -19.986  0.00  0.00    +0.068 C 
ATOM     35  C   UNL     1      34.477 -19.413 -20.229  0.00  0.00    +0.016 C 
ATOM     36  C   UNL     1      33.824 -20.417 -19.523  0.00  0.00    +0.014 C 
ATOM     37  C   UNL     1      35.881 -20.921 -18.439  0.00  0.00    +0.110 C 
ATOM     38  C   UNL     1      34.532 -21.191 -18.610  0.00  0.00    +0.077 C 
ENDBRANCH  31  34
ENDBRANCH  29  31
ENDBRANCH  25  28
ENDBRANCH   2  22
TORSDOF 8
ENDMDL
MODEL 9
REMARK VINA RESULT:     -11.1      5.108     12.794
REMARK  Name = 66571548
REMARK  8 active torsions:
REMARK  status: ('A' for Active; 'I' for Inactive)
REMARK    1  A    between atoms: C_2  and  C_10
REMARK    2  A    between atoms: C_2  and  C_22
REMARK    3  A    between atoms: N_3  and  C_15
REMARK    4  A    between atoms: C_15  and  C_18
REMARK    5  A    between atoms: C_18  and  O_19
REMARK    6  A    between atoms: C_25  and  N_28
REMARK    7  A    between atoms: C_29  and  C_31
REMARK    8  A    between atoms: C_31  and  C_34
REMARK                            x       y       z     vdW  Elec       q    Type
REMARK                         _______ _______ _______ _____ _____    ______ ____
ROOT
ATOM      1  O   UNL     1      31.993 -12.848 -21.146  0.00  0.00    -0.286 OA
ATOM      2  C   UNL     1      32.797 -12.431 -22.008  0.00  0.00    +0.199 C 
ENDROOT
BRANCH   2  10
ATOM      3  N   UNL     1      32.931  -8.829 -21.842  0.00  0.00    -0.261 N 
ATOM      4  N   UNL     1      34.341  -8.042 -23.634  0.00  0.00    -0.322 NA
ATOM      5  N   UNL     1      35.238  -9.848 -24.998  0.00  0.00    -0.170 NA
ATOM      6  N   UNL     1      35.744  -7.609 -25.453  0.00  0.00    -0.293 N 
ATOM      7  C   UNL     1      33.739  -9.019 -22.932  0.00  0.00    +0.201 C 
ATOM      8  C   UNL     1      32.495 -10.043 -21.378  0.00  0.00    +0.071 C 
ATOM      9  C   UNL     1      33.821 -10.385 -23.171  0.00  0.00    +0.069 C 
ATOM     10  C   UNL     1      33.031 -11.027 -22.184  0.00  0.00    +0.059 C 
ATOM     11  C   UNL     1      34.606 -10.784 -24.252  0.00  0.00    +0.116 C 
ATOM     12  C   UNL     1      35.068  -8.554 -24.647  0.00  0.00    +0.143 C 
ATOM     13  H   UNL     1      35.665  -6.648 -25.255  0.00  0.00    +0.155 HD
ATOM     14  H   UNL     1      36.294  -7.912 -26.211  0.00  0.00    +0.155 HD
BRANCH   3  15
ATOM     15  C   UNL     1      32.560  -7.467 -21.224  0.00  0.00    +0.091 C 
ATOM     16  C   UNL     1      33.718  -6.441 -21.244  0.00  0.00    +0.023 C 
ATOM     17  C   UNL     1      31.396  -6.847 -22.032  0.00  0.00    +0.023 C 
BRANCH  15  18
ATOM     18  C   UNL     1      32.101  -7.651 -19.755  0.00  0.00    +0.155 C 
BRANCH  18  19
ATOM     19  O   UNL     1      33.224  -7.711 -18.881  0.00  0.00    -0.380 OA
ATOM     20  H   UNL     1      32.979  -8.188 -18.073  0.00  0.00    +0.211 HD
ENDBRANCH  18  19
ENDBRANCH  15  18
ENDBRANCH   3  15
ENDBRANCH   2  10
BRANCH   2  22
ATOM     21  N   UNL     1      34.018 -14.386 -25.010  0.00  0.00    -0.241 NA
ATOM     22  C   UNL     1      33.486 -13.487 -22.829  0.00  0.00    +0.059 C 
ATOM     23  C   UNL     1      34.204 -14.513 -22.223  0.00  0.00    +0.021 C 
ATOM     24  C   UNL     1      33.423 -13.469 -24.213  0.00  0.00    +0.102 C 
ATOM     25  C   UNL     1      34.828 -15.476 -23.009  0.00  0.00    +0.070 C 
ATOM     26  C   UNL     1      34.707 -15.368 -24.385  0.00  0.00    +0.113 C 
BRANCH  25  28
ATOM     27  O   UNL     1      35.334 -16.120 -20.121  0.00  0.00    -0.274 OA
ATOM     28  N   UNL     1      35.553 -16.515 -22.431  0.00  0.00    -0.282 N 
ATOM     29  C   UNL     1      35.762 -16.777 -21.066  0.00  0.00    +0.232 C 
ATOM     30  H   UNL     1      35.972 -17.146 -23.058  0.00  0.00    +0.155 HD
BRANCH  29  31
ATOM     31  C   UNL     1      36.617 -18.019 -20.869  0.00  0.00    +0.131 C 
BRANCH  31  34
ATOM     32 CL   UNL     1      33.983 -22.362 -17.773  0.00  0.00    -0.081 Cl
ATOM     33  N   UNL     1      36.681 -19.827 -19.242  0.00  0.00    -0.247 NA
ATOM     34  C   UNL     1      35.920 -19.112 -20.101  0.00  0.00    +0.068 C 
ATOM     35  C   UNL     1      34.567 -19.329 -20.304  0.00  0.00    +0.016 C 
ATOM     36  C   UNL     1      33.955 -20.345 -19.578  0.00  0.00    +0.014 C 
ATOM     37  C   UNL     1      36.052 -20.805 -18.554  0.00  0.00    +0.110 C 
ATOM     38  C   UNL     1      34.704 -21.102 -18.685  0.00  0.00    +0.077 C 
ENDBRANCH  31  34
ENDBRANCH  29  31
ENDBRANCH  25  28
ENDBRANCH   2  22
TORSDOF 8
ENDMDL
