MODEL 1
REMARK VINA RESULT:     -11.3      0.000      0.000
REMARK  Name = 16720766
REMARK  7 active torsions:
REMARK  status: ('A' for Active; 'I' for Inactive)
REMARK    1  A    between atoms: N_1  and  C_10
REMARK    2  A    between atoms: C_11  and  C_17
REMARK    3  A    between atoms: C_13  and  O_15
REMARK    4  A    between atoms: C_17  and  O_18
REMARK    5  A    between atoms: O_18  and  S_19
REMARK    6  A    between atoms: S_19  and  N_22
REMARK    7  A    between atoms: N_25  and  C_27
REMARK                            x       y       z     vdW  Elec       q    Type
REMARK                         _______ _______ _______ _____ _____    ______ ____
ROOT
ATOM      1  N   UNL     1      34.211 -21.032 -18.740  0.00  0.00    -0.276 N 
ATOM      2  N   UNL     1      36.476 -20.257 -19.032  0.00  0.00    -0.233 NA
ATOM      3  N   UNL     1      36.651 -18.403 -20.599  0.00  0.00    -0.233 NA
ATOM      4  C   UNL     1      35.157 -20.210 -19.291  0.00  0.00    +0.120 C 
ATOM      5  C   UNL     1      32.974 -20.700 -19.232  0.00  0.00    +0.062 C 
ATOM      6  C   UNL     1      34.512 -19.332 -20.155  0.00  0.00    +0.131 C 
ATOM      7  C   UNL     1      33.131 -19.650 -20.111  0.00  0.00    +0.004 C 
ATOM      8  C   UNL     1      35.307 -18.393 -20.832  0.00  0.00    +0.113 C 
ATOM      9  C   UNL     1      37.141 -19.316 -19.731  0.00  0.00    +0.252 C 
ATOM     10  N   UNL     1      34.752 -17.477 -21.712  0.00  0.00    -0.319 N 
ATOM     11  H   UNL     1      33.777 -17.500 -21.852  0.00  0.00    +0.148 HD
ENDROOT
BRANCH  10  12
ATOM     12  C   UNL     1      35.519 -16.491 -22.433  0.00  0.00    +0.093 C 
ATOM     13  C   UNL     1      35.390 -16.697 -23.954  0.00  0.00    +0.029 C 
ATOM     14  C   UNL     1      34.916 -15.128 -22.272  0.00  0.00    -0.008 C 
ATOM     15  C   UNL     1      34.175 -15.873 -24.416  0.00  0.00    +0.028 C 
ATOM     16  C   UNL     1      34.162 -14.776 -23.398  0.00  0.00    -0.025 C 
ATOM     17  C   UNL     1      35.014 -14.275 -21.184  0.00  0.00    -0.003 C 
ATOM     18  C   UNL     1      33.485 -13.570 -23.456  0.00  0.00    -0.005 C 
ATOM     19  C   UNL     1      34.345 -13.051 -21.240  0.00  0.00    -0.000 C 
ATOM     20  C   UNL     1      33.585 -12.701 -22.368  0.00  0.00    -0.000 C 
ENDBRANCH  10  12
BRANCH   1  21
ATOM     21  C   UNL     1      34.466 -22.101 -17.778  0.00  0.00    +0.081 C 
ATOM     22  C   UNL     1      33.348 -22.418 -15.626  0.00  0.00    +0.061 C 
ATOM     23  C   UNL     1      33.197 -22.693 -17.128  0.00  0.00    +0.025 C 
ATOM     24  C   UNL     1      34.861 -22.439 -15.409  0.00  0.00    +0.115 C 
ATOM     25  C   UNL     1      35.388 -21.673 -16.619  0.00  0.00    +0.049 C 
BRANCH  24  26
ATOM     26  O   UNL     1      35.359 -23.771 -15.428  0.00  0.00    -0.384 OA
ATOM     27  H   UNL     1      36.279 -23.768 -15.734  0.00  0.00    +0.210 HD
ENDBRANCH  24  26
BRANCH  22  28
ATOM     28  C   UNL     1      32.570 -23.405 -14.769  0.00  0.00    +0.176 C 
BRANCH  28  29
ATOM     29  O   UNL     1      31.369 -23.743 -15.441  0.00  0.00    -0.230 OA
BRANCH  29  30
ATOM     30  S   UNL     1      29.980 -22.958 -15.075  0.00  0.00    +0.045 S 
ATOM     31  O   UNL     1      28.916 -23.937 -14.945  0.00  0.00    -0.056 OA
ATOM     32  O   UNL     1      30.271 -22.052 -13.978  0.00  0.00    -0.056 OA
BRANCH  30  33
ATOM     33  N   UNL     1      29.661 -22.005 -16.464  0.00  0.00    -0.204 NA
ATOM     34  H   UNL     1      29.845 -22.555 -17.303  0.00  0.00    +0.144 HD
ATOM     35  H   UNL     1      30.265 -21.183 -16.458  0.00  0.00    +0.144 HD
ENDBRANCH  30  33
ENDBRANCH  29  30
ENDBRANCH  28  29
ENDBRANCH  22  28
ENDBRANCH   1  21
TORSDOF 7
ENDMDL
MODEL 2
REMARK VINA RESULT:     -11.0      2.264      2.681
REMARK  Name = 16720766
REMARK  7 active torsions:
REMARK  status: ('A' for Active; 'I' for Inactive)
REMARK    1  A    between atoms: N_1  and  C_10
REMARK    2  A    between atoms: C_11  and  C_17
REMARK    3  A    between atoms: C_13  and  O_15
REMARK    4  A    between atoms: C_17  and  O_18
REMARK    5  A    between atoms: O_18  and  S_19
REMARK    6  A    between atoms: S_19  and  N_22
REMARK    7  A    between atoms: N_25  and  C_27
REMARK                            x       y       z     vdW  Elec       q    Type
REMARK                         _______ _______ _______ _____ _____    ______ ____
ROOT
ATOM      1  N   UNL     1      35.017 -20.617 -19.159  0.00  0.00    -0.276 N 
ATOM      2  N   UNL     1      37.130 -19.624 -19.759  0.00  0.00    -0.233 NA
ATOM      3  N   UNL     1      36.913 -17.857 -21.419  0.00  0.00    -0.233 NA
ATOM      4  C   UNL     1      35.793 -19.732 -19.857  0.00  0.00    +0.120 C 
ATOM      5  C   UNL     1      33.702 -20.447 -19.511  0.00  0.00    +0.062 C 
ATOM      6  C   UNL     1      34.958 -18.980 -20.675  0.00  0.00    +0.131 C 
ATOM      7  C   UNL     1      33.636 -19.439 -20.448  0.00  0.00    +0.004 C 
ATOM      8  C   UNL     1      35.559 -18.003 -21.486  0.00  0.00    +0.113 C 
ATOM      9  C   UNL     1      37.600 -18.661 -20.577  0.00  0.00    +0.252 C 
ATOM     10  N   UNL     1      34.806 -17.204 -22.332  0.00  0.00    -0.319 N 
ATOM     11  H   UNL     1      33.830 -17.338 -22.351  0.00  0.00    +0.148 HD
ENDROOT
BRANCH  10  12
ATOM     12  C   UNL     1      35.368 -16.186 -23.185  0.00  0.00    +0.093 C 
ATOM     13  C   UNL     1      34.917 -16.379 -24.645  0.00  0.00    +0.029 C 
ATOM     14  C   UNL     1      34.775 -14.845 -22.873  0.00  0.00    -0.008 C 
ATOM     15  C   UNL     1      33.608 -15.590 -24.817  0.00  0.00    +0.028 C 
ATOM     16  C   UNL     1      33.784 -14.505 -23.802  0.00  0.00    -0.025 C 
ATOM     17  C   UNL     1      35.083 -14.001 -21.818  0.00  0.00    -0.003 C 
ATOM     18  C   UNL     1      33.076 -13.321 -23.691  0.00  0.00    -0.005 C 
ATOM     19  C   UNL     1      34.382 -12.799 -21.705  0.00  0.00    -0.000 C 
ATOM     20  C   UNL     1      33.385 -12.461 -22.634  0.00  0.00    -0.000 C 
ENDBRANCH  10  12
BRANCH   1  21
ATOM     21  C   UNL     1      35.500 -21.595 -18.188  0.00  0.00    +0.081 C 
ATOM     22  C   UNL     1      34.607 -21.978 -15.943  0.00  0.00    +0.061 C 
ATOM     23  C   UNL     1      34.386 -22.337 -17.418  0.00  0.00    +0.025 C 
ATOM     24  C   UNL     1      36.120 -21.769 -15.849  0.00  0.00    +0.115 C 
ATOM     25  C   UNL     1      36.433 -20.987 -17.121  0.00  0.00    +0.049 C 
BRANCH  24  26
ATOM     26  O   UNL     1      36.807 -23.014 -15.866  0.00  0.00    -0.384 OA
ATOM     27  H   UNL     1      37.760 -22.856 -15.960  0.00  0.00    +0.210 HD
ENDBRANCH  24  26
BRANCH  22  28
ATOM     28  C   UNL     1      34.053 -23.031 -14.995  0.00  0.00    +0.176 C 
BRANCH  28  29
ATOM     29  O   UNL     1      34.366 -22.656 -13.665  0.00  0.00    -0.230 OA
BRANCH  29  30
ATOM     30  S   UNL     1      35.404 -23.565 -12.785  0.00  0.00    +0.045 S 
ATOM     31  O   UNL     1      36.662 -22.849 -12.669  0.00  0.00    -0.056 OA
ATOM     32  O   UNL     1      34.700 -23.993 -11.589  0.00  0.00    -0.056 OA
BRANCH  30  33
ATOM     33  N   UNL     1      35.669 -24.953 -13.755  0.00  0.00    -0.204 NA
ATOM     34  H   UNL     1      34.897 -25.060 -14.413  0.00  0.00    +0.144 HD
ATOM     35  H   UNL     1      35.724 -25.779 -13.160  0.00  0.00    +0.144 HD
ENDBRANCH  30  33
ENDBRANCH  29  30
ENDBRANCH  28  29
ENDBRANCH  22  28
ENDBRANCH   1  21
TORSDOF 7
ENDMDL
MODEL 3
REMARK VINA RESULT:     -10.9      7.035     10.646
REMARK  Name = 16720766
REMARK  7 active torsions:
REMARK  status: ('A' for Active; 'I' for Inactive)
REMARK    1  A    between atoms: N_1  and  C_10
REMARK    2  A    between atoms: C_11  and  C_17
REMARK    3  A    between atoms: C_13  and  O_15
REMARK    4  A    between atoms: C_17  and  O_18
REMARK    5  A    between atoms: O_18  and  S_19
REMARK    6  A    between atoms: S_19  and  N_22
REMARK    7  A    between atoms: N_25  and  C_27
REMARK                            x       y       z     vdW  Elec       q    Type
REMARK                         _______ _______ _______ _____ _____    ______ ____
ROOT
ATOM      1  N   UNL     1      34.976 -14.940 -21.716  0.00  0.00    -0.276 N 
ATOM      2  N   UNL     1      35.195 -16.814 -23.218  0.00  0.00    -0.233 NA
ATOM      3  N   UNL     1      35.459 -18.936 -22.056  0.00  0.00    -0.233 NA
ATOM      4  C   UNL     1      35.136 -16.272 -21.988  0.00  0.00    +0.120 C 
ATOM      5  C   UNL     1      34.961 -14.749 -20.358  0.00  0.00    +0.062 C 
ATOM      6  C   UNL     1      35.225 -16.950 -20.778  0.00  0.00    +0.131 C 
ATOM      7  C   UNL     1      35.113 -15.978 -19.752  0.00  0.00    +0.004 C 
ATOM      8  C   UNL     1      35.394 -18.343 -20.830  0.00  0.00    +0.113 C 
ATOM      9  C   UNL     1      35.357 -18.150 -23.152  0.00  0.00    +0.252 C 
ATOM     10  N   UNL     1      35.491 -19.103 -19.675  0.00  0.00    -0.319 N 
ATOM     11  H   UNL     1      35.439 -18.638 -18.808  0.00  0.00    +0.148 HD
ENDROOT
BRANCH  10  12
ATOM     12  C   UNL     1      35.665 -20.535 -19.669  0.00  0.00    +0.093 C 
ATOM     13  C   UNL     1      37.086 -20.915 -19.211  0.00  0.00    +0.029 C 
ATOM     14  C   UNL     1      34.834 -21.164 -18.592  0.00  0.00    -0.008 C 
ATOM     15  C   UNL     1      37.038 -21.064 -17.680  0.00  0.00    +0.028 C 
ATOM     16  C   UNL     1      35.614 -21.471 -17.470  0.00  0.00    -0.025 C 
ATOM     17  C   UNL     1      33.472 -21.421 -18.606  0.00  0.00    -0.003 C 
ATOM     18  C   UNL     1      35.048 -22.032 -16.338  0.00  0.00    -0.005 C 
ATOM     19  C   UNL     1      32.896 -21.999 -17.472  0.00  0.00    -0.000 C 
ATOM     20  C   UNL     1      33.678 -22.301 -16.346  0.00  0.00    -0.000 C 
ENDBRANCH  10  12
BRANCH   1  21
ATOM     21  C   UNL     1      34.842 -13.876 -22.708  0.00  0.00    +0.081 C 
ATOM     22  C   UNL     1      33.248 -12.023 -22.647  0.00  0.00    +0.061 C 
ATOM     23  C   UNL     1      34.615 -12.470 -22.113  0.00  0.00    +0.025 C 
ATOM     24  C   UNL     1      33.148 -12.720 -24.004  0.00  0.00    +0.115 C 
ATOM     25  C   UNL     1      33.693 -14.115 -23.709  0.00  0.00    +0.049 C 
BRANCH  24  26
ATOM     26  O   UNL     1      33.970 -12.076 -24.969  0.00  0.00    -0.384 OA
ATOM     27  H   UNL     1      34.173 -12.696 -25.687  0.00  0.00    +0.210 HD
ENDBRANCH  24  26
BRANCH  22  28
ATOM     28  C   UNL     1      33.108 -10.509 -22.700  0.00  0.00    +0.176 C 
BRANCH  28  29
ATOM     29  O   UNL     1      34.397  -9.937 -22.839  0.00  0.00    -0.230 OA
BRANCH  29  30
ATOM     30  S   UNL     1      34.636  -8.714 -23.901  0.00  0.00    +0.045 S 
ATOM     31  O   UNL     1      35.196  -9.267 -25.122  0.00  0.00    -0.056 OA
ATOM     32  O   UNL     1      33.411  -7.938 -23.951  0.00  0.00    -0.056 OA
BRANCH  30  33
ATOM     33  N   UNL     1      35.837  -7.743 -23.156  0.00  0.00    -0.204 NA
ATOM     34  H   UNL     1      35.855  -7.935 -22.154  0.00  0.00    +0.144 HD
ATOM     35  H   UNL     1      35.621  -6.759 -23.310  0.00  0.00    +0.144 HD
ENDBRANCH  30  33
ENDBRANCH  29  30
ENDBRANCH  28  29
ENDBRANCH  22  28
ENDBRANCH   1  21
TORSDOF 7
ENDMDL
MODEL 4
REMARK VINA RESULT:     -10.6      2.863      3.861
REMARK  Name = 16720766
REMARK  7 active torsions:
REMARK  status: ('A' for Active; 'I' for Inactive)
REMARK    1  A    between atoms: N_1  and  C_10
REMARK    2  A    between atoms: C_11  and  C_17
REMARK    3  A    between atoms: C_13  and  O_15
REMARK    4  A    between atoms: C_17  and  O_18
REMARK    5  A    between atoms: O_18  and  S_19
REMARK    6  A    between atoms: S_19  and  N_22
REMARK    7  A    between atoms: N_25  and  C_27
REMARK                            x       y       z     vdW  Elec       q    Type
REMARK                         _______ _______ _______ _____ _____    ______ ____
ROOT
ATOM      1  N   UNL     1      33.915 -21.766 -17.244  0.00  0.00    -0.276 N 
ATOM      2  N   UNL     1      36.256 -21.360 -17.657  0.00  0.00    -0.233 NA
ATOM      3  N   UNL     1      36.652 -20.050 -19.670  0.00  0.00    -0.233 NA
ATOM      4  C   UNL     1      34.952 -21.241 -17.966  0.00  0.00    +0.120 C 
ATOM      5  C   UNL     1      32.727 -21.450 -17.853  0.00  0.00    +0.062 C 
ATOM      6  C   UNL     1      34.418 -20.574 -19.062  0.00  0.00    +0.131 C 
ATOM      7  C   UNL     1      33.009 -20.711 -18.982  0.00  0.00    +0.004 C 
ATOM      8  C   UNL     1      35.320 -19.956 -19.944  0.00  0.00    +0.113 C 
ATOM      9  C   UNL     1      37.029 -20.733 -18.565  0.00  0.00    +0.252 C 
ATOM     10  N   UNL     1      34.878 -19.267 -21.063  0.00  0.00    -0.319 N 
ATOM     11  H   UNL     1      33.908 -19.220 -21.226  0.00  0.00    +0.148 HD
ENDROOT
BRANCH  10  12
ATOM     12  C   UNL     1      35.758 -18.614 -22.001  0.00  0.00    +0.093 C 
ATOM     13  C   UNL     1      35.532 -19.143 -23.429  0.00  0.00    +0.029 C 
ATOM     14  C   UNL     1      35.383 -17.171 -22.163  0.00  0.00    -0.008 C 
ATOM     15  C   UNL     1      34.442 -18.263 -24.066  0.00  0.00    +0.028 C 
ATOM     16  C   UNL     1      34.645 -16.973 -23.337  0.00  0.00    -0.025 C 
ATOM     17  C   UNL     1      35.661 -16.117 -21.309  0.00  0.00    -0.003 C 
ATOM     18  C   UNL     1      34.164 -15.719 -23.674  0.00  0.00    -0.005 C 
ATOM     19  C   UNL     1      35.190 -14.847 -21.648  0.00  0.00    -0.000 C 
ATOM     20  C   UNL     1      34.446 -14.650 -22.823  0.00  0.00    -0.000 C 
ENDBRANCH  10  12
BRANCH   1  21
ATOM     21  C   UNL     1      34.040 -22.545 -16.014  0.00  0.00    +0.081 C 
ATOM     22  C   UNL     1      36.093 -22.937 -14.744  0.00  0.00    +0.061 C 
ATOM     23  C   UNL     1      34.965 -21.918 -14.950  0.00  0.00    +0.025 C 
ATOM     24  C   UNL     1      35.416 -24.280 -15.024  0.00  0.00    +0.115 C 
ATOM     25  C   UNL     1      34.559 -23.978 -16.249  0.00  0.00    +0.049 C 
BRANCH  24  26
ATOM     26  O   UNL     1      34.584 -24.666 -13.937  0.00  0.00    -0.384 OA
ATOM     27  H   UNL     1      34.777 -24.106 -13.168  0.00  0.00    +0.210 HD
ENDBRANCH  24  26
BRANCH  22  28
ATOM     28  C   UNL     1      36.739 -22.827 -13.371  0.00  0.00    +0.176 C 
BRANCH  28  29
ATOM     29  O   UNL     1      37.218 -24.105 -12.989  0.00  0.00    -0.230 OA
BRANCH  29  30
ATOM     30  S   UNL     1      37.075 -24.598 -11.435  0.00  0.00    +0.045 S 
ATOM     31  O   UNL     1      37.323 -26.028 -11.381  0.00  0.00    -0.056 OA
ATOM     32  O   UNL     1      37.863 -23.693 -10.618  0.00  0.00    -0.056 OA
BRANCH  30  33
ATOM     33  N   UNL     1      35.423 -24.330 -11.063  0.00  0.00    -0.204 NA
ATOM     34  H   UNL     1      34.844 -24.649 -11.839  0.00  0.00    +0.144 HD
ATOM     35  H   UNL     1      35.267 -23.334 -10.910  0.00  0.00    +0.144 HD
ENDBRANCH  30  33
ENDBRANCH  29  30
ENDBRANCH  28  29
ENDBRANCH  22  28
ENDBRANCH   1  21
TORSDOF 7
ENDMDL
MODEL 5
REMARK VINA RESULT:     -10.5      8.278     11.853
REMARK  Name = 16720766
REMARK  7 active torsions:
REMARK  status: ('A' for Active; 'I' for Inactive)
REMARK    1  A    between atoms: N_1  and  C_10
REMARK    2  A    between atoms: C_11  and  C_17
REMARK    3  A    between atoms: C_13  and  O_15
REMARK    4  A    between atoms: C_17  and  O_18
REMARK    5  A    between atoms: O_18  and  S_19
REMARK    6  A    between atoms: S_19  and  N_22
REMARK    7  A    between atoms: N_25  and  C_27
REMARK                            x       y       z     vdW  Elec       q    Type
REMARK                         _______ _______ _______ _____ _____    ______ ____
ROOT
ATOM      1  N   UNL     1      33.461 -12.189 -21.891  0.00  0.00    -0.276 N 
ATOM      2  N   UNL     1      33.452 -13.551 -23.881  0.00  0.00    -0.233 NA
ATOM      3  N   UNL     1      34.479 -15.732 -23.544  0.00  0.00    -0.233 NA
ATOM      4  C   UNL     1      33.743 -13.335 -22.586  0.00  0.00    +0.120 C 
ATOM      5  C   UNL     1      33.900 -12.319 -20.598  0.00  0.00    +0.062 C 
ATOM      6  C   UNL     1      34.375 -14.218 -21.719  0.00  0.00    +0.131 C 
ATOM      7  C   UNL     1      34.470 -13.567 -20.463  0.00  0.00    +0.004 C 
ATOM      8  C   UNL     1      34.754 -15.468 -22.235  0.00  0.00    +0.113 C 
ATOM      9  C   UNL     1      33.858 -14.776 -24.271  0.00  0.00    +0.252 C 
ATOM     10  N   UNL     1      35.389 -16.414 -21.445  0.00  0.00    -0.319 N 
ATOM     11  H   UNL     1      35.569 -16.186 -20.504  0.00  0.00    +0.148 HD
ENDROOT
BRANCH  10  12
ATOM     12  C   UNL     1      35.800 -17.712 -21.921  0.00  0.00    +0.093 C 
ATOM     13  C   UNL     1      37.331 -17.865 -21.852  0.00  0.00    +0.029 C 
ATOM     14  C   UNL     1      35.357 -18.788 -20.976  0.00  0.00    -0.008 C 
ATOM     15  C   UNL     1      37.661 -18.435 -20.462  0.00  0.00    +0.028 C 
ATOM     16  C   UNL     1      36.414 -19.202 -20.156  0.00  0.00    -0.025 C 
ATOM     17  C   UNL     1      34.092 -19.338 -20.843  0.00  0.00    -0.003 C 
ATOM     18  C   UNL     1      36.226 -20.168 -19.182  0.00  0.00    -0.005 C 
ATOM     19  C   UNL     1      33.897 -20.322 -19.871  0.00  0.00    -0.000 C 
ATOM     20  C   UNL     1      34.956 -20.733 -19.046  0.00  0.00    -0.000 C 
ENDBRANCH  10  12
BRANCH   1  21
ATOM     21  C   UNL     1      32.799 -11.005 -22.431  0.00  0.00    +0.081 C 
ATOM     22  C   UNL     1      33.742  -8.753 -22.579  0.00  0.00    +0.061 C 
ATOM     23  C   UNL     1      33.704 -10.106 -23.301  0.00  0.00    +0.025 C 
ATOM     24  C   UNL     1      32.379  -8.678 -21.888  0.00  0.00    +0.115 C 
ATOM     25  C   UNL     1      32.198 -10.091 -21.343  0.00  0.00    +0.049 C 
BRANCH  24  26
ATOM     26  O   UNL     1      31.350  -8.386 -22.825  0.00  0.00    -0.384 OA
ATOM     27  H   UNL     1      31.321  -9.083 -23.500  0.00  0.00    +0.210 HD
ENDBRANCH  24  26
BRANCH  22  28
ATOM     28  C   UNL     1      34.040  -7.596 -23.520  0.00  0.00    +0.176 C 
BRANCH  28  29
ATOM     29  O   UNL     1      33.397  -6.432 -23.029  0.00  0.00    -0.230 OA
BRANCH  29  30
ATOM     30  S   UNL     1      32.510  -5.501 -24.043  0.00  0.00    +0.045 S 
ATOM     31  O   UNL     1      33.418  -4.744 -24.886  0.00  0.00    -0.056 OA
ATOM     32  O   UNL     1      31.501  -6.354 -24.644  0.00  0.00    -0.056 OA
BRANCH  30  33
ATOM     33  N   UNL     1      31.707  -4.400 -23.003  0.00  0.00    -0.204 NA
ATOM     34  H   UNL     1      31.609  -3.499 -23.471  0.00  0.00    +0.144 HD
ATOM     35  H   UNL     1      32.251  -4.281 -22.149  0.00  0.00    +0.144 HD
ENDBRANCH  30  33
ENDBRANCH  29  30
ENDBRANCH  28  29
ENDBRANCH  22  28
ENDBRANCH   1  21
TORSDOF 7
ENDMDL
MODEL 6
REMARK VINA RESULT:     -10.4      6.670     10.305
REMARK  Name = 16720766
REMARK  7 active torsions:
REMARK  status: ('A' for Active; 'I' for Inactive)
REMARK    1  A    between atoms: N_1  and  C_10
REMARK    2  A    between atoms: C_11  and  C_17
REMARK    3  A    between atoms: C_13  and  O_15
REMARK    4  A    between atoms: C_17  and  O_18
REMARK    5  A    between atoms: O_18  and  S_19
REMARK    6  A    between atoms: S_19  and  N_22
REMARK    7  A    between atoms: N_25  and  C_27
REMARK                            x       y       z     vdW  Elec       q    Type
REMARK                         _______ _______ _______ _____ _____    ______ ____
ROOT
ATOM      1  N   UNL     1      34.970 -14.916 -21.783  0.00  0.00    -0.276 N 
ATOM      2  N   UNL     1      35.215 -16.798 -23.272  0.00  0.00    -0.233 NA
ATOM      3  N   UNL     1      35.456 -18.915 -22.095  0.00  0.00    -0.233 NA
ATOM      4  C   UNL     1      35.134 -16.250 -22.046  0.00  0.00    +0.120 C 
ATOM      5  C   UNL     1      34.931 -14.719 -20.426  0.00  0.00    +0.062 C 
ATOM      6  C   UNL     1      35.202 -16.922 -20.831  0.00  0.00    +0.131 C 
ATOM      7  C   UNL     1      35.071 -15.945 -19.811  0.00  0.00    +0.004 C 
ATOM      8  C   UNL     1      35.370 -18.316 -20.874  0.00  0.00    +0.113 C 
ATOM      9  C   UNL     1      35.375 -18.134 -23.196  0.00  0.00    +0.252 C 
ATOM     10  N   UNL     1      35.446 -19.069 -19.713  0.00  0.00    -0.319 N 
ATOM     11  H   UNL     1      35.379 -18.600 -18.850  0.00  0.00    +0.148 HD
ENDROOT
BRANCH  10  12
ATOM     12  C   UNL     1      35.619 -20.502 -19.697  0.00  0.00    +0.093 C 
ATOM     13  C   UNL     1      37.041 -20.880 -19.243  0.00  0.00    +0.029 C 
ATOM     14  C   UNL     1      34.792 -21.123 -18.612  0.00  0.00    -0.008 C 
ATOM     15  C   UNL     1      37.000 -21.017 -17.711  0.00  0.00    +0.028 C 
ATOM     16  C   UNL     1      35.577 -21.421 -17.491  0.00  0.00    -0.025 C 
ATOM     17  C   UNL     1      33.430 -21.379 -18.618  0.00  0.00    -0.003 C 
ATOM     18  C   UNL     1      35.015 -21.973 -16.352  0.00  0.00    -0.005 C 
ATOM     19  C   UNL     1      32.858 -21.947 -17.478  0.00  0.00    -0.000 C 
ATOM     20  C   UNL     1      33.645 -22.241 -16.352  0.00  0.00    -0.000 C 
ENDBRANCH  10  12
BRANCH   1  21
ATOM     21  C   UNL     1      34.855 -13.857 -22.783  0.00  0.00    +0.081 C 
ATOM     22  C   UNL     1      33.289 -11.979 -22.737  0.00  0.00    +0.061 C 
ATOM     23  C   UNL     1      34.647 -12.444 -22.197  0.00  0.00    +0.025 C 
ATOM     24  C   UNL     1      33.181 -12.684 -24.090  0.00  0.00    +0.115 C 
ATOM     25  C   UNL     1      33.704 -14.085 -23.784  0.00  0.00    +0.049 C 
BRANCH  24  26
ATOM     26  O   UNL     1      34.016 -12.059 -25.057  0.00  0.00    -0.384 OA
ATOM     27  H   UNL     1      34.377 -12.732 -25.655  0.00  0.00    +0.210 HD
ENDBRANCH  24  26
BRANCH  22  28
ATOM     28  C   UNL     1      33.172 -10.464 -22.801  0.00  0.00    +0.176 C 
BRANCH  28  29
ATOM     29  O   UNL     1      32.940  -9.970 -21.493  0.00  0.00    -0.230 OA
BRANCH  29  30
ATOM     30  S   UNL     1      32.511  -8.405 -21.277  0.00  0.00    +0.045 S 
ATOM     31  O   UNL     1      33.694  -7.577 -21.430  0.00  0.00    -0.056 OA
ATOM     32  O   UNL     1      31.341  -8.159 -22.100  0.00  0.00    -0.056 OA
BRANCH  30  33
ATOM     33  N   UNL     1      32.017  -8.330 -19.637  0.00  0.00    -0.204 NA
ATOM     34  H   UNL     1      31.201  -8.927 -19.500  0.00  0.00    +0.144 HD
ATOM     35  H   UNL     1      31.779  -7.368 -19.397  0.00  0.00    +0.144 HD
ENDBRANCH  30  33
ENDBRANCH  29  30
ENDBRANCH  28  29
ENDBRANCH  22  28
ENDBRANCH   1  21
TORSDOF 7
ENDMDL
MODEL 7
REMARK VINA RESULT:     -10.2      3.548      6.256
REMARK  Name = 16720766
REMARK  7 active torsions:
REMARK  status: ('A' for Active; 'I' for Inactive)
REMARK    1  A    between atoms: N_1  and  C_10
REMARK    2  A    between atoms: C_11  and  C_17
REMARK    3  A    between atoms: C_13  and  O_15
REMARK    4  A    between atoms: C_17  and  O_18
REMARK    5  A    between atoms: O_18  and  S_19
REMARK    6  A    between atoms: S_19  and  N_22
REMARK    7  A    between atoms: N_25  and  C_27
REMARK                            x       y       z     vdW  Elec       q    Type
REMARK                         _______ _______ _______ _____ _____    ______ ____
ROOT
ATOM      1  N   UNL     1      35.049 -15.761 -21.381  0.00  0.00    -0.276 N 
ATOM      2  N   UNL     1      34.370 -15.415 -23.669  0.00  0.00    -0.233 NA
ATOM      3  N   UNL     1      33.597 -13.148 -24.098  0.00  0.00    -0.233 NA
ATOM      4  C   UNL     1      34.566 -14.994 -22.407  0.00  0.00    +0.120 C 
ATOM      5  C   UNL     1      35.115 -15.006 -20.238  0.00  0.00    +0.062 C 
ATOM      6  C   UNL     1      34.316 -13.720 -21.910  0.00  0.00    +0.131 C 
ATOM      7  C   UNL     1      34.668 -13.736 -20.536  0.00  0.00    +0.004 C 
ATOM      8  C   UNL     1      33.811 -12.765 -22.807  0.00  0.00    +0.113 C 
ATOM      9  C   UNL     1      33.885 -14.424 -24.442  0.00  0.00    +0.252 C 
ATOM     10  N   UNL     1      33.534 -11.468 -22.402  0.00  0.00    -0.319 N 
ATOM     11  H   UNL     1      33.702 -11.230 -21.462  0.00  0.00    +0.148 HD
ENDROOT
BRANCH  10  12
ATOM     12  C   UNL     1      33.013 -10.448 -23.279  0.00  0.00    +0.093 C 
ATOM     13  C   UNL     1      32.349  -9.316 -22.475  0.00  0.00    +0.029 C 
ATOM     14  C   UNL     1      34.130  -9.710 -23.954  0.00  0.00    -0.008 C 
ATOM     15  C   UNL     1      33.447  -8.282 -22.167  0.00  0.00    +0.028 C 
ATOM     16  C   UNL     1      34.369  -8.480 -23.328  0.00  0.00    -0.025 C 
ATOM     17  C   UNL     1      34.894 -10.120 -25.035  0.00  0.00    -0.003 C 
ATOM     18  C   UNL     1      35.380  -7.641 -23.764  0.00  0.00    -0.005 C 
ATOM     19  C   UNL     1      35.908  -9.275 -25.488  0.00  0.00    -0.000 C 
ATOM     20  C   UNL     1      36.150  -8.044 -24.857  0.00  0.00    -0.000 C 
ENDBRANCH  10  12
BRANCH   1  21
ATOM     21  C   UNL     1      35.436 -17.166 -21.475  0.00  0.00    +0.081 C 
ATOM     22  C   UNL     1      34.692 -18.980 -20.013  0.00  0.00    +0.061 C 
ATOM     23  C   UNL     1      34.281 -18.165 -21.246  0.00  0.00    +0.025 C 
ATOM     24  C   UNL     1      36.220 -18.994 -20.086  0.00  0.00    +0.115 C 
ATOM     25  C   UNL     1      36.552 -17.560 -20.486  0.00  0.00    +0.049 C 
BRANCH  24  26
ATOM     26  O   UNL     1      36.672 -19.893 -21.090  0.00  0.00    -0.384 OA
ATOM     27  H   UNL     1      37.642 -19.918 -21.088  0.00  0.00    +0.210 HD
ENDBRANCH  24  26
BRANCH  22  28
ATOM     28  C   UNL     1      34.046 -20.356 -19.980  0.00  0.00    +0.176 C 
BRANCH  28  29
ATOM     29  O   UNL     1      34.712 -21.149 -19.011  0.00  0.00    -0.230 OA
BRANCH  29  30
ATOM     30  S   UNL     1      33.867 -22.236 -18.127  0.00  0.00    +0.045 S 
ATOM     31  O   UNL     1      32.557 -21.679 -17.838  0.00  0.00    -0.056 OA
ATOM     32  O   UNL     1      33.977 -23.520 -18.797  0.00  0.00    -0.056 OA
BRANCH  30  33
ATOM     33  N   UNL     1      34.736 -22.343 -16.653  0.00  0.00    -0.204 NA
ATOM     34  H   UNL     1      34.080 -22.399 -15.875  0.00  0.00    +0.144 HD
ATOM     35  H   UNL     1      35.323 -21.516 -16.545  0.00  0.00    +0.144 HD
ENDBRANCH  30  33
ENDBRANCH  29  30
ENDBRANCH  28  29
ENDBRANCH  22  28
ENDBRANCH   1  21
TORSDOF 7
ENDMDL
MODEL 8
REMARK VINA RESULT:     -10.0      7.761     11.434
REMARK  Name = 16720766
REMARK  7 active torsions:
REMARK  status: ('A' for Active; 'I' for Inactive)
REMARK    1  A    between atoms: N_1  and  C_10
REMARK    2  A    between atoms: C_11  and  C_17
REMARK    3  A    between atoms: C_13  and  O_15
REMARK    4  A    between atoms: C_17  and  O_18
REMARK    5  A    between atoms: O_18  and  S_19
REMARK    6  A    between atoms: S_19  and  N_22
REMARK    7  A    between atoms: N_25  and  C_27
REMARK                            x       y       z     vdW  Elec       q    Type
REMARK                         _______ _______ _______ _____ _____    ______ ____
ROOT
ATOM      1  N   UNL     1      33.278 -12.106 -21.782  0.00  0.00    -0.276 N 
ATOM      2  N   UNL     1      33.433 -13.365 -23.833  0.00  0.00    -0.233 NA
ATOM      3  N   UNL     1      34.418 -15.569 -23.522  0.00  0.00    -0.233 NA
ATOM      4  C   UNL     1      33.613 -13.217 -22.508  0.00  0.00    +0.120 C 
ATOM      5  C   UNL     1      33.603 -12.306 -20.464  0.00  0.00    +0.062 C 
ATOM      6  C   UNL     1      34.165 -14.149 -21.637  0.00  0.00    +0.131 C 
ATOM      7  C   UNL     1      34.154 -13.563 -20.345  0.00  0.00    +0.004 C 
ATOM      8  C   UNL     1      34.581 -15.374 -22.182  0.00  0.00    +0.113 C 
ATOM      9  C   UNL     1      33.865 -14.571 -24.249  0.00  0.00    +0.252 C 
ATOM     10  N   UNL     1      35.141 -16.364 -21.390  0.00  0.00    -0.319 N 
ATOM     11  H   UNL     1      35.241 -16.187 -20.427  0.00  0.00    +0.148 HD
ENDROOT
BRANCH  10  12
ATOM     12  C   UNL     1      35.586 -17.640 -21.896  0.00  0.00    +0.093 C 
ATOM     13  C   UNL     1      37.123 -17.736 -21.875  0.00  0.00    +0.029 C 
ATOM     14  C   UNL     1      35.212 -18.743 -20.953  0.00  0.00    -0.008 C 
ATOM     15  C   UNL     1      37.516 -18.310 -20.502  0.00  0.00    +0.028 C 
ATOM     16  C   UNL     1      36.308 -19.128 -20.170  0.00  0.00    -0.025 C 
ATOM     17  C   UNL     1      33.974 -19.343 -20.789  0.00  0.00    -0.003 C 
ATOM     18  C   UNL     1      36.186 -20.111 -19.203  0.00  0.00    -0.005 C 
ATOM     19  C   UNL     1      33.845 -20.345 -19.825  0.00  0.00    -0.000 C 
ATOM     20  C   UNL     1      34.943 -20.726 -19.037  0.00  0.00    -0.000 C 
ENDBRANCH  10  12
BRANCH   1  21
ATOM     21  C   UNL     1      32.670 -10.890 -22.315  0.00  0.00    +0.081 C 
ATOM     22  C   UNL     1      33.086  -8.603 -21.555  0.00  0.00    +0.061 C 
ATOM     23  C   UNL     1      33.643  -9.701 -22.469  0.00  0.00    +0.025 C 
ATOM     24  C   UNL     1      31.577  -8.855 -21.570  0.00  0.00    +0.115 C 
ATOM     25  C   UNL     1      31.488 -10.375 -21.468  0.00  0.00    +0.049 C 
BRANCH  24  26
ATOM     26  O   UNL     1      31.002  -8.420 -22.795  0.00  0.00    -0.384 OA
ATOM     27  H   UNL     1      31.425  -8.885 -23.534  0.00  0.00    +0.210 HD
ENDBRANCH  24  26
BRANCH  22  28
ATOM     28  C   UNL     1      33.499  -7.207 -21.997  0.00  0.00    +0.176 C 
BRANCH  28  29
ATOM     29  O   UNL     1      33.514  -6.355 -20.865  0.00  0.00    -0.230 OA
BRANCH  29  30
ATOM     30  S   UNL     1      32.132  -5.628 -20.373  0.00  0.00    +0.045 S 
ATOM     31  O   UNL     1      31.194  -5.622 -21.482  0.00  0.00    -0.056 OA
ATOM     32  O   UNL     1      31.754  -6.227 -19.106  0.00  0.00    -0.056 OA
BRANCH  30  33
ATOM     33  N   UNL     1      32.600  -4.009 -20.063  0.00  0.00    -0.204 NA
ATOM     34  H   UNL     1      32.032  -3.377 -20.627  0.00  0.00    +0.144 HD
ATOM     35  H   UNL     1      33.583  -3.887 -20.304  0.00  0.00    +0.144 HD
ENDBRANCH  30  33
ENDBRANCH  29  30
ENDBRANCH  28  29
ENDBRANCH  22  28
ENDBRANCH   1  21
TORSDOF 7
ENDMDL
MODEL 9
REMARK VINA RESULT:      -9.9      5.270      9.679
REMARK  Name = 16720766
REMARK  7 active torsions:
REMARK  status: ('A' for Active; 'I' for Inactive)
REMARK    1  A    between atoms: N_1  and  C_10
REMARK    2  A    between atoms: C_11  and  C_17
REMARK    3  A    between atoms: C_13  and  O_15
REMARK    4  A    between atoms: C_17  and  O_18
REMARK    5  A    between atoms: O_18  and  S_19
REMARK    6  A    between atoms: S_19  and  N_22
REMARK    7  A    between atoms: N_25  and  C_27
REMARK                            x       y       z     vdW  Elec       q    Type
REMARK                         _______ _______ _______ _____ _____    ______ ____
ROOT
ATOM      1  N   UNL     1      34.582 -19.335 -20.189  0.00  0.00    -0.276 N 
ATOM      2  N   UNL     1      36.387 -20.178 -18.830  0.00  0.00    -0.233 NA
ATOM      3  N   UNL     1      35.669 -21.883 -17.249  0.00  0.00    -0.233 NA
ATOM      4  C   UNL     1      35.097 -20.143 -19.211  0.00  0.00    +0.120 C 
ATOM      5  C   UNL     1      33.235 -19.564 -20.308  0.00  0.00    +0.062 C 
ATOM      6  C   UNL     1      34.058 -20.906 -18.693  0.00  0.00    +0.131 C 
ATOM      7  C   UNL     1      32.883 -20.534 -19.394  0.00  0.00    +0.004 C 
ATOM      8  C   UNL     1      34.373 -21.813 -17.667  0.00  0.00    +0.113 C 
ATOM      9  C   UNL     1      36.577 -21.077 -17.844  0.00  0.00    +0.252 C 
ATOM     10  N   UNL     1      33.402 -22.617 -17.091  0.00  0.00    -0.319 N 
ATOM     11  H   UNL     1      32.478 -22.538 -17.422  0.00  0.00    +0.148 HD
ENDROOT
BRANCH  10  12
ATOM     12  C   UNL     1      33.668 -23.564 -16.036  0.00  0.00    +0.093 C 
ATOM     13  C   UNL     1      34.862 -23.110 -15.176  0.00  0.00    +0.029 C 
ATOM     14  C   UNL     1      32.562 -23.554 -15.025  0.00  0.00    -0.008 C 
ATOM     15  C   UNL     1      34.293 -22.235 -14.046  0.00  0.00    +0.028 C 
ATOM     16  C   UNL     1      32.920 -22.808 -13.895  0.00  0.00    -0.025 C 
ATOM     17  C   UNL     1      31.314 -24.150 -15.120  0.00  0.00    -0.003 C 
ATOM     18  C   UNL     1      32.036 -22.636 -12.843  0.00  0.00    -0.005 C 
ATOM     19  C   UNL     1      30.421 -23.991 -14.058  0.00  0.00    -0.000 C 
ATOM     20  C   UNL     1      30.780 -23.238 -12.928  0.00  0.00    -0.000 C 
ENDBRANCH  10  12
BRANCH   1  21
ATOM     21  C   UNL     1      35.337 -18.372 -20.986  0.00  0.00    +0.081 C 
ATOM     22  C   UNL     1      34.734 -16.039 -21.404  0.00  0.00    +0.061 C 
ATOM     23  C   UNL     1      35.413 -16.955 -20.378  0.00  0.00    +0.025 C 
ATOM     24  C   UNL     1      35.017 -16.727 -22.740  0.00  0.00    +0.115 C 
ATOM     25  C   UNL     1      34.789 -18.200 -22.417  0.00  0.00    +0.049 C 
BRANCH  24  26
ATOM     26  O   UNL     1      36.367 -16.524 -23.140  0.00  0.00    -0.384 OA
ATOM     27  H   UNL     1      36.943 -17.133 -22.650  0.00  0.00    +0.210 HD
ENDBRANCH  24  26
BRANCH  22  28
ATOM     28  C   UNL     1      35.220 -14.600 -21.316  0.00  0.00    +0.176 C 
BRANCH  28  29
ATOM     29  O   UNL     1      35.149 -14.015 -22.605  0.00  0.00    -0.230 OA
BRANCH  29  30
ATOM     30  S   UNL     1      33.851 -13.108 -23.018  0.00  0.00    +0.045 S 
ATOM     31  O   UNL     1      33.309 -13.618 -24.265  0.00  0.00    -0.056 OA
ATOM     32  O   UNL     1      33.001 -13.007 -21.845  0.00  0.00    -0.056 OA
BRANCH  30  33
ATOM     33  N   UNL     1      34.507 -11.553 -23.319  0.00  0.00    -0.204 NA
ATOM     34  H   UNL     1      34.660 -11.437 -24.321  0.00  0.00    +0.144 HD
ATOM     35  H   UNL     1      35.396 -11.459 -22.827  0.00  0.00    +0.144 HD
ENDBRANCH  30  33
ENDBRANCH  29  30
ENDBRANCH  28  29
ENDBRANCH  22  28
ENDBRANCH   1  21
TORSDOF 7
ENDMDL
