MODEL 1
REMARK VINA RESULT:     -12.4      0.000      0.000
REMARK  Name = 4369498
REMARK  8 active torsions:
REMARK  status: ('A' for Active; 'I' for Inactive)
REMARK    1  A    between atoms: N_2  and  C_11
REMARK    2  A    between atoms: C_5  and  C_25
REMARK    3  A    between atoms: C_8  and  S_14
REMARK    4  A    between atoms: C_13  and  O_23
REMARK    5  A    between atoms: S_14  and  N_17
REMARK    6  A    between atoms: N_17  and  C_19
REMARK    7  A    between atoms: C_19  and  C_20
REMARK    8  A    between atoms: C_26  and  C_32
REMARK                            x       y       z     vdW  Elec       q    Type
REMARK                         _______ _______ _______ _____ _____    ______ ____
ROOT
ATOM      1  O   UNL     1      34.366 -19.761 -20.274  0.00  0.00    -0.424 OA
ATOM      2  N   UNL     1      34.104 -21.072 -18.406  0.00  0.00    -0.265 N 
ATOM      3  N   UNL     1      36.190 -20.011 -18.962  0.00  0.00    -0.193 NA
ATOM      4  C   UNL     1      34.925 -20.305 -19.158  0.00  0.00    +0.293 C 
ATOM      5  C   UNL     1      35.389 -19.054 -20.831  0.00  0.00    +0.168 C 
ATOM      6  C   UNL     1      36.493 -19.209 -20.032  0.00  0.00    +0.141 C 
ATOM      7  H   UNL     1      33.184 -21.154 -18.749  0.00  0.00    +0.157 HD
ENDROOT
BRANCH   2  11
ATOM      8  C   UNL     1      35.920 -22.521 -15.511  0.00  0.00    +0.123 C 
ATOM      9  C   UNL     1      35.657 -21.828 -16.693  0.00  0.00    +0.038 C 
ATOM     10  C   UNL     1      34.884 -23.165 -14.834  0.00  0.00    +0.023 C 
ATOM     11  C   UNL     1      34.357 -21.780 -17.197  0.00  0.00    +0.087 C 
ATOM     12  C   UNL     1      33.584 -23.116 -15.339  0.00  0.00    +0.040 C 
ATOM     13  C   UNL     1      33.321 -22.423 -16.521  0.00  0.00    +0.152 C 
BRANCH   8  14
ATOM     14  S   UNL     1      37.547 -22.585 -14.879  0.00  0.00    +0.060 S 
ATOM     15  O   UNL     1      38.432 -21.871 -15.790  0.00  0.00    -0.153 OA
ATOM     16  O   UNL     1      37.495 -22.191 -13.478  0.00  0.00    -0.153 OA
BRANCH  14  17
ATOM     17  N   UNL     1      37.908 -24.254 -14.962  0.00  0.00    -0.179 NA
ATOM     18  H   UNL     1      38.716 -24.351 -15.576  0.00  0.00    +0.149 HD
BRANCH  17  19
ATOM     19  C   UNL     1      38.218 -24.998 -13.732  0.00  0.00    +0.091 C 
BRANCH  19  20
ATOM     20  C   UNL     1      39.659 -24.850 -13.374  0.00  0.00    +0.017 C 
ATOM     21  C   UNL     1      40.656 -25.827 -13.927  0.00  0.00    +0.001 C 
ATOM     22  C   UNL     1      40.635 -24.413 -14.426  0.00  0.00    +0.001 C 
ENDBRANCH  19  20
ENDBRANCH  17  19
ENDBRANCH  14  17
ENDBRANCH   8  14
BRANCH  13  23
ATOM     23  O   UNL     1      32.045 -22.389 -16.998  0.00  0.00    -0.470 OA
ATOM     24  C   UNL     1      30.993 -22.428 -16.037  0.00  0.00    +0.253 C 
ENDBRANCH  13  23
ENDBRANCH   2  11
BRANCH   5  25
ATOM     25  C   UNL     1      35.091 -18.353 -22.056  0.00  0.00    +0.036 C 
ATOM     26  C   UNL     1      34.640 -16.290 -23.231  0.00  0.00    +0.002 C 
ATOM     27  C   UNL     1      34.928 -16.968 -22.047  0.00  0.00    +0.003 C 
ATOM     28  C   UNL     1      34.967 -19.061 -23.252  0.00  0.00    +0.003 C 
ATOM     29  C   UNL     1      34.516 -16.999 -24.426  0.00  0.00    +0.000 C 
ATOM     30  C   UNL     1      34.680 -18.384 -24.437  0.00  0.00    +0.000 C 
BRANCH  26  32
ATOM     31  N   UNL     1      33.800 -12.845 -24.388  0.00  0.00    -0.242 NA
ATOM     32  C   UNL     1      34.470 -14.854 -23.220  0.00  0.00    +0.019 C 
ATOM     33  C   UNL     1      34.790 -14.101 -22.096  0.00  0.00    +0.003 C 
ATOM     34  C   UNL     1      33.983 -14.183 -24.332  0.00  0.00    +0.099 C 
ATOM     35  C   UNL     1      34.615 -12.723 -22.116  0.00  0.00    +0.021 C 
ATOM     36  C   UNL     1      34.122 -12.148 -23.277  0.00  0.00    +0.099 C 
ENDBRANCH  26  32
ENDBRANCH   5  25
TORSDOF 8
ENDMDL
MODEL 2
REMARK VINA RESULT:     -11.8      2.322      5.624
REMARK  Name = 4369498
REMARK  8 active torsions:
REMARK  status: ('A' for Active; 'I' for Inactive)
REMARK    1  A    between atoms: N_2  and  C_11
REMARK    2  A    between atoms: C_5  and  C_25
REMARK    3  A    between atoms: C_8  and  S_14
REMARK    4  A    between atoms: C_13  and  O_23
REMARK    5  A    between atoms: S_14  and  N_17
REMARK    6  A    between atoms: N_17  and  C_19
REMARK    7  A    between atoms: C_19  and  C_20
REMARK    8  A    between atoms: C_26  and  C_32
REMARK                            x       y       z     vdW  Elec       q    Type
REMARK                         _______ _______ _______ _____ _____    ______ ____
ROOT
ATOM      1  O   UNL     1      36.280 -20.435 -18.211  0.00  0.00    -0.424 OA
ATOM      2  N   UNL     1      36.156 -21.643 -16.261  0.00  0.00    -0.265 N 
ATOM      3  N   UNL     1      34.463 -21.759 -17.966  0.00  0.00    -0.193 NA
ATOM      4  C   UNL     1      35.590 -21.326 -17.447  0.00  0.00    +0.293 C 
ATOM      5  C   UNL     1      35.503 -20.298 -19.322  0.00  0.00    +0.168 C 
ATOM      6  C   UNL     1      34.402 -21.103 -19.168  0.00  0.00    +0.141 C 
ATOM      7  H   UNL     1      37.012 -21.192 -16.077  0.00  0.00    +0.157 HD
ENDROOT
BRANCH   2  11
ATOM      8  C   UNL     1      33.900 -23.458 -13.937  0.00  0.00    +0.123 C 
ATOM      9  C   UNL     1      34.350 -22.600 -14.942  0.00  0.00    +0.038 C 
ATOM     10  C   UNL     1      34.813 -24.238 -13.227  0.00  0.00    +0.023 C 
ATOM     11  C   UNL     1      35.711 -22.524 -15.235  0.00  0.00    +0.087 C 
ATOM     12  C   UNL     1      36.174 -24.162 -13.520  0.00  0.00    +0.040 C 
ATOM     13  C   UNL     1      36.624 -23.305 -14.525  0.00  0.00    +0.152 C 
BRANCH   8  14
ATOM     14  S   UNL     1      32.197 -23.552 -13.566  0.00  0.00    +0.060 S 
ATOM     15  O   UNL     1      31.804 -24.955 -13.516  0.00  0.00    -0.153 OA
ATOM     16  O   UNL     1      31.945 -22.699 -12.412  0.00  0.00    -0.153 OA
BRANCH  14  17
ATOM     17  N   UNL     1      31.480 -22.833 -14.942  0.00  0.00    -0.179 NA
ATOM     18  H   UNL     1      32.135 -22.957 -15.714  0.00  0.00    +0.149 HD
BRANCH  17  19
ATOM     19  C   UNL     1      30.170 -23.304 -15.415  0.00  0.00    +0.091 C 
BRANCH  19  20
ATOM     20  C   UNL     1      29.317 -22.156 -15.839  0.00  0.00    +0.017 C 
ATOM     21  C   UNL     1      28.070 -22.422 -16.631  0.00  0.00    +0.001 C 
ATOM     22  C   UNL     1      27.970 -21.969 -15.205  0.00  0.00    +0.001 C 
ENDBRANCH  19  20
ENDBRANCH  17  19
ENDBRANCH  14  17
ENDBRANCH   8  14
BRANCH  13  23
ATOM     23  O   UNL     1      37.958 -23.243 -14.795  0.00  0.00    -0.470 OA
ATOM     24  C   UNL     1      38.781 -24.258 -14.224  0.00  0.00    +0.253 C 
ENDBRANCH  13  23
ENDBRANCH   2  11
BRANCH   5  25
ATOM     25  C   UNL     1      35.988 -19.395 -20.336  0.00  0.00    +0.036 C 
ATOM     26  C   UNL     1      35.616 -18.114 -22.351  0.00  0.00    +0.002 C 
ATOM     27  C   UNL     1      35.147 -18.988 -21.371  0.00  0.00    +0.003 C 
ATOM     28  C   UNL     1      37.301 -18.926 -20.281  0.00  0.00    +0.003 C 
ATOM     29  C   UNL     1      36.930 -17.646 -22.295  0.00  0.00    +0.000 C 
ATOM     30  C   UNL     1      37.772 -18.052 -21.260  0.00  0.00    +0.000 C 
BRANCH  26  32
ATOM     31  N   UNL     1      33.966 -15.929 -24.884  0.00  0.00    -0.242 NA
ATOM     32  C   UNL     1      34.743 -17.694 -23.425  0.00  0.00    +0.019 C 
ATOM     33  C   UNL     1      33.866 -18.588 -24.028  0.00  0.00    +0.003 C 
ATOM     34  C   UNL     1      34.755 -16.386 -23.886  0.00  0.00    +0.099 C 
ATOM     35  C   UNL     1      33.039 -18.154 -25.058  0.00  0.00    +0.021 C 
ATOM     36  C   UNL     1      33.127 -16.826 -25.445  0.00  0.00    +0.099 C 
ENDBRANCH  26  32
ENDBRANCH   5  25
TORSDOF 8
ENDMDL
MODEL 3
REMARK VINA RESULT:     -11.7      5.975     12.568
REMARK  Name = 4369498
REMARK  8 active torsions:
REMARK  status: ('A' for Active; 'I' for Inactive)
REMARK    1  A    between atoms: N_2  and  C_11
REMARK    2  A    between atoms: C_5  and  C_25
REMARK    3  A    between atoms: C_8  and  S_14
REMARK    4  A    between atoms: C_13  and  O_23
REMARK    5  A    between atoms: S_14  and  N_17
REMARK    6  A    between atoms: N_17  and  C_19
REMARK    7  A    between atoms: C_19  and  C_20
REMARK    8  A    between atoms: C_26  and  C_32
REMARK                            x       y       z     vdW  Elec       q    Type
REMARK                         _______ _______ _______ _____ _____    ______ ____
ROOT
ATOM      1  O   UNL     1      34.673 -13.511 -23.470  0.00  0.00    -0.424 OA
ATOM      2  N   UNL     1      34.561 -11.245 -23.832  0.00  0.00    -0.265 N 
ATOM      3  N   UNL     1      34.616 -12.204 -21.626  0.00  0.00    -0.193 NA
ATOM      4  C   UNL     1      34.614 -12.259 -22.939  0.00  0.00    +0.293 C 
ATOM      5  C   UNL     1      34.716 -14.321 -22.375  0.00  0.00    +0.168 C 
ATOM      6  C   UNL     1      34.681 -13.523 -21.259  0.00  0.00    +0.141 C 
ATOM      7  H   UNL     1      34.572 -11.524 -24.776  0.00  0.00    +0.157 HD
ENDROOT
BRANCH   2  11
ATOM      8  C   UNL     1      33.444  -7.944 -22.553  0.00  0.00    +0.123 C 
ATOM      9  C   UNL     1      33.525  -9.321 -22.763  0.00  0.00    +0.038 C 
ATOM     10  C   UNL     1      34.332  -7.086 -23.202  0.00  0.00    +0.023 C 
ATOM     11  C   UNL     1      34.492  -9.839 -23.624  0.00  0.00    +0.087 C 
ATOM     12  C   UNL     1      35.299  -7.604 -24.064  0.00  0.00    +0.040 C 
ATOM     13  C   UNL     1      35.380  -8.981 -24.274  0.00  0.00    +0.152 C 
BRANCH   8  14
ATOM     14  S   UNL     1      32.231  -7.294 -21.478  0.00  0.00    +0.060 S 
ATOM     15  O   UNL     1      32.892  -6.493 -20.455  0.00  0.00    -0.153 OA
ATOM     16  O   UNL     1      31.191  -6.687 -22.297  0.00  0.00    -0.153 OA
BRANCH  14  17
ATOM     17  N   UNL     1      31.596  -8.701 -20.745  0.00  0.00    -0.179 NA
ATOM     18  H   UNL     1      31.894  -9.492 -21.316  0.00  0.00    +0.149 HD
BRANCH  17  19
ATOM     19  C   UNL     1      31.949  -9.025 -19.355  0.00  0.00    +0.091 C 
BRANCH  19  20
ATOM     20  C   UNL     1      31.148 -10.184 -18.862  0.00  0.00    +0.017 C 
ATOM     21  C   UNL     1      31.790 -11.539 -18.785  0.00  0.00    +0.001 C 
ATOM     22  C   UNL     1      31.474 -10.786 -17.527  0.00  0.00    +0.001 C 
ENDBRANCH  19  20
ENDBRANCH  17  19
ENDBRANCH  14  17
ENDBRANCH   8  14
BRANCH  13  23
ATOM     23  O   UNL     1      36.331  -9.467 -25.120  0.00  0.00    -0.470 OA
ATOM     24  C   UNL     1      36.062  -9.377 -26.517  0.00  0.00    +0.253 C 
ENDBRANCH  13  23
ENDBRANCH   2  11
BRANCH   5  25
ATOM     25  C   UNL     1      34.784 -15.739 -22.629  0.00  0.00    +0.036 C 
ATOM     26  C   UNL     1      35.070 -17.999 -21.824  0.00  0.00    +0.002 C 
ATOM     27  C   UNL     1      35.005 -16.628 -21.577  0.00  0.00    +0.003 C 
ATOM     28  C   UNL     1      34.625 -16.223 -23.928  0.00  0.00    +0.003 C 
ATOM     29  C   UNL     1      34.912 -18.481 -23.123  0.00  0.00    +0.000 C 
ATOM     30  C   UNL     1      34.690 -17.593 -24.175  0.00  0.00    +0.000 C 
BRANCH  26  32
ATOM     31  N   UNL     1      36.837 -19.882 -19.132  0.00  0.00    -0.242 NA
ATOM     32  C   UNL     1      35.301 -18.920 -20.733  0.00  0.00    +0.019 C 
ATOM     33  C   UNL     1      34.274 -19.712 -20.233  0.00  0.00    +0.003 C 
ATOM     34  C   UNL     1      36.554 -19.042 -20.152  0.00  0.00    +0.099 C 
ATOM     35  C   UNL     1      34.527 -20.589 -19.184  0.00  0.00    +0.021 C 
ATOM     36  C   UNL     1      35.814 -20.635 -18.673  0.00  0.00    +0.099 C 
ENDBRANCH  26  32
ENDBRANCH   5  25
TORSDOF 8
ENDMDL
MODEL 4
REMARK VINA RESULT:     -11.6      4.437      8.753
REMARK  Name = 4369498
REMARK  8 active torsions:
REMARK  status: ('A' for Active; 'I' for Inactive)
REMARK    1  A    between atoms: N_2  and  C_11
REMARK    2  A    between atoms: C_5  and  C_25
REMARK    3  A    between atoms: C_8  and  S_14
REMARK    4  A    between atoms: C_13  and  O_23
REMARK    5  A    between atoms: S_14  and  N_17
REMARK    6  A    between atoms: N_17  and  C_19
REMARK    7  A    between atoms: C_19  and  C_20
REMARK    8  A    between atoms: C_26  and  C_32
REMARK                            x       y       z     vdW  Elec       q    Type
REMARK                         _______ _______ _______ _____ _____    ______ ____
ROOT
ATOM      1  O   UNL     1      34.251 -12.228 -23.442  0.00  0.00    -0.424 OA
ATOM      2  N   UNL     1      34.783 -14.453 -23.655  0.00  0.00    -0.265 N 
ATOM      3  N   UNL     1      33.462 -13.606 -21.831  0.00  0.00    -0.193 NA
ATOM      4  C   UNL     1      34.155 -13.491 -22.942  0.00  0.00    +0.293 C 
ATOM      5  C   UNL     1      33.546 -11.477 -22.550  0.00  0.00    +0.168 C 
ATOM      6  C   UNL     1      33.070 -12.318 -21.575  0.00  0.00    +0.141 C 
ATOM      7  H   UNL     1      35.245 -14.133 -24.464  0.00  0.00    +0.157 HD
ENDROOT
BRANCH   2  11
ATOM      8  C   UNL     1      35.729 -17.685 -22.093  0.00  0.00    +0.123 C 
ATOM      9  C   UNL     1      35.620 -16.314 -22.332  0.00  0.00    +0.038 C 
ATOM     10  C   UNL     1      35.100 -18.593 -22.945  0.00  0.00    +0.023 C 
ATOM     11  C   UNL     1      34.883 -15.853 -23.422  0.00  0.00    +0.087 C 
ATOM     12  C   UNL     1      34.364 -18.131 -24.036  0.00  0.00    +0.040 C 
ATOM     13  C   UNL     1      34.255 -16.761 -24.274  0.00  0.00    +0.152 C 
BRANCH   8  14
ATOM     14  S   UNL     1      36.654 -18.264 -20.730  0.00  0.00    +0.060 S 
ATOM     15  O   UNL     1      38.069 -18.247 -21.082  0.00  0.00    -0.153 OA
ATOM     16  O   UNL     1      36.204 -17.540 -19.548  0.00  0.00    -0.153 OA
BRANCH  14  17
ATOM     17  N   UNL     1      36.142 -19.889 -20.601  0.00  0.00    -0.179 NA
ATOM     18  H   UNL     1      36.956 -20.472 -20.798  0.00  0.00    +0.149 HD
BRANCH  17  19
ATOM     19  C   UNL     1      35.566 -20.377 -19.340  0.00  0.00    +0.091 C 
BRANCH  19  20
ATOM     20  C   UNL     1      34.208 -20.953 -19.566  0.00  0.00    +0.017 C 
ATOM     21  C   UNL     1      33.167 -20.823 -18.492  0.00  0.00    +0.001 C 
ATOM     22  C   UNL     1      33.041 -20.027 -19.758  0.00  0.00    +0.001 C 
ENDBRANCH  19  20
ENDBRANCH  17  19
ENDBRANCH  14  17
ENDBRANCH   8  14
BRANCH  13  23
ATOM     23  O   UNL     1      33.531 -16.331 -25.346  0.00  0.00    -0.470 OA
ATOM     24  C   UNL     1      32.416 -17.129 -25.736  0.00  0.00    +0.253 C 
ENDBRANCH  13  23
ENDBRANCH   2  11
BRANCH   5  25
ATOM     25  C   UNL     1      33.470 -10.063 -22.821  0.00  0.00    +0.036 C 
ATOM     26  C   UNL     1      33.132  -7.798 -22.050  0.00  0.00    +0.002 C 
ATOM     27  C   UNL     1      33.205  -9.165 -21.787  0.00  0.00    +0.003 C 
ATOM     28  C   UNL     1      33.663  -9.591 -24.120  0.00  0.00    +0.003 C 
ATOM     29  C   UNL     1      33.325  -7.328 -23.349  0.00  0.00    +0.000 C 
ATOM     30  C   UNL     1      33.590  -8.224 -24.384  0.00  0.00    +0.000 C 
BRANCH  26  32
ATOM     31  N   UNL     1      32.865  -6.388 -18.607  0.00  0.00    -0.242 NA
ATOM     32  C   UNL     1      32.857  -6.868 -20.977  0.00  0.00    +0.019 C 
ATOM     33  C   UNL     1      32.340  -5.604 -21.238  0.00  0.00    +0.003 C 
ATOM     34  C   UNL     1      33.099  -7.208 -19.655  0.00  0.00    +0.099 C 
ATOM     35  C   UNL     1      32.085  -4.732 -20.186  0.00  0.00    +0.021 C 
ATOM     36  C   UNL     1      32.362  -5.168 -18.900  0.00  0.00    +0.099 C 
ENDBRANCH  26  32
ENDBRANCH   5  25
TORSDOF 8
ENDMDL
MODEL 5
REMARK VINA RESULT:     -11.5      2.019      3.126
REMARK  Name = 4369498
REMARK  8 active torsions:
REMARK  status: ('A' for Active; 'I' for Inactive)
REMARK    1  A    between atoms: N_2  and  C_11
REMARK    2  A    between atoms: C_5  and  C_25
REMARK    3  A    between atoms: C_8  and  S_14
REMARK    4  A    between atoms: C_13  and  O_23
REMARK    5  A    between atoms: S_14  and  N_17
REMARK    6  A    between atoms: N_17  and  C_19
REMARK    7  A    between atoms: C_19  and  C_20
REMARK    8  A    between atoms: C_26  and  C_32
REMARK                            x       y       z     vdW  Elec       q    Type
REMARK                         _______ _______ _______ _____ _____    ______ ____
ROOT
ATOM      1  O   UNL     1      35.986 -20.441 -17.877  0.00  0.00    -0.424 OA
ATOM      2  N   UNL     1      35.596 -21.527 -15.891  0.00  0.00    -0.265 N 
ATOM      3  N   UNL     1      34.537 -22.176 -17.951  0.00  0.00    -0.193 NA
ATOM      4  C   UNL     1      35.334 -21.436 -17.214  0.00  0.00    +0.293 C 
ATOM      5  C   UNL     1      35.549 -20.574 -19.161  0.00  0.00    +0.168 C 
ATOM      6  C   UNL     1      34.670 -21.627 -19.201  0.00  0.00    +0.141 C 
ATOM      7  H   UNL     1      36.233 -20.859 -15.548  0.00  0.00    +0.157 HD
ENDROOT
BRANCH   2  11
ATOM      8  C   UNL     1      35.449 -23.737 -12.911  0.00  0.00    +0.123 C 
ATOM      9  C   UNL     1      35.926 -22.846 -13.873  0.00  0.00    +0.038 C 
ATOM     10  C   UNL     1      34.141 -24.214 -12.991  0.00  0.00    +0.023 C 
ATOM     11  C   UNL     1      35.095 -22.434 -14.914  0.00  0.00    +0.087 C 
ATOM     12  C   UNL     1      33.310 -23.801 -14.032  0.00  0.00    +0.040 C 
ATOM     13  C   UNL     1      33.786 -22.911 -14.994  0.00  0.00    +0.152 C 
BRANCH   8  14
ATOM     14  S   UNL     1      36.490 -24.257 -11.609  0.00  0.00    +0.060 S 
ATOM     15  O   UNL     1      37.560 -23.280 -11.445  0.00  0.00    -0.153 OA
ATOM     16  O   UNL     1      35.645 -24.587 -10.470  0.00  0.00    -0.153 OA
BRANCH  14  17
ATOM     17  N   UNL     1      37.159 -25.703 -12.228  0.00  0.00    -0.179 NA
ATOM     18  H   UNL     1      36.377 -26.317 -12.453  0.00  0.00    +0.149 HD
BRANCH  17  19
ATOM     19  C   UNL     1      38.022 -25.659 -13.418  0.00  0.00    +0.091 C 
BRANCH  19  20
ATOM     20  C   UNL     1      39.456 -25.521 -13.027  0.00  0.00    +0.017 C 
ATOM     21  C   UNL     1      40.519 -25.652 -14.079  0.00  0.00    +0.001 C 
ATOM     22  C   UNL     1      40.224 -24.312 -13.473  0.00  0.00    +0.001 C 
ENDBRANCH  19  20
ENDBRANCH  17  19
ENDBRANCH  14  17
ENDBRANCH   8  14
BRANCH  13  23
ATOM     23  O   UNL     1      32.959 -22.521 -16.004  0.00  0.00    -0.470 OA
ATOM     24  C   UNL     1      31.574 -22.385 -15.691  0.00  0.00    +0.253 C 
ENDBRANCH  13  23
ENDBRANCH   2  11
BRANCH   5  25
ATOM     25  C   UNL     1      36.079 -19.635 -20.119  0.00  0.00    +0.036 C 
ATOM     26  C   UNL     1      35.783 -18.246 -22.074  0.00  0.00    +0.002 C 
ATOM     27  C   UNL     1      35.270 -19.154 -21.148  0.00  0.00    +0.003 C 
ATOM     28  C   UNL     1      37.402 -19.204 -20.014  0.00  0.00    +0.003 C 
ATOM     29  C   UNL     1      37.106 -17.817 -21.969  0.00  0.00    +0.000 C 
ATOM     30  C   UNL     1      37.916 -18.296 -20.939  0.00  0.00    +0.000 C 
BRANCH  26  32
ATOM     31  N   UNL     1      34.143 -15.869 -24.435  0.00  0.00    -0.242 NA
ATOM     32  C   UNL     1      34.944 -17.749 -23.142  0.00  0.00    +0.019 C 
ATOM     33  C   UNL     1      34.152 -18.611 -23.892  0.00  0.00    +0.003 C 
ATOM     34  C   UNL     1      34.904 -16.398 -23.451  0.00  0.00    +0.099 C 
ATOM     35  C   UNL     1      33.356 -18.103 -24.913  0.00  0.00    +0.021 C 
ATOM     36  C   UNL     1      33.387 -16.737 -25.142  0.00  0.00    +0.099 C 
ENDBRANCH  26  32
ENDBRANCH   5  25
TORSDOF 8
ENDMDL
MODEL 6
REMARK VINA RESULT:     -11.4      1.789      2.126
REMARK  Name = 4369498
REMARK  8 active torsions:
REMARK  status: ('A' for Active; 'I' for Inactive)
REMARK    1  A    between atoms: N_2  and  C_11
REMARK    2  A    between atoms: C_5  and  C_25
REMARK    3  A    between atoms: C_8  and  S_14
REMARK    4  A    between atoms: C_13  and  O_23
REMARK    5  A    between atoms: S_14  and  N_17
REMARK    6  A    between atoms: N_17  and  C_19
REMARK    7  A    between atoms: C_19  and  C_20
REMARK    8  A    between atoms: C_26  and  C_32
REMARK                            x       y       z     vdW  Elec       q    Type
REMARK                         _______ _______ _______ _____ _____    ______ ____
ROOT
ATOM      1  O   UNL     1      33.944 -20.103 -19.552  0.00  0.00    -0.424 OA
ATOM      2  N   UNL     1      33.235 -21.430 -17.816  0.00  0.00    -0.265 N 
ATOM      3  N   UNL     1      35.562 -21.012 -18.259  0.00  0.00    -0.193 NA
ATOM      4  C   UNL     1      34.275 -20.887 -18.489  0.00  0.00    +0.293 C 
ATOM      5  C   UNL     1      35.151 -19.697 -20.036  0.00  0.00    +0.168 C 
ATOM      6  C   UNL     1      36.130 -20.250 -19.249  0.00  0.00    +0.141 C 
ATOM      7  H   UNL     1      32.346 -21.197 -18.170  0.00  0.00    +0.157 HD
ENDROOT
BRANCH   2  11
ATOM      8  C   UNL     1      34.420 -23.680 -15.111  0.00  0.00    +0.123 C 
ATOM      9  C   UNL     1      34.418 -22.838 -16.224  0.00  0.00    +0.038 C 
ATOM     10  C   UNL     1      33.224 -23.966 -14.452  0.00  0.00    +0.023 C 
ATOM     11  C   UNL     1      33.222 -22.284 -16.677  0.00  0.00    +0.087 C 
ATOM     12  C   UNL     1      32.027 -23.411 -14.906  0.00  0.00    +0.040 C 
ATOM     13  C   UNL     1      32.026 -22.570 -16.019  0.00  0.00    +0.152 C 
BRANCH   8  14
ATOM     14  S   UNL     1      35.917 -24.377 -14.544  0.00  0.00    +0.060 S 
ATOM     15  O   UNL     1      36.021 -25.740 -15.050  0.00  0.00    -0.153 OA
ATOM     16  O   UNL     1      36.984 -23.427 -14.826  0.00  0.00    -0.153 OA
BRANCH  14  17
ATOM     17  N   UNL     1      35.676 -24.439 -12.852  0.00  0.00    -0.179 NA
ATOM     18  H   UNL     1      36.339 -25.122 -12.485  0.00  0.00    +0.149 HD
BRANCH  17  19
ATOM     19  C   UNL     1      35.832 -23.220 -12.046  0.00  0.00    +0.091 C 
BRANCH  19  20
ATOM     20  C   UNL     1      36.974 -23.357 -11.095  0.00  0.00    +0.017 C 
ATOM     21  C   UNL     1      38.348 -23.633 -11.633  0.00  0.00    +0.001 C 
ATOM     22  C   UNL     1      38.026 -22.287 -11.053  0.00  0.00    +0.001 C 
ENDBRANCH  19  20
ENDBRANCH  17  19
ENDBRANCH  14  17
ENDBRANCH   8  14
BRANCH  13  23
ATOM     23  O   UNL     1      30.846 -22.040 -16.447  0.00  0.00    -0.470 OA
ATOM     24  C   UNL     1      29.675 -22.385 -15.709  0.00  0.00    +0.253 C 
ENDBRANCH  13  23
ENDBRANCH   2  11
BRANCH   5  25
ATOM     25  C   UNL     1      35.121 -18.834 -21.191  0.00  0.00    +0.036 C 
ATOM     26  C   UNL     1      34.960 -16.621 -22.148  0.00  0.00    +0.002 C 
ATOM     27  C   UNL     1      34.988 -17.455 -21.031  0.00  0.00    +0.003 C 
ATOM     28  C   UNL     1      35.226 -19.379 -22.471  0.00  0.00    +0.003 C 
ATOM     29  C   UNL     1      35.064 -17.168 -23.428  0.00  0.00    +0.000 C 
ATOM     30  C   UNL     1      35.198 -18.546 -23.589  0.00  0.00    +0.000 C 
BRANCH  26  32
ATOM     31  N   UNL     1      34.562 -13.010 -22.992  0.00  0.00    -0.242 NA
ATOM     32  C   UNL     1      34.820 -15.191 -21.981  0.00  0.00    +0.019 C 
ATOM     33  C   UNL     1      34.808 -14.614 -20.717  0.00  0.00    +0.003 C 
ATOM     34  C   UNL     1      34.695 -14.352 -23.078  0.00  0.00    +0.099 C 
ATOM     35  C   UNL     1      34.673 -13.237 -20.588  0.00  0.00    +0.021 C 
ATOM     36  C   UNL     1      34.554 -12.486 -21.747  0.00  0.00    +0.099 C 
ENDBRANCH  26  32
ENDBRANCH   5  25
TORSDOF 8
ENDMDL
MODEL 7
REMARK VINA RESULT:     -11.3      5.159      9.871
REMARK  Name = 4369498
REMARK  8 active torsions:
REMARK  status: ('A' for Active; 'I' for Inactive)
REMARK    1  A    between atoms: N_2  and  C_11
REMARK    2  A    between atoms: C_5  and  C_25
REMARK    3  A    between atoms: C_8  and  S_14
REMARK    4  A    between atoms: C_13  and  O_23
REMARK    5  A    between atoms: S_14  and  N_17
REMARK    6  A    between atoms: N_17  and  C_19
REMARK    7  A    between atoms: C_19  and  C_20
REMARK    8  A    between atoms: C_26  and  C_32
REMARK                            x       y       z     vdW  Elec       q    Type
REMARK                         _______ _______ _______ _____ _____    ______ ____
ROOT
ATOM      1  O   UNL     1      33.408 -10.710 -21.863  0.00  0.00    -0.424 OA
ATOM      2  N   UNL     1      34.185 -12.666 -22.783  0.00  0.00    -0.265 N 
ATOM      3  N   UNL     1      32.287 -12.594 -21.306  0.00  0.00    -0.193 NA
ATOM      4  C   UNL     1      33.278 -12.060 -21.984  0.00  0.00    +0.293 C 
ATOM      5  C   UNL     1      32.392 -10.366 -21.022  0.00  0.00    +0.168 C 
ATOM      6  C   UNL     1      31.715 -11.513 -20.687  0.00  0.00    +0.141 C 
ATOM      7  H   UNL     1      34.845 -12.061 -23.194  0.00  0.00    +0.157 HD
ENDROOT
BRANCH   2  11
ATOM      8  C   UNL     1      35.100 -16.256 -22.538  0.00  0.00    +0.123 C 
ATOM      9  C   UNL     1      34.942 -14.907 -22.215  0.00  0.00    +0.038 C 
ATOM     10  C   UNL     1      34.654 -16.735 -23.770  0.00  0.00    +0.023 C 
ATOM     11  C   UNL     1      34.338 -14.040 -23.125  0.00  0.00    +0.087 C 
ATOM     12  C   UNL     1      34.050 -15.866 -24.679  0.00  0.00    +0.040 C 
ATOM     13  C   UNL     1      33.891 -14.519 -24.356  0.00  0.00    +0.152 C 
BRANCH   8  14
ATOM     14  S   UNL     1      35.860 -17.343 -21.402  0.00  0.00    +0.060 S 
ATOM     15  O   UNL     1      37.179 -17.703 -21.907  0.00  0.00    -0.153 OA
ATOM     16  O   UNL     1      35.740 -16.754 -20.075  0.00  0.00    -0.153 OA
BRANCH  14  17
ATOM     17  N   UNL     1      34.850 -18.720 -21.479  0.00  0.00    -0.179 NA
ATOM     18  H   UNL     1      35.302 -19.382 -22.111  0.00  0.00    +0.149 HD
BRANCH  17  19
ATOM     19  C   UNL     1      34.525 -19.459 -20.251  0.00  0.00    +0.091 C 
BRANCH  19  20
ATOM     20  C   UNL     1      35.559 -20.498 -19.970  0.00  0.00    +0.017 C 
ATOM     21  C   UNL     1      36.565 -20.257 -18.882  0.00  0.00    +0.001 C 
ATOM     22  C   UNL     1      35.484 -21.279 -18.690  0.00  0.00    +0.001 C 
ENDBRANCH  19  20
ENDBRANCH  17  19
ENDBRANCH  14  17
ENDBRANCH   8  14
BRANCH  13  23
ATOM     23  O   UNL     1      33.300 -13.686 -25.259  0.00  0.00    -0.470 OA
ATOM     24  C   UNL     1      34.127 -12.693 -25.862  0.00  0.00    +0.253 C 
ENDBRANCH  13  23
ENDBRANCH   2  11
BRANCH   5  25
ATOM     25  C   UNL     1      32.273  -8.966 -20.700  0.00  0.00    +0.036 C 
ATOM     26  C   UNL     1      32.059  -6.665 -21.407  0.00  0.00    +0.002 C 
ATOM     27  C   UNL     1      32.175  -8.019 -21.719  0.00  0.00    +0.003 C 
ATOM     28  C   UNL     1      32.254  -8.557 -19.366  0.00  0.00    +0.003 C 
ATOM     29  C   UNL     1      32.042  -6.257 -20.073  0.00  0.00    +0.000 C 
ATOM     30  C   UNL     1      32.139  -7.203 -19.052  0.00  0.00    +0.000 C 
BRANCH  26  32
ATOM     31  N   UNL     1      31.737  -3.367 -23.118  0.00  0.00    -0.242 NA
ATOM     32  C   UNL     1      31.959  -5.684 -22.465  0.00  0.00    +0.019 C 
ATOM     33  C   UNL     1      31.983  -6.065 -23.802  0.00  0.00    +0.003 C 
ATOM     34  C   UNL     1      31.835  -4.333 -22.179  0.00  0.00    +0.099 C 
ATOM     35  C   UNL     1      31.884  -5.099 -24.796  0.00  0.00    +0.021 C 
ATOM     36  C   UNL     1      31.764  -3.775 -24.405  0.00  0.00    +0.099 C 
ENDBRANCH  26  32
ENDBRANCH   5  25
TORSDOF 8
ENDMDL
MODEL 8
REMARK VINA RESULT:     -11.0      5.948     13.579
REMARK  Name = 4369498
REMARK  8 active torsions:
REMARK  status: ('A' for Active; 'I' for Inactive)
REMARK    1  A    between atoms: N_2  and  C_11
REMARK    2  A    between atoms: C_5  and  C_25
REMARK    3  A    between atoms: C_8  and  S_14
REMARK    4  A    between atoms: C_13  and  O_23
REMARK    5  A    between atoms: S_14  and  N_17
REMARK    6  A    between atoms: N_17  and  C_19
REMARK    7  A    between atoms: C_19  and  C_20
REMARK    8  A    between atoms: C_26  and  C_32
REMARK                            x       y       z     vdW  Elec       q    Type
REMARK                         _______ _______ _______ _____ _____    ______ ____
ROOT
ATOM      1  O   UNL     1      34.473 -13.890 -23.209  0.00  0.00    -0.424 OA
ATOM      2  N   UNL     1      34.170 -11.642 -23.574  0.00  0.00    -0.265 N 
ATOM      3  N   UNL     1      34.779 -12.535 -21.425  0.00  0.00    -0.193 NA
ATOM      4  C   UNL     1      34.477 -12.627 -22.700  0.00  0.00    +0.293 C 
ATOM      5  C   UNL     1      34.808 -14.666 -22.141  0.00  0.00    +0.168 C 
ATOM      6  C   UNL     1      34.992 -13.839 -21.060  0.00  0.00    +0.141 C 
ATOM      7  H   UNL     1      33.976 -11.946 -24.490  0.00  0.00    +0.157 HD
ENDROOT
BRANCH   2  11
ATOM      8  C   UNL     1      33.333  -8.361 -22.051  0.00  0.00    +0.123 C 
ATOM      9  C   UNL     1      33.429  -9.739 -22.252  0.00  0.00    +0.038 C 
ATOM     10  C   UNL     1      33.892  -7.481 -22.977  0.00  0.00    +0.023 C 
ATOM     11  C   UNL     1      34.083 -10.234 -23.380  0.00  0.00    +0.087 C 
ATOM     12  C   UNL     1      34.545  -7.977 -24.106  0.00  0.00    +0.040 C 
ATOM     13  C   UNL     1      34.641  -9.354 -24.307  0.00  0.00    +0.152 C 
BRANCH   8  14
ATOM     14  S   UNL     1      32.513  -7.739 -20.640  0.00  0.00    +0.060 S 
ATOM     15  O   UNL     1      31.578  -8.748 -20.159  0.00  0.00    -0.153 OA
ATOM     16  O   UNL     1      33.524  -7.212 -19.734  0.00  0.00    -0.153 OA
BRANCH  14  17
ATOM     17  N   UNL     1      31.621  -6.429 -21.282  0.00  0.00    -0.179 NA
ATOM     18  H   UNL     1      30.687  -6.480 -20.874  0.00  0.00    +0.149 HD
BRANCH  17  19
ATOM     19  C   UNL     1      32.097  -5.053 -21.083  0.00  0.00    +0.091 C 
BRANCH  19  20
ATOM     20  C   UNL     1      31.582  -4.154 -22.157  0.00  0.00    +0.017 C 
ATOM     21  C   UNL     1      32.272  -2.845 -22.412  0.00  0.00    +0.001 C 
ATOM     22  C   UNL     1      32.394  -3.963 -23.405  0.00  0.00    +0.001 C 
ENDBRANCH  19  20
ENDBRANCH  17  19
ENDBRANCH  14  17
ENDBRANCH   8  14
BRANCH  13  23
ATOM     23  O   UNL     1      35.282  -9.818 -25.416  0.00  0.00    -0.470 OA
ATOM     24  C   UNL     1      36.175  -8.920 -26.071  0.00  0.00    +0.253 C 
ENDBRANCH  13  23
ENDBRANCH   2  11
BRANCH   5  25
ATOM     25  C   UNL     1      34.884 -16.086 -22.379  0.00  0.00    +0.036 C 
ATOM     26  C   UNL     1      35.133 -18.339 -21.542  0.00  0.00    +0.002 C 
ATOM     27  C   UNL     1      35.060 -16.966 -21.311  0.00  0.00    +0.003 C 
ATOM     28  C   UNL     1      34.780 -16.581 -23.679  0.00  0.00    +0.003 C 
ATOM     29  C   UNL     1      35.030 -18.833 -22.843  0.00  0.00    +0.000 C 
ATOM     30  C   UNL     1      34.853 -17.954 -23.911  0.00  0.00    +0.000 C 
BRANCH  26  32
ATOM     31  N   UNL     1      36.798 -20.245 -18.802  0.00  0.00    -0.242 NA
ATOM     32  C   UNL     1      35.317 -19.251 -20.435  0.00  0.00    +0.019 C 
ATOM     33  C   UNL     1      34.254 -19.995 -19.933  0.00  0.00    +0.003 C 
ATOM     34  C   UNL     1      36.558 -19.411 -19.838  0.00  0.00    +0.099 C 
ATOM     35  C   UNL     1      34.462 -20.863 -18.868  0.00  0.00    +0.021 C 
ATOM     36  C   UNL     1      35.741 -20.951 -18.343  0.00  0.00    +0.099 C 
ENDBRANCH  26  32
ENDBRANCH   5  25
TORSDOF 8
ENDMDL
MODEL 9
REMARK VINA RESULT:     -10.5      5.759     12.308
REMARK  Name = 4369498
REMARK  8 active torsions:
REMARK  status: ('A' for Active; 'I' for Inactive)
REMARK    1  A    between atoms: N_2  and  C_11
REMARK    2  A    between atoms: C_5  and  C_25
REMARK    3  A    between atoms: C_8  and  S_14
REMARK    4  A    between atoms: C_13  and  O_23
REMARK    5  A    between atoms: S_14  and  N_17
REMARK    6  A    between atoms: N_17  and  C_19
REMARK    7  A    between atoms: C_19  and  C_20
REMARK    8  A    between atoms: C_26  and  C_32
REMARK                            x       y       z     vdW  Elec       q    Type
REMARK                         _______ _______ _______ _____ _____    ______ ____
ROOT
ATOM      1  O   UNL     1      33.488 -14.084 -21.705  0.00  0.00    -0.424 OA
ATOM      2  N   UNL     1      32.660 -12.102 -20.889  0.00  0.00    -0.265 N 
ATOM      3  N   UNL     1      34.413 -12.194 -22.535  0.00  0.00    -0.193 NA
ATOM      4  C   UNL     1      33.530 -12.723 -21.717  0.00  0.00    +0.293 C 
ATOM      5  C   UNL     1      34.443 -14.441 -22.608  0.00  0.00    +0.168 C 
ATOM      6  C   UNL     1      35.002 -13.292 -23.108  0.00  0.00    +0.141 C 
ATOM      7  H   UNL     1      32.087 -12.705 -20.363  0.00  0.00    +0.157 HD
ENDROOT
BRANCH   2  11
ATOM      8  C   UNL     1      32.520  -8.435 -21.452  0.00  0.00    +0.123 C 
ATOM      9  C   UNL     1      32.726  -9.799 -21.668  0.00  0.00    +0.038 C 
ATOM     10  C   UNL     1      32.031  -7.990 -20.224  0.00  0.00    +0.023 C 
ATOM     11  C   UNL     1      32.443 -10.715 -20.656  0.00  0.00    +0.087 C 
ATOM     12  C   UNL     1      31.748  -8.907 -19.211  0.00  0.00    +0.040 C 
ATOM     13  C   UNL     1      31.954 -10.270 -19.428  0.00  0.00    +0.152 C 
BRANCH   8  14
ATOM     14  S   UNL     1      32.878  -7.286 -22.717  0.00  0.00    +0.060 S 
ATOM     15  O   UNL     1      32.274  -7.752 -23.959  0.00  0.00    -0.153 OA
ATOM     16  O   UNL     1      32.548  -5.958 -22.217  0.00  0.00    -0.153 OA
BRANCH  14  17
ATOM     17  N   UNL     1      34.577  -7.409 -22.856  0.00  0.00    -0.179 NA
ATOM     18  H   UNL     1      34.855  -8.247 -22.346  0.00  0.00    +0.149 HD
BRANCH  17  19
ATOM     19  C   UNL     1      35.198  -7.495 -24.186  0.00  0.00    +0.091 C 
BRANCH  19  20
ATOM     20  C   UNL     1      35.727  -8.868 -24.434  0.00  0.00    +0.017 C 
ATOM     21  C   UNL     1      34.869  -9.866 -25.158  0.00  0.00    +0.001 C 
ATOM     22  C   UNL     1      36.072  -9.279 -25.836  0.00  0.00    +0.001 C 
ENDBRANCH  19  20
ENDBRANCH  17  19
ENDBRANCH  14  17
ENDBRANCH   8  14
BRANCH  13  23
ATOM     23  O   UNL     1      31.672 -11.149 -18.425  0.00  0.00    -0.470 OA
ATOM     24  C   UNL     1      31.541 -10.612 -17.111  0.00  0.00    +0.253 C 
ENDBRANCH  13  23
ENDBRANCH   2  11
BRANCH   5  25
ATOM     25  C   UNL     1      34.634 -15.856 -22.814  0.00  0.00    +0.036 C 
ATOM     26  C   UNL     1      35.096 -18.057 -21.930  0.00  0.00    +0.002 C 
ATOM     27  C   UNL     1      34.913 -16.689 -21.731  0.00  0.00    +0.003 C 
ATOM     28  C   UNL     1      34.537 -16.393 -24.098  0.00  0.00    +0.003 C 
ATOM     29  C   UNL     1      35.000 -18.592 -23.215  0.00  0.00    +0.000 C 
ATOM     30  C   UNL     1      34.720 -17.760 -24.299  0.00  0.00    +0.000 C 
BRANCH  26  32
ATOM     31  N   UNL     1      36.979 -19.710 -19.167  0.00  0.00    -0.242 NA
ATOM     32  C   UNL     1      35.387 -18.920 -20.806  0.00  0.00    +0.019 C 
ATOM     33  C   UNL     1      34.416 -19.766 -20.282  0.00  0.00    +0.003 C 
ATOM     34  C   UNL     1      36.642 -18.930 -20.218  0.00  0.00    +0.099 C 
ATOM     35  C   UNL     1      34.726 -20.584 -19.202  0.00  0.00    +0.021 C 
ATOM     36  C   UNL     1      36.010 -20.519 -18.685  0.00  0.00    +0.099 C 
ENDBRANCH  26  32
ENDBRANCH   5  25
TORSDOF 8
ENDMDL
