MODEL 1
REMARK VINA RESULT:     -12.2      0.000      0.000
REMARK  Name = 49866474
REMARK  7 active torsions:
REMARK  status: ('A' for Active; 'I' for Inactive)
REMARK    1  A    between atoms: O_1  and  C_3
REMARK    2  A    between atoms: O_1  and  C_18
REMARK    3  A    between atoms: C_4  and  C_10
REMARK    4  A    between atoms: C_18  and  C_19
REMARK    5  A    between atoms: C_19  and  N_20
REMARK    6  A    between atoms: C_19  and  C_24
REMARK    7  A    between atoms: C_24  and  C_26
REMARK                            x       y       z     vdW  Elec       q    Type
REMARK                         _______ _______ _______ _____ _____    ______ ____
ROOT
ATOM      1  O   UNL     1      35.393 -23.107 -15.560  0.00  0.00    -0.476 OA
ENDROOT
BRANCH   1   3
ATOM      2  N   UNL     1      32.564 -22.046 -17.624  0.00  0.00    -0.239 NA
ATOM      3  C   UNL     1      34.688 -22.468 -16.546  0.00  0.00    +0.158 C 
ATOM      4  C   UNL     1      34.579 -20.981 -18.434  0.00  0.00    +0.022 C 
ATOM      5  C   UNL     1      35.321 -21.618 -17.445  0.00  0.00    +0.040 C 
ATOM      6  C   UNL     1      33.320 -22.647 -16.677  0.00  0.00    +0.136 C 
ATOM      7  C   UNL     1      33.216 -21.226 -18.480  0.00  0.00    +0.099 C 
BRANCH   4  10
ATOM      8  N   UNL     1      36.739 -17.546 -22.203  0.00  0.00    -0.236 N 
ATOM      9  N   UNL     1      35.696 -17.229 -22.990  0.00  0.00    -0.180 NA
ATOM     10  C   UNL     1      35.208 -20.092 -19.382  0.00  0.00    +0.002 C 
ATOM     11  C   UNL     1      35.072 -18.662 -21.318  0.00  0.00    +0.035 C 
ATOM     12  C   UNL     1      34.440 -19.522 -20.406  0.00  0.00    +0.003 C 
ATOM     13  C   UNL     1      36.431 -18.402 -21.182  0.00  0.00    +0.067 C 
ATOM     14  C   UNL     1      36.571 -19.815 -19.268  0.00  0.00    +0.001 C 
ATOM     15  C   UNL     1      37.214 -18.961 -20.169  0.00  0.00    +0.016 C 
ATOM     16  C   UNL     1      34.684 -17.909 -22.448  0.00  0.00    +0.119 C 
ATOM     17  H   UNL     1      37.646 -17.192 -22.350  0.00  0.00    +0.174 HD
ENDBRANCH   4  10
ENDBRANCH   1   3
BRANCH   1  18
ATOM     18  C   UNL     1      34.637 -23.803 -14.578  0.00  0.00    +0.184 C 
BRANCH  18  19
ATOM     19  C   UNL     1      34.531 -22.971 -13.295  0.00  0.00    -0.017 C 
BRANCH  19  20
ATOM     20  N   UNL     1      33.129 -22.580 -13.117  0.00  0.00    +0.384 N 
ATOM     21  H   UNL     1      32.526 -23.249 -13.595  0.00  0.00    -0.089 HD
ATOM     22  H   UNL     1      32.983 -21.650 -13.508  0.00  0.00    -0.089 HD
ATOM     23  H   UNL     1      32.903 -22.569 -12.122  0.00  0.00    -0.089 HD
ENDBRANCH  19  20
BRANCH  19  24
ATOM     24  C   UNL     1      35.007 -23.733 -12.034  0.00  0.00    +0.006 C 
BRANCH  24  26
ATOM     25  N   UNL     1      38.519 -22.577 -11.372  0.00  0.00    -0.234 NA
ATOM     26  C   UNL     1      36.465 -23.709 -11.815  0.00  0.00    -0.024 C 
ATOM     27  C   UNL     1      37.461 -24.530 -12.150  0.00  0.00    +0.065 C 
ATOM     28  C   UNL     1      38.798 -23.980 -11.738  0.00  0.00    +0.122 C 
ATOM     29  C   UNL     1      37.219 -22.532 -11.362  0.00  0.00    +0.072 C 
ATOM     30  C   UNL     1      37.438 -25.724 -12.955  0.00  0.00    -0.020 C 
ATOM     31  C   UNL     1      39.827 -24.153 -12.820  0.00  0.00    -0.004 C 
ATOM     32  C   UNL     1      38.522 -26.020 -13.695  0.00  0.00    -0.004 C 
ATOM     33  C   UNL     1      39.684 -25.140 -13.723  0.00  0.00    -0.003 C 
ENDBRANCH  24  26
ENDBRANCH  19  24
ENDBRANCH  18  19
ENDBRANCH   1  18
TORSDOF 7
ENDMDL
MODEL 2
REMARK VINA RESULT:     -12.0      1.980      3.108
REMARK  Name = 49866474
REMARK  7 active torsions:
REMARK  status: ('A' for Active; 'I' for Inactive)
REMARK    1  A    between atoms: O_1  and  C_3
REMARK    2  A    between atoms: O_1  and  C_18
REMARK    3  A    between atoms: C_4  and  C_10
REMARK    4  A    between atoms: C_18  and  C_19
REMARK    5  A    between atoms: C_19  and  N_20
REMARK    6  A    between atoms: C_19  and  C_24
REMARK    7  A    between atoms: C_24  and  C_26
REMARK                            x       y       z     vdW  Elec       q    Type
REMARK                         _______ _______ _______ _____ _____    ______ ____
ROOT
ATOM      1  O   UNL     1      36.543 -21.656 -17.743  0.00  0.00    -0.476 OA
ENDROOT
BRANCH   1   3
ATOM      2  N   UNL     1      33.158 -21.097 -19.013  0.00  0.00    -0.239 NA
ATOM      3  C   UNL     1      35.516 -21.124 -18.478  0.00  0.00    +0.158 C 
ATOM      4  C   UNL     1      34.682 -19.590 -20.132  0.00  0.00    +0.022 C 
ATOM      5  C   UNL     1      35.745 -20.111 -19.402  0.00  0.00    +0.040 C 
ATOM      6  C   UNL     1      34.216 -21.579 -18.323  0.00  0.00    +0.136 C 
ATOM      7  C   UNL     1      33.420 -20.112 -19.903  0.00  0.00    +0.099 C 
BRANCH   4  10
ATOM      8  N   UNL     1      35.337 -15.715 -24.035  0.00  0.00    -0.236 N 
ATOM      9  N   UNL     1      34.737 -16.239 -25.117  0.00  0.00    -0.180 NA
ATOM     10  C   UNL     1      34.888 -18.537 -21.099  0.00  0.00    +0.002 C 
ATOM     11  C   UNL     1      34.611 -17.659 -23.327  0.00  0.00    +0.035 C 
ATOM     12  C   UNL     1      34.398 -18.694 -22.402  0.00  0.00    +0.003 C 
ATOM     13  C   UNL     1      35.296 -16.517 -22.927  0.00  0.00    +0.067 C 
ATOM     14  C   UNL     1      35.572 -17.380 -20.724  0.00  0.00    +0.001 C 
ATOM     15  C   UNL     1      35.792 -16.341 -21.634  0.00  0.00    +0.016 C 
ATOM     16  C   UNL     1      34.297 -17.421 -24.683  0.00  0.00    +0.119 C 
ATOM     17  H   UNL     1      35.767 -14.829 -24.038  0.00  0.00    +0.174 HD
ENDBRANCH   4  10
ENDBRANCH   1   3
BRANCH   1  18
ATOM     18  C   UNL     1      37.072 -20.847 -16.701  0.00  0.00    +0.184 C 
BRANCH  18  19
ATOM     19  C   UNL     1      37.065 -21.612 -15.372  0.00  0.00    -0.017 C 
BRANCH  19  20
ATOM     20  N   UNL     1      35.780 -22.307 -15.250  0.00  0.00    +0.384 N 
ATOM     21  H   UNL     1      35.944 -23.296 -15.063  0.00  0.00    -0.089 HD
ATOM     22  H   UNL     1      35.255 -22.207 -16.118  0.00  0.00    -0.089 HD
ATOM     23  H   UNL     1      35.245 -21.900 -14.482  0.00  0.00    -0.089 HD
ENDBRANCH  19  20
BRANCH  19  24
ATOM     24  C   UNL     1      38.211 -22.647 -15.259  0.00  0.00    +0.006 C 
BRANCH  24  26
ATOM     25  N   UNL     1      37.362 -25.768 -13.347  0.00  0.00    -0.234 NA
ATOM     26  C   UNL     1      38.043 -23.636 -14.177  0.00  0.00    -0.024 C 
ATOM     27  C   UNL     1      37.950 -23.543 -12.851  0.00  0.00    +0.065 C 
ATOM     28  C   UNL     1      37.704 -24.883 -12.215  0.00  0.00    +0.122 C 
ATOM     29  C   UNL     1      37.649 -25.036 -14.384  0.00  0.00    +0.072 C 
ATOM     30  C   UNL     1      37.891 -22.373 -12.012  0.00  0.00    -0.020 C 
ATOM     31  C   UNL     1      36.654 -24.804 -11.143  0.00  0.00    -0.004 C 
ATOM     32  C   UNL     1      37.174 -22.435 -10.874  0.00  0.00    -0.004 C 
ATOM     33  C   UNL     1      36.437 -23.637 -10.508  0.00  0.00    -0.003 C 
ENDBRANCH  24  26
ENDBRANCH  19  24
ENDBRANCH  18  19
ENDBRANCH   1  18
TORSDOF 7
ENDMDL
MODEL 3
REMARK VINA RESULT:     -11.9      1.855      3.121
REMARK  Name = 49866474
REMARK  7 active torsions:
REMARK  status: ('A' for Active; 'I' for Inactive)
REMARK    1  A    between atoms: O_1  and  C_3
REMARK    2  A    between atoms: O_1  and  C_18
REMARK    3  A    between atoms: C_4  and  C_10
REMARK    4  A    between atoms: C_18  and  C_19
REMARK    5  A    between atoms: C_19  and  N_20
REMARK    6  A    between atoms: C_19  and  C_24
REMARK    7  A    between atoms: C_24  and  C_26
REMARK                            x       y       z     vdW  Elec       q    Type
REMARK                         _______ _______ _______ _____ _____    ______ ____
ROOT
ATOM      1  O   UNL     1      33.343 -21.550 -18.110  0.00  0.00    -0.476 OA
ENDROOT
BRANCH   1   3
ATOM      2  N   UNL     1      36.823 -20.637 -18.773  0.00  0.00    -0.239 NA
ATOM      3  C   UNL     1      34.424 -20.919 -18.668  0.00  0.00    +0.158 C 
ATOM      4  C   UNL     1      35.376 -19.337 -20.210  0.00  0.00    +0.022 C 
ATOM      5  C   UNL     1      34.260 -19.959 -19.660  0.00  0.00    +0.040 C 
ATOM      6  C   UNL     1      35.715 -21.219 -18.263  0.00  0.00    +0.136 C 
ATOM      7  C   UNL     1      36.624 -19.708 -19.736  0.00  0.00    +0.099 C 
BRANCH   4  10
ATOM      8  N   UNL     1      34.744 -15.703 -24.342  0.00  0.00    -0.236 N 
ATOM      9  N   UNL     1      34.222 -16.435 -25.341  0.00  0.00    -0.180 NA
ATOM     10  C   UNL     1      35.239 -18.336 -21.241  0.00  0.00    +0.002 C 
ATOM     11  C   UNL     1      34.589 -17.713 -23.478  0.00  0.00    +0.035 C 
ATOM     12  C   UNL     1      34.713 -18.701 -22.488  0.00  0.00    +0.003 C 
ATOM     13  C   UNL     1      34.988 -16.411 -23.196  0.00  0.00    +0.067 C 
ATOM     14  C   UNL     1      35.631 -17.022 -20.985  0.00  0.00    +0.001 C 
ATOM     15  C   UNL     1      35.514 -16.027 -21.961  0.00  0.00    +0.016 C 
ATOM     16  C   UNL     1      34.129 -17.656 -24.811  0.00  0.00    +0.119 C 
ATOM     17  H   UNL     1      34.934 -14.741 -24.427  0.00  0.00    +0.174 HD
ENDBRANCH   4  10
ENDBRANCH   1   3
BRANCH   1  18
ATOM     18  C   UNL     1      33.604 -22.730 -17.362  0.00  0.00    +0.184 C 
BRANCH  18  19
ATOM     19  C   UNL     1      33.443 -22.460 -15.862  0.00  0.00    -0.017 C 
BRANCH  19  20
ATOM     20  N   UNL     1      32.012 -22.453 -15.547  0.00  0.00    +0.384 N 
ATOM     21  H   UNL     1      31.746 -23.353 -15.147  0.00  0.00    -0.089 HD
ATOM     22  H   UNL     1      31.477 -22.288 -16.399  0.00  0.00    -0.089 HD
ATOM     23  H   UNL     1      31.815 -21.712 -14.874  0.00  0.00    -0.089 HD
ENDBRANCH  19  20
BRANCH  19  24
ATOM     24  C   UNL     1      34.150 -23.515 -14.975  0.00  0.00    +0.006 C 
BRANCH  24  26
ATOM     25  N   UNL     1      37.708 -22.434 -14.443  0.00  0.00    -0.234 NA
ATOM     26  C   UNL     1      35.405 -23.053 -14.352  0.00  0.00    -0.024 C 
ATOM     27  C   UNL     1      35.882 -23.085 -13.108  0.00  0.00    +0.065 C 
ATOM     28  C   UNL     1      37.278 -22.534 -13.033  0.00  0.00    +0.122 C 
ATOM     29  C   UNL     1      36.606 -22.655 -15.098  0.00  0.00    +0.072 C 
ATOM     30  C   UNL     1      35.330 -23.697 -11.926  0.00  0.00    -0.020 C 
ATOM     31  C   UNL     1      38.165 -23.384 -12.167  0.00  0.00    -0.004 C 
ATOM     32  C   UNL     1      36.177 -24.186 -11.002  0.00  0.00    -0.004 C 
ATOM     33  C   UNL     1      37.620 -24.142 -11.198  0.00  0.00    -0.003 C 
ENDBRANCH  24  26
ENDBRANCH  19  24
ENDBRANCH  18  19
ENDBRANCH   1  18
TORSDOF 7
ENDMDL
MODEL 4
REMARK VINA RESULT:     -11.8      5.751     11.999
REMARK  Name = 49866474
REMARK  7 active torsions:
REMARK  status: ('A' for Active; 'I' for Inactive)
REMARK    1  A    between atoms: O_1  and  C_3
REMARK    2  A    between atoms: O_1  and  C_18
REMARK    3  A    between atoms: C_4  and  C_10
REMARK    4  A    between atoms: C_18  and  C_19
REMARK    5  A    between atoms: C_19  and  N_20
REMARK    6  A    between atoms: C_19  and  C_24
REMARK    7  A    between atoms: C_24  and  C_26
REMARK                            x       y       z     vdW  Elec       q    Type
REMARK                         _______ _______ _______ _____ _____    ______ ____
ROOT
ATOM      1  O   UNL     1      35.547 -14.670 -22.817  0.00  0.00    -0.476 OA
ENDROOT
BRANCH   1   3
ATOM      2  N   UNL     1      34.372 -17.863 -24.163  0.00  0.00    -0.239 NA
ATOM      3  C   UNL     1      35.229 -16.001 -22.879  0.00  0.00    +0.158 C 
ATOM      4  C   UNL     1      35.091 -18.184 -21.877  0.00  0.00    +0.022 C 
ATOM      5  C   UNL     1      35.422 -16.837 -21.784  0.00  0.00    +0.040 C 
ATOM      6  C   UNL     1      34.705 -16.559 -24.035  0.00  0.00    +0.136 C 
ATOM      7  C   UNL     1      34.574 -18.644 -23.078  0.00  0.00    +0.099 C 
BRANCH   4  10
ATOM      8  N   UNL     1      35.534 -21.659 -17.587  0.00  0.00    -0.236 N 
ATOM      9  N   UNL     1      34.278 -22.096 -17.392  0.00  0.00    -0.180 NA
ATOM     10  C   UNL     1      35.280 -19.076 -20.758  0.00  0.00    +0.002 C 
ATOM     11  C   UNL     1      34.383 -20.620 -19.138  0.00  0.00    +0.035 C 
ATOM     12  C   UNL     1      34.177 -19.759 -20.227  0.00  0.00    +0.003 C 
ATOM     13  C   UNL     1      35.665 -20.771 -18.620  0.00  0.00    +0.067 C 
ATOM     14  C   UNL     1      36.556 -19.247 -20.219  0.00  0.00    +0.001 C 
ATOM     15  C   UNL     1      36.777 -20.101 -19.134  0.00  0.00    +0.016 C 
ATOM     16  C   UNL     1      33.581 -21.462 -18.337  0.00  0.00    +0.119 C 
ATOM     17  H   UNL     1      36.294 -21.953 -17.035  0.00  0.00    +0.174 HD
ENDBRANCH   4  10
ENDBRANCH   1   3
BRANCH   1  18
ATOM     18  C   UNL     1      34.871 -13.894 -21.837  0.00  0.00    +0.184 C 
BRANCH  18  19
ATOM     19  C   UNL     1      34.140 -12.718 -22.494  0.00  0.00    -0.017 C 
BRANCH  19  20
ATOM     20  N   UNL     1      34.109 -12.949 -23.942  0.00  0.00    +0.384 N 
ATOM     21  H   UNL     1      35.032 -13.244 -24.260  0.00  0.00    -0.089 HD
ATOM     22  H   UNL     1      33.844 -12.087 -24.418  0.00  0.00    -0.089 HD
ATOM     23  H   UNL     1      33.428 -13.678 -24.155  0.00  0.00    -0.089 HD
ENDBRANCH  19  20
BRANCH  19  24
ATOM     24  C   UNL     1      32.691 -12.538 -21.980  0.00  0.00    +0.006 C 
BRANCH  24  26
ATOM     25  N   UNL     1      32.618  -8.799 -21.623  0.00  0.00    -0.234 NA
ATOM     26  C   UNL     1      32.361 -11.171 -21.536  0.00  0.00    -0.024 C 
ATOM     27  C   UNL     1      31.838 -10.665 -20.420  0.00  0.00    +0.065 C 
ATOM     28  C   UNL     1      31.785  -9.164 -20.459  0.00  0.00    +0.122 C 
ATOM     29  C   UNL     1      32.825  -9.946 -22.202  0.00  0.00    +0.072 C 
ATOM     30  C   UNL     1      31.492 -11.324 -19.186  0.00  0.00    -0.020 C 
ATOM     31  C   UNL     1      32.229  -8.558 -19.157  0.00  0.00    -0.004 C 
ATOM     32  C   UNL     1      31.611 -10.635 -18.035  0.00  0.00    -0.004 C 
ATOM     33  C   UNL     1      32.117  -9.268 -18.020  0.00  0.00    -0.003 C 
ENDBRANCH  24  26
ENDBRANCH  19  24
ENDBRANCH  18  19
ENDBRANCH   1  18
TORSDOF 7
ENDMDL
MODEL 5
REMARK VINA RESULT:     -11.7      5.432     12.605
REMARK  Name = 49866474
REMARK  7 active torsions:
REMARK  status: ('A' for Active; 'I' for Inactive)
REMARK    1  A    between atoms: O_1  and  C_3
REMARK    2  A    between atoms: O_1  and  C_18
REMARK    3  A    between atoms: C_4  and  C_10
REMARK    4  A    between atoms: C_18  and  C_19
REMARK    5  A    between atoms: C_19  and  N_20
REMARK    6  A    between atoms: C_19  and  C_24
REMARK    7  A    between atoms: C_24  and  C_26
REMARK                            x       y       z     vdW  Elec       q    Type
REMARK                         _______ _______ _______ _____ _____    ______ ____
ROOT
ATOM      1  O   UNL     1      35.399 -14.358 -22.454  0.00  0.00    -0.476 OA
ENDROOT
BRANCH   1   3
ATOM      2  N   UNL     1      34.523 -17.503 -24.104  0.00  0.00    -0.239 NA
ATOM      3  C   UNL     1      35.173 -15.698 -22.633  0.00  0.00    +0.158 C 
ATOM      4  C   UNL     1      35.114 -17.955 -21.804  0.00  0.00    +0.022 C 
ATOM      5  C   UNL     1      35.350 -16.601 -21.591  0.00  0.00    +0.040 C 
ATOM      6  C   UNL     1      34.762 -16.196 -23.859  0.00  0.00    +0.136 C 
ATOM      7  C   UNL     1      34.706 -18.351 -23.067  0.00  0.00    +0.099 C 
BRANCH   4  10
ATOM      8  N   UNL     1      35.500 -21.685 -17.728  0.00  0.00    -0.236 N 
ATOM      9  N   UNL     1      34.231 -22.077 -17.524  0.00  0.00    -0.180 NA
ATOM     10  C   UNL     1      35.289 -18.917 -20.741  0.00  0.00    +0.002 C 
ATOM     11  C   UNL     1      34.362 -20.510 -19.187  0.00  0.00    +0.035 C 
ATOM     12  C   UNL     1      34.170 -19.580 -20.221  0.00  0.00    +0.003 C 
ATOM     13  C   UNL     1      35.647 -20.746 -18.712  0.00  0.00    +0.067 C 
ATOM     14  C   UNL     1      36.568 -19.173 -20.246  0.00  0.00    +0.001 C 
ATOM     15  C   UNL     1      36.776 -20.096 -19.216  0.00  0.00    +0.016 C 
ATOM     16  C   UNL     1      33.542 -21.360 -18.414  0.00  0.00    +0.119 C 
ATOM     17  H   UNL     1      36.259 -22.043 -17.213  0.00  0.00    +0.174 HD
ENDBRANCH   4  10
ENDBRANCH   1   3
BRANCH   1  18
ATOM     18  C   UNL     1      34.827 -13.760 -21.298  0.00  0.00    +0.184 C 
BRANCH  18  19
ATOM     19  C   UNL     1      33.448 -13.176 -21.624  0.00  0.00    -0.017 C 
BRANCH  19  20
ATOM     20  N   UNL     1      32.569 -13.405 -20.473  0.00  0.00    +0.384 N 
ATOM     21  H   UNL     1      33.134 -13.544 -19.635  0.00  0.00    -0.089 HD
ATOM     22  H   UNL     1      31.998 -14.233 -20.640  0.00  0.00    -0.089 HD
ATOM     23  H   UNL     1      31.962 -12.595 -20.342  0.00  0.00    -0.089 HD
ENDBRANCH  19  20
BRANCH  19  24
ATOM     24  C   UNL     1      33.486 -11.660 -21.936  0.00  0.00    +0.006 C 
BRANCH  24  26
ATOM     25  N   UNL     1      33.979 -11.937 -25.650  0.00  0.00    -0.234 NA
ATOM     26  C   UNL     1      33.681 -11.331 -23.361  0.00  0.00    -0.024 C 
ATOM     27  C   UNL     1      34.159 -10.265 -24.003  0.00  0.00    +0.065 C 
ATOM     28  C   UNL     1      34.209 -10.487 -25.489  0.00  0.00    +0.122 C 
ATOM     29  C   UNL     1      33.619 -12.308 -24.456  0.00  0.00    +0.072 C 
ATOM     30  C   UNL     1      34.754  -9.064 -23.476  0.00  0.00    -0.020 C 
ATOM     31  C   UNL     1      35.497  -9.988 -26.082  0.00  0.00    -0.004 C 
ATOM     32  C   UNL     1      35.715  -8.455 -24.196  0.00  0.00    -0.004 C 
ATOM     33  C   UNL     1      36.181  -9.009 -25.460  0.00  0.00    -0.003 C 
ENDBRANCH  24  26
ENDBRANCH  19  24
ENDBRANCH  18  19
ENDBRANCH   1  18
TORSDOF 7
ENDMDL
MODEL 6
REMARK VINA RESULT:     -11.7      1.773      9.729
REMARK  Name = 49866474
REMARK  7 active torsions:
REMARK  status: ('A' for Active; 'I' for Inactive)
REMARK    1  A    between atoms: O_1  and  C_3
REMARK    2  A    between atoms: O_1  and  C_18
REMARK    3  A    between atoms: C_4  and  C_10
REMARK    4  A    between atoms: C_18  and  C_19
REMARK    5  A    between atoms: C_19  and  N_20
REMARK    6  A    between atoms: C_19  and  C_24
REMARK    7  A    between atoms: C_24  and  C_26
REMARK                            x       y       z     vdW  Elec       q    Type
REMARK                         _______ _______ _______ _____ _____    ______ ____
ROOT
ATOM      1  O   UNL     1      33.128 -21.634 -18.255  0.00  0.00    -0.476 OA
ENDROOT
BRANCH   1   3
ATOM      2  N   UNL     1      31.428 -22.673 -15.186  0.00  0.00    -0.239 NA
ATOM      3  C   UNL     1      32.942 -22.139 -16.995  0.00  0.00    +0.158 C 
ATOM      4  C   UNL     1      33.793 -23.129 -14.974  0.00  0.00    +0.022 C 
ATOM      5  C   UNL     1      34.013 -22.621 -16.250  0.00  0.00    +0.040 C 
ATOM      6  C   UNL     1      31.681 -22.187 -16.422  0.00  0.00    +0.136 C 
ATOM      7  C   UNL     1      32.494 -23.133 -14.493  0.00  0.00    +0.099 C 
BRANCH   4  10
ATOM      8  N   UNL     1      37.894 -24.905 -11.702  0.00  0.00    -0.236 N 
ATOM      9  N   UNL     1      37.706 -24.234 -10.553  0.00  0.00    -0.180 NA
ATOM     10  C   UNL     1      34.885 -23.637 -14.177  0.00  0.00    +0.002 C 
ATOM     11  C   UNL     1      36.121 -23.680 -12.107  0.00  0.00    +0.035 C 
ATOM     12  C   UNL     1      35.052 -23.175 -12.865  0.00  0.00    +0.003 C 
ATOM     13  C   UNL     1      36.976 -24.618 -12.676  0.00  0.00    +0.067 C 
ATOM     14  C   UNL     1      35.758 -24.579 -14.723  0.00  0.00    +0.001 C 
ATOM     15  C   UNL     1      36.827 -25.091 -13.981  0.00  0.00    +0.016 C 
ATOM     16  C   UNL     1      36.627 -23.491 -10.804  0.00  0.00    +0.119 C 
ATOM     17  H   UNL     1      38.628 -25.548 -11.832  0.00  0.00    +0.174 HD
ENDBRANCH   4  10
ENDBRANCH   1   3
BRANCH   1  18
ATOM     18  C   UNL     1      34.424 -21.780 -18.821  0.00  0.00    +0.184 C 
BRANCH  18  19
ATOM     19  C   UNL     1      34.984 -20.416 -19.237  0.00  0.00    -0.017 C 
BRANCH  19  20
ATOM     20  N   UNL     1      36.359 -20.608 -19.708  0.00  0.00    +0.384 N 
ATOM     21  H   UNL     1      36.765 -19.705 -19.952  0.00  0.00    -0.089 HD
ATOM     22  H   UNL     1      36.356 -21.213 -20.528  0.00  0.00    -0.089 HD
ATOM     23  H   UNL     1      36.914 -21.041 -18.969  0.00  0.00    -0.089 HD
ENDBRANCH  19  20
BRANCH  19  24
ATOM     24  C   UNL     1      34.158 -19.734 -20.355  0.00  0.00    +0.006 C 
BRANCH  24  26
ATOM     25  N   UNL     1      35.726 -16.390 -21.043  0.00  0.00    -0.234 NA
ATOM     26  C   UNL     1      34.836 -18.605 -21.020  0.00  0.00    -0.024 C 
ATOM     27  C   UNL     1      34.995 -18.246 -22.293  0.00  0.00    +0.065 C 
ATOM     28  C   UNL     1      35.721 -16.936 -22.416  0.00  0.00    +0.122 C 
ATOM     29  C   UNL     1      35.300 -17.393 -20.331  0.00  0.00    +0.072 C 
ATOM     30  C   UNL     1      34.447 -18.832 -23.490  0.00  0.00    -0.020 C 
ATOM     31  C   UNL     1      35.085 -16.042 -23.442  0.00  0.00    -0.004 C 
ATOM     32  C   UNL     1      34.168 -18.024 -24.530  0.00  0.00    -0.004 C 
ATOM     33  C   UNL     1      34.371 -16.584 -24.447  0.00  0.00    -0.003 C 
ENDBRANCH  24  26
ENDBRANCH  19  24
ENDBRANCH  18  19
ENDBRANCH   1  18
TORSDOF 7
ENDMDL
MODEL 7
REMARK VINA RESULT:     -11.5      1.317      2.118
REMARK  Name = 49866474
REMARK  7 active torsions:
REMARK  status: ('A' for Active; 'I' for Inactive)
REMARK    1  A    between atoms: O_1  and  C_3
REMARK    2  A    between atoms: O_1  and  C_18
REMARK    3  A    between atoms: C_4  and  C_10
REMARK    4  A    between atoms: C_18  and  C_19
REMARK    5  A    between atoms: C_19  and  N_20
REMARK    6  A    between atoms: C_19  and  C_24
REMARK    7  A    between atoms: C_24  and  C_26
REMARK                            x       y       z     vdW  Elec       q    Type
REMARK                         _______ _______ _______ _____ _____    ______ ____
ROOT
ATOM      1  O   UNL     1      35.393 -24.113 -14.938  0.00  0.00    -0.476 OA
ENDROOT
BRANCH   1   3
ATOM      2  N   UNL     1      37.863 -21.465 -15.463  0.00  0.00    -0.239 NA
ATOM      3  C   UNL     1      36.023 -23.034 -15.501  0.00  0.00    +0.158 C 
ATOM      4  C   UNL     1      36.173 -21.324 -17.186  0.00  0.00    +0.022 C 
ATOM      5  C   UNL     1      35.511 -22.416 -16.637  0.00  0.00    +0.040 C 
ATOM      6  C   UNL     1      37.192 -22.524 -14.957  0.00  0.00    +0.136 C 
ATOM      7  C   UNL     1      37.335 -20.891 -16.568  0.00  0.00    +0.099 C 
BRANCH   4  10
ATOM      8  N   UNL     1      34.488 -18.663 -21.742  0.00  0.00    -0.236 N 
ATOM      9  N   UNL     1      35.577 -17.987 -22.145  0.00  0.00    -0.180 NA
ATOM     10  C   UNL     1      35.666 -20.662 -18.365  0.00  0.00    +0.002 C 
ATOM     11  C   UNL     1      36.002 -19.194 -20.248  0.00  0.00    +0.035 C 
ATOM     12  C   UNL     1      36.516 -19.829 -19.106  0.00  0.00    +0.003 C 
ATOM     13  C   UNL     1      34.677 -19.407 -20.609  0.00  0.00    +0.067 C 
ATOM     14  C   UNL     1      34.340 -20.859 -18.751  0.00  0.00    +0.001 C 
ATOM     15  C   UNL     1      33.814 -20.232 -19.885  0.00  0.00    +0.016 C 
ATOM     16  C   UNL     1      36.496 -18.312 -21.234  0.00  0.00    +0.119 C 
ATOM     17  H   UNL     1      33.629 -18.627 -22.221  0.00  0.00    +0.174 HD
ENDBRANCH   4  10
ENDBRANCH   1   3
BRANCH   1  18
ATOM     18  C   UNL     1      34.122 -23.877 -14.347  0.00  0.00    +0.184 C 
BRANCH  18  19
ATOM     19  C   UNL     1      34.275 -23.070 -13.052  0.00  0.00    -0.017 C 
BRANCH  19  20
ATOM     20  N   UNL     1      32.957 -22.545 -12.681  0.00  0.00    +0.384 N 
ATOM     21  H   UNL     1      32.271 -22.819 -13.384  0.00  0.00    -0.089 HD
ATOM     22  H   UNL     1      33.000 -21.528 -12.625  0.00  0.00    -0.089 HD
ATOM     23  H   UNL     1      32.684 -22.924 -11.774  0.00  0.00    -0.089 HD
ENDBRANCH  19  20
BRANCH  19  24
ATOM     24  C   UNL     1      34.835 -23.906 -11.876  0.00  0.00    +0.006 C 
BRANCH  24  26
ATOM     25  N   UNL     1      38.248 -22.463 -11.260  0.00  0.00    -0.234 NA
ATOM     26  C   UNL     1      36.287 -23.764 -11.657  0.00  0.00    -0.024 C 
ATOM     27  C   UNL     1      37.343 -24.520 -11.957  0.00  0.00    +0.065 C 
ATOM     28  C   UNL     1      38.633 -23.856 -11.567  0.00  0.00    +0.122 C 
ATOM     29  C   UNL     1      36.948 -22.516 -11.252  0.00  0.00    +0.072 C 
ATOM     30  C   UNL     1      37.412 -25.745 -12.712  0.00  0.00    -0.020 C 
ATOM     31  C   UNL     1      39.676 -23.995 -12.640  0.00  0.00    -0.004 C 
ATOM     32  C   UNL     1      38.519 -25.989 -13.438  0.00  0.00    -0.004 C 
ATOM     33  C   UNL     1      39.611 -25.027 -13.501  0.00  0.00    -0.003 C 
ENDBRANCH  24  26
ENDBRANCH  19  24
ENDBRANCH  18  19
ENDBRANCH   1  18
TORSDOF 7
ENDMDL
MODEL 8
REMARK VINA RESULT:     -11.4      2.510      4.477
REMARK  Name = 49866474
REMARK  7 active torsions:
REMARK  status: ('A' for Active; 'I' for Inactive)
REMARK    1  A    between atoms: O_1  and  C_3
REMARK    2  A    between atoms: O_1  and  C_18
REMARK    3  A    between atoms: C_4  and  C_10
REMARK    4  A    between atoms: C_18  and  C_19
REMARK    5  A    between atoms: C_19  and  N_20
REMARK    6  A    between atoms: C_19  and  C_24
REMARK    7  A    between atoms: C_24  and  C_26
REMARK                            x       y       z     vdW  Elec       q    Type
REMARK                         _______ _______ _______ _____ _____    ______ ____
ROOT
ATOM      1  O   UNL     1      36.388 -21.657 -17.672  0.00  0.00    -0.476 OA
ENDROOT
BRANCH   1   3
ATOM      2  N   UNL     1      33.066 -21.165 -19.125  0.00  0.00    -0.239 NA
ATOM      3  C   UNL     1      35.391 -21.143 -18.460  0.00  0.00    +0.158 C 
ATOM      4  C   UNL     1      34.615 -19.617 -20.150  0.00  0.00    +0.022 C 
ATOM      5  C   UNL     1      35.647 -20.119 -19.365  0.00  0.00    +0.040 C 
ATOM      6  C   UNL     1      34.094 -21.627 -18.379  0.00  0.00    +0.136 C 
ATOM      7  C   UNL     1      33.354 -20.169 -19.993  0.00  0.00    +0.099 C 
BRANCH   4  10
ATOM      8  N   UNL     1      35.379 -15.697 -23.987  0.00  0.00    -0.236 N 
ATOM      9  N   UNL     1      34.780 -16.193 -25.083  0.00  0.00    -0.180 NA
ATOM     10  C   UNL     1      34.850 -18.554 -21.098  0.00  0.00    +0.002 C 
ATOM     11  C   UNL     1      34.610 -17.637 -23.316  0.00  0.00    +0.035 C 
ATOM     12  C   UNL     1      34.369 -18.682 -22.409  0.00  0.00    +0.003 C 
ATOM     13  C   UNL     1      35.313 -16.515 -22.892  0.00  0.00    +0.067 C 
ATOM     14  C   UNL     1      35.553 -17.417 -20.700  0.00  0.00    +0.001 C 
ATOM     15  C   UNL     1      35.801 -16.368 -21.592  0.00  0.00    +0.016 C 
ATOM     16  C   UNL     1      34.313 -17.373 -24.670  0.00  0.00    +0.119 C 
ATOM     17  H   UNL     1      35.827 -14.820 -23.973  0.00  0.00    +0.174 HD
ENDBRANCH   4  10
ENDBRANCH   1   3
BRANCH   1  18
ATOM     18  C   UNL     1      36.374 -21.290 -16.299  0.00  0.00    +0.184 C 
BRANCH  18  19
ATOM     19  C   UNL     1      36.484 -22.535 -15.411  0.00  0.00    -0.017 C 
BRANCH  19  20
ATOM     20  N   UNL     1      36.651 -22.094 -14.022  0.00  0.00    +0.384 N 
ATOM     21  H   UNL     1      36.632 -21.075 -13.984  0.00  0.00    -0.089 HD
ATOM     22  H   UNL     1      37.543 -22.432 -13.664  0.00  0.00    -0.089 HD
ATOM     23  H   UNL     1      35.891 -22.469 -13.453  0.00  0.00    -0.089 HD
ENDBRANCH  19  20
BRANCH  19  24
ATOM     24  C   UNL     1      35.245 -23.459 -15.502  0.00  0.00    +0.006 C 
BRANCH  24  26
ATOM     25  N   UNL     1      33.094 -23.416 -12.422  0.00  0.00    -0.234 NA
ATOM     26  C   UNL     1      34.176 -23.151 -14.534  0.00  0.00    -0.024 C 
ATOM     27  C   UNL     1      32.938 -22.669 -14.649  0.00  0.00    +0.065 C 
ATOM     28  C   UNL     1      32.233 -22.623 -13.323  0.00  0.00    +0.122 C 
ATOM     29  C   UNL     1      34.168 -23.597 -13.134  0.00  0.00    +0.072 C 
ATOM     30  C   UNL     1      32.177 -22.363 -15.833  0.00  0.00    -0.020 C 
ATOM     31  C   UNL     1      30.817 -23.115 -13.429  0.00  0.00    -0.004 C 
ATOM     32  C   UNL     1      30.841 -22.526 -15.797  0.00  0.00    -0.004 C 
ATOM     33  C   UNL     1      30.172 -23.039 -14.609  0.00  0.00    -0.003 C 
ENDBRANCH  24  26
ENDBRANCH  19  24
ENDBRANCH  18  19
ENDBRANCH   1  18
TORSDOF 7
ENDMDL
MODEL 9
REMARK VINA RESULT:     -11.4      4.847      8.770
REMARK  Name = 49866474
REMARK  7 active torsions:
REMARK  status: ('A' for Active; 'I' for Inactive)
REMARK    1  A    between atoms: O_1  and  C_3
REMARK    2  A    between atoms: O_1  and  C_18
REMARK    3  A    between atoms: C_4  and  C_10
REMARK    4  A    between atoms: C_18  and  C_19
REMARK    5  A    between atoms: C_19  and  N_20
REMARK    6  A    between atoms: C_19  and  C_24
REMARK    7  A    between atoms: C_24  and  C_26
REMARK                            x       y       z     vdW  Elec       q    Type
REMARK                         _______ _______ _______ _____ _____    ______ ____
ROOT
ATOM      1  O   UNL     1      35.827 -16.914 -22.679  0.00  0.00    -0.476 OA
ENDROOT
BRANCH   1   3
ATOM      2  N   UNL     1      34.083 -15.296 -25.459  0.00  0.00    -0.239 NA
ATOM      3  C   UNL     1      35.113 -15.978 -23.380  0.00  0.00    +0.158 C 
ATOM      4  C   UNL     1      33.971 -13.864 -23.513  0.00  0.00    +0.022 C 
ATOM      5  C   UNL     1      34.695 -14.796 -22.777  0.00  0.00    +0.040 C 
ATOM      6  C   UNL     1      34.785 -16.177 -24.711  0.00  0.00    +0.136 C 
ATOM      7  C   UNL     1      33.693 -14.159 -24.838  0.00  0.00    +0.099 C 
BRANCH   4  10
ATOM      8  N   UNL     1      32.114  -9.281 -21.019  0.00  0.00    -0.236 N 
ATOM      9  N   UNL     1      31.412  -9.744 -19.970  0.00  0.00    -0.180 NA
ATOM     10  C   UNL     1      33.523 -12.629 -22.915  0.00  0.00    +0.002 C 
ATOM     11  C   UNL     1      32.306 -11.458 -21.193  0.00  0.00    +0.035 C 
ATOM     12  C   UNL     1      32.733 -12.671 -21.758  0.00  0.00    +0.003 C 
ATOM     13  C   UNL     1      32.676 -10.260 -21.793  0.00  0.00    +0.067 C 
ATOM     14  C   UNL     1      33.879 -11.412 -23.497  0.00  0.00    +0.001 C 
ATOM     15  C   UNL     1      33.461 -10.196 -22.946  0.00  0.00    +0.016 C 
ATOM     16  C   UNL     1      31.532 -11.068 -20.080  0.00  0.00    +0.119 C 
ATOM     17  H   UNL     1      32.215  -8.322 -21.213  0.00  0.00    +0.174 HD
ENDBRANCH   4  10
ENDBRANCH   1   3
BRANCH   1  18
ATOM     18  C   UNL     1      35.290 -18.230 -22.636  0.00  0.00    +0.184 C 
BRANCH  18  19
ATOM     19  C   UNL     1      35.685 -18.927 -21.329  0.00  0.00    -0.017 C 
BRANCH  19  20
ATOM     20  N   UNL     1      36.926 -18.318 -20.840  0.00  0.00    +0.384 N 
ATOM     21  H   UNL     1      37.518 -18.069 -21.633  0.00  0.00    -0.089 HD
ATOM     22  H   UNL     1      37.418 -18.981 -20.243  0.00  0.00    -0.089 HD
ATOM     23  H   UNL     1      36.704 -17.478 -20.306  0.00  0.00    -0.089 HD
ENDBRANCH  19  20
BRANCH  19  24
ATOM     24  C   UNL     1      34.601 -18.818 -20.229  0.00  0.00    +0.006 C 
BRANCH  24  26
ATOM     25  N   UNL     1      32.938 -21.603 -18.334  0.00  0.00    -0.234 NA
ATOM     26  C   UNL     1      34.360 -20.063 -19.477  0.00  0.00    -0.024 C 
ATOM     27  C   UNL     1      35.134 -20.856 -18.736  0.00  0.00    +0.065 C 
ATOM     28  C   UNL     1      34.350 -21.980 -18.118  0.00  0.00    +0.122 C 
ATOM     29  C   UNL     1      33.030 -20.593 -19.151  0.00  0.00    +0.072 C 
ATOM     30  C   UNL     1      36.509 -20.691 -18.340  0.00  0.00    -0.020 C 
ATOM     31  C   UNL     1      34.727 -22.194 -16.679  0.00  0.00    -0.004 C 
ATOM     32  C   UNL     1      36.896 -21.179 -17.146  0.00  0.00    -0.004 C 
ATOM     33  C   UNL     1      35.948 -21.825 -16.248  0.00  0.00    -0.003 C 
ENDBRANCH  24  26
ENDBRANCH  19  24
ENDBRANCH  18  19
ENDBRANCH   1  18
TORSDOF 7
ENDMDL
