MODEL 1
REMARK VINA RESULT:     -11.4      0.000      0.000
REMARK  Name = 6852140
REMARK  4 active torsions:
REMARK  status: ('A' for Active; 'I' for Inactive)
REMARK    1  A    between atoms: C_2  and  N_18
REMARK    2  A    between atoms: C_5  and  C_13
REMARK    3  A    between atoms: C_19  and  C_21
REMARK    4  A    between atoms: C_24  and  O_28
REMARK                            x       y       z     vdW  Elec       q    Type
REMARK                         _______ _______ _______ _____ _____    ______ ____
ROOT
ATOM      1  C   UNL     1      31.920 -23.069 -15.050  0.00  0.00    +0.014 C 
ATOM      2  C   UNL     1      33.222 -22.699 -15.430  0.00  0.00    +0.050 C 
ATOM      3  C   UNL     1      31.742 -23.923 -13.935  0.00  0.00    +0.001 C 
ATOM      4  C   UNL     1      30.794 -22.612 -15.754  0.00  0.00    +0.004 C 
ATOM      5  C   UNL     1      29.510 -22.990 -15.363  0.00  0.00    +0.031 C 
ATOM      6  C   UNL     1      30.440 -24.292 -13.556  0.00  0.00    +0.000 C 
ATOM      7  C   UNL     1      34.329 -23.164 -14.720  0.00  0.00    +0.015 C 
ATOM      8  C   UNL     1      32.868 -24.379 -13.232  0.00  0.00    +0.000 C 
ATOM      9  C   UNL     1      29.333 -23.828 -14.266  0.00  0.00    +0.003 C 
ATOM     10  C   UNL     1      34.152 -24.002 -13.624  0.00  0.00    +0.001 C 
ENDROOT
BRANCH   5  13
ATOM     11  N   UNL     1      27.509 -21.534 -15.570  0.00  0.00    -0.343 N 
ATOM     12  N   UNL     1      28.082 -23.001 -17.296  0.00  0.00    -0.285 NA
ATOM     13  C   UNL     1      28.353 -22.508 -16.100  0.00  0.00    +0.117 C 
ATOM     14  H   UNL     1      26.731 -21.222 -16.086  0.00  0.00    +0.144 HD
ATOM     15  H   UNL     1      27.691 -21.156 -14.679  0.00  0.00    +0.144 HD
ATOM     16  H   UNL     1      27.300 -22.675 -17.797  0.00  0.00    +0.188 HD
ENDBRANCH   5  13
BRANCH   2  18
ATOM     17  O   UNL     1      33.922 -23.431 -18.181  0.00  0.00    -0.270 OA
ATOM     18  N   UNL     1      33.460 -21.859 -16.525  0.00  0.00    -0.280 N 
ATOM     19  C   UNL     1      33.791 -22.265 -17.817  0.00  0.00    +0.249 C 
ATOM     20  H   UNL     1      33.388 -20.890 -16.367  0.00  0.00    +0.155 HD
BRANCH  19  21
ATOM     21  C   UNL     1      34.033 -21.151 -18.753  0.00  0.00    +0.053 C 
ATOM     22  C   UNL     1      35.293 -20.586 -18.866  0.00  0.00    +0.016 C 
ATOM     23  C   UNL     1      32.967 -20.691 -19.511  0.00  0.00    +0.004 C 
ATOM     24  C   UNL     1      35.493 -19.533 -19.759  0.00  0.00    +0.130 C 
ATOM     25  C   UNL     1      36.439 -21.087 -18.046  0.00  0.00    +0.034 C 
ATOM     26  C   UNL     1      33.166 -19.639 -20.404  0.00  0.00    +0.003 C 
ATOM     27  C   UNL     1      34.429 -19.059 -20.528  0.00  0.00    +0.036 C 
BRANCH  24  28
ATOM     28  O   UNL     1      36.719 -18.954 -19.895  0.00  0.00    -0.506 OA
ATOM     29  H   UNL     1      36.987 -18.616 -20.727  0.00  0.00    +0.292 HD
ENDBRANCH  24  28
ENDBRANCH  19  21
ENDBRANCH   2  18
TORSDOF 4
ENDMDL
MODEL 2
REMARK VINA RESULT:     -11.2      3.188      5.965
REMARK  Name = 6852140
REMARK  4 active torsions:
REMARK  status: ('A' for Active; 'I' for Inactive)
REMARK    1  A    between atoms: C_2  and  N_18
REMARK    2  A    between atoms: C_5  and  C_13
REMARK    3  A    between atoms: C_19  and  C_21
REMARK    4  A    between atoms: C_24  and  O_28
REMARK                            x       y       z     vdW  Elec       q    Type
REMARK                         _______ _______ _______ _____ _____    ______ ____
ROOT
ATOM      1  C   UNL     1      32.521 -23.202 -14.882  0.00  0.00    +0.014 C 
ATOM      2  C   UNL     1      33.059 -23.901 -13.788  0.00  0.00    +0.050 C 
ATOM      3  C   UNL     1      31.132 -22.929 -14.912  0.00  0.00    +0.001 C 
ATOM      4  C   UNL     1      33.329 -22.771 -15.947  0.00  0.00    +0.004 C 
ATOM      5  C   UNL     1      32.777 -22.080 -17.025  0.00  0.00    +0.031 C 
ATOM      6  C   UNL     1      30.594 -22.231 -16.006  0.00  0.00    +0.000 C 
ATOM      7  C   UNL     1      32.240 -24.323 -12.740  0.00  0.00    +0.015 C 
ATOM      8  C   UNL     1      30.324 -23.360 -13.848  0.00  0.00    +0.000 C 
ATOM      9  C   UNL     1      31.412 -21.809 -17.054  0.00  0.00    +0.003 C 
ATOM     10  C   UNL     1      30.876 -24.053 -12.770  0.00  0.00    +0.001 C 
ENDROOT
BRANCH   5  13
ATOM     11  N   UNL     1      33.085 -21.179 -19.318  0.00  0.00    -0.343 N 
ATOM     12  N   UNL     1      34.941 -21.676 -17.988  0.00  0.00    -0.285 NA
ATOM     13  C   UNL     1      33.627 -21.639 -18.119  0.00  0.00    +0.117 C 
ATOM     14  H   UNL     1      33.680 -20.886 -20.046  0.00  0.00    +0.144 HD
ATOM     15  H   UNL     1      32.108 -21.146 -19.437  0.00  0.00    +0.144 HD
ATOM     16  H   UNL     1      35.518 -21.378 -18.728  0.00  0.00    +0.188 HD
ENDBRANCH   5  13
BRANCH   2  18
ATOM     17  O   UNL     1      34.999 -23.054 -11.759  0.00  0.00    -0.270 OA
ATOM     18  N   UNL     1      34.425 -24.201 -13.704  0.00  0.00    -0.280 N 
ATOM     19  C   UNL     1      35.303 -23.769 -12.711  0.00  0.00    +0.249 C 
ATOM     20  H   UNL     1      34.800 -24.772 -14.414  0.00  0.00    +0.155 HD
BRANCH  19  21
ATOM     21  C   UNL     1      36.697 -24.204 -12.912  0.00  0.00    +0.053 C 
ATOM     22  C   UNL     1      37.479 -23.634 -13.904  0.00  0.00    +0.016 C 
ATOM     23  C   UNL     1      37.198 -25.195 -12.081  0.00  0.00    +0.004 C 
ATOM     24  C   UNL     1      38.795 -24.066 -14.071  0.00  0.00    +0.130 C 
ATOM     25  C   UNL     1      36.933 -22.565 -14.796  0.00  0.00    +0.034 C 
ATOM     26  C   UNL     1      38.514 -25.627 -12.248  0.00  0.00    +0.003 C 
ATOM     27  C   UNL     1      39.312 -25.062 -13.243  0.00  0.00    +0.036 C 
BRANCH  24  28
ATOM     28  O   UNL     1      39.591 -23.526 -15.037  0.00  0.00    -0.506 OA
ATOM     29  H   UNL     1      40.399 -23.942 -15.263  0.00  0.00    +0.292 HD
ENDBRANCH  24  28
ENDBRANCH  19  21
ENDBRANCH   2  18
TORSDOF 4
ENDMDL
MODEL 3
REMARK VINA RESULT:     -10.8      1.874      4.372
REMARK  Name = 6852140
REMARK  4 active torsions:
REMARK  status: ('A' for Active; 'I' for Inactive)
REMARK    1  A    between atoms: C_2  and  N_18
REMARK    2  A    between atoms: C_5  and  C_13
REMARK    3  A    between atoms: C_19  and  C_21
REMARK    4  A    between atoms: C_24  and  O_28
REMARK                            x       y       z     vdW  Elec       q    Type
REMARK                         _______ _______ _______ _____ _____    ______ ____
ROOT
ATOM      1  C   UNL     1      33.661 -22.912 -14.835  0.00  0.00    +0.014 C 
ATOM      2  C   UNL     1      32.763 -22.456 -15.814  0.00  0.00    +0.050 C 
ATOM      3  C   UNL     1      33.182 -23.734 -13.787  0.00  0.00    +0.001 C 
ATOM      4  C   UNL     1      35.022 -22.568 -14.871  0.00  0.00    +0.004 C 
ATOM      5  C   UNL     1      35.899 -23.030 -13.889  0.00  0.00    +0.031 C 
ATOM      6  C   UNL     1      34.080 -24.190 -12.807  0.00  0.00    +0.000 C 
ATOM      7  C   UNL     1      31.414 -22.806 -15.762  0.00  0.00    +0.015 C 
ATOM      8  C   UNL     1      31.821 -24.078 -13.750  0.00  0.00    +0.000 C 
ATOM      9  C   UNL     1      35.429 -23.839 -12.859  0.00  0.00    +0.003 C 
ATOM     10  C   UNL     1      30.944 -23.615 -14.732  0.00  0.00    +0.001 C 
ENDROOT
BRANCH   5  13
ATOM     11  N   UNL     1      38.009 -22.657 -15.144  0.00  0.00    -0.343 N 
ATOM     12  N   UNL     1      37.943 -22.342 -12.830  0.00  0.00    -0.285 NA
ATOM     13  C   UNL     1      37.306 -22.666 -13.941  0.00  0.00    +0.117 C 
ATOM     14  H   UNL     1      38.961 -22.409 -15.156  0.00  0.00    +0.144 HD
ATOM     15  H   UNL     1      37.553 -22.899 -15.983  0.00  0.00    +0.144 HD
ATOM     16  H   UNL     1      38.896 -22.095 -12.863  0.00  0.00    +0.188 HD
ENDBRANCH   5  13
BRANCH   2  18
ATOM     17  O   UNL     1      33.938 -23.244 -18.383  0.00  0.00    -0.270 OA
ATOM     18  N   UNL     1      33.179 -21.639 -16.874  0.00  0.00    -0.280 N 
ATOM     19  C   UNL     1      33.733 -22.071 -18.078  0.00  0.00    +0.249 C 
ATOM     20  H   UNL     1      33.070 -20.667 -16.757  0.00  0.00    +0.155 HD
BRANCH  19  21
ATOM     21  C   UNL     1      34.122 -20.977 -18.987  0.00  0.00    +0.053 C 
ATOM     22  C   UNL     1      35.419 -20.490 -18.991  0.00  0.00    +0.016 C 
ATOM     23  C   UNL     1      33.154 -20.456 -19.833  0.00  0.00    +0.004 C 
ATOM     24  C   UNL     1      35.758 -19.454 -19.861  0.00  0.00    +0.130 C 
ATOM     25  C   UNL     1      36.457 -21.057 -18.076  0.00  0.00    +0.034 C 
ATOM     26  C   UNL     1      33.493 -19.421 -20.703  0.00  0.00    +0.003 C 
ATOM     27  C   UNL     1      34.795 -18.919 -20.718  0.00  0.00    +0.036 C 
BRANCH  24  28
ATOM     28  O   UNL     1      37.024 -18.951 -19.890  0.00  0.00    -0.506 OA
ATOM     29  H   UNL     1      37.318 -18.468 -20.637  0.00  0.00    +0.292 HD
ENDBRANCH  24  28
ENDBRANCH  19  21
ENDBRANCH   2  18
TORSDOF 4
ENDMDL
MODEL 4
REMARK VINA RESULT:     -10.8      3.369      6.191
REMARK  Name = 6852140
REMARK  4 active torsions:
REMARK  status: ('A' for Active; 'I' for Inactive)
REMARK    1  A    between atoms: C_2  and  N_18
REMARK    2  A    between atoms: C_5  and  C_13
REMARK    3  A    between atoms: C_19  and  C_21
REMARK    4  A    between atoms: C_24  and  O_28
REMARK                            x       y       z     vdW  Elec       q    Type
REMARK                         _______ _______ _______ _____ _____    ______ ____
ROOT
ATOM      1  C   UNL     1      33.433 -22.404 -15.863  0.00  0.00    +0.014 C 
ATOM      2  C   UNL     1      34.822 -22.259 -16.018  0.00  0.00    +0.050 C 
ATOM      3  C   UNL     1      32.576 -22.032 -16.926  0.00  0.00    +0.001 C 
ATOM      4  C   UNL     1      32.876 -22.907 -14.675  0.00  0.00    +0.004 C 
ATOM      5  C   UNL     1      31.494 -23.043 -14.539  0.00  0.00    +0.031 C 
ATOM      6  C   UNL     1      31.187 -22.176 -16.771  0.00  0.00    +0.000 C 
ATOM      7  C   UNL     1      35.357 -21.757 -17.204  0.00  0.00    +0.015 C 
ATOM      8  C   UNL     1      33.133 -21.529 -18.114  0.00  0.00    +0.000 C 
ATOM      9  C   UNL     1      30.651 -22.679 -15.585  0.00  0.00    +0.003 C 
ATOM     10  C   UNL     1      34.514 -21.392 -18.249  0.00  0.00    +0.001 C 
ENDROOT
BRANCH   5  13
ATOM     11  N   UNL     1      29.999 -24.601 -13.314  0.00  0.00    -0.343 N 
ATOM     12  N   UNL     1      31.303 -23.055 -12.144  0.00  0.00    -0.285 NA
ATOM     13  C   UNL     1      30.933 -23.566 -13.304  0.00  0.00    +0.117 C 
ATOM     14  H   UNL     1      29.631 -24.940 -12.466  0.00  0.00    +0.144 HD
ATOM     15  H   UNL     1      29.708 -24.994 -14.169  0.00  0.00    +0.144 HD
ATOM     16  H   UNL     1      30.924 -23.408 -11.307  0.00  0.00    +0.188 HD
ENDBRANCH   5  13
BRANCH   2  18
ATOM     17  O   UNL     1      35.750 -24.927 -15.232  0.00  0.00    -0.270 OA
ATOM     18  N   UNL     1      35.718 -22.609 -15.000  0.00  0.00    -0.280 N 
ATOM     19  C   UNL     1      36.125 -23.901 -14.670  0.00  0.00    +0.249 C 
ATOM     20  H   UNL     1      36.097 -21.873 -14.467  0.00  0.00    +0.155 HD
BRANCH  19  21
ATOM     21  C   UNL     1      37.042 -23.966 -13.517  0.00  0.00    +0.053 C 
ATOM     22  C   UNL     1      36.563 -23.816 -12.225  0.00  0.00    +0.016 C 
ATOM     23  C   UNL     1      38.389 -24.180 -13.765  0.00  0.00    +0.004 C 
ATOM     24  C   UNL     1      37.453 -23.882 -11.154  0.00  0.00    +0.130 C 
ATOM     25  C   UNL     1      35.109 -23.586 -11.965  0.00  0.00    +0.034 C 
ATOM     26  C   UNL     1      39.280 -24.246 -12.693  0.00  0.00    +0.003 C 
ATOM     27  C   UNL     1      38.812 -24.096 -11.387  0.00  0.00    +0.036 C 
BRANCH  24  28
ATOM     28  O   UNL     1      37.016 -23.738  -9.870  0.00  0.00    -0.506 OA
ATOM     29  H   UNL     1      37.626 -23.542  -9.188  0.00  0.00    +0.292 HD
ENDBRANCH  24  28
ENDBRANCH  19  21
ENDBRANCH   2  18
TORSDOF 4
ENDMDL
MODEL 5
REMARK VINA RESULT:     -10.4      2.164      4.593
REMARK  Name = 6852140
REMARK  4 active torsions:
REMARK  status: ('A' for Active; 'I' for Inactive)
REMARK    1  A    between atoms: C_2  and  N_18
REMARK    2  A    between atoms: C_5  and  C_13
REMARK    3  A    between atoms: C_19  and  C_21
REMARK    4  A    between atoms: C_24  and  O_28
REMARK                            x       y       z     vdW  Elec       q    Type
REMARK                         _______ _______ _______ _____ _____    ______ ____
ROOT
ATOM      1  C   UNL     1      33.710 -22.742 -14.874  0.00  0.00    +0.014 C 
ATOM      2  C   UNL     1      33.119 -22.257 -16.052  0.00  0.00    +0.050 C 
ATOM      3  C   UNL     1      32.929 -23.505 -13.973  0.00  0.00    +0.001 C 
ATOM      4  C   UNL     1      35.056 -22.486 -14.569  0.00  0.00    +0.004 C 
ATOM      5  C   UNL     1      35.626 -22.975 -13.394  0.00  0.00    +0.031 C 
ATOM      6  C   UNL     1      33.520 -23.991 -12.794  0.00  0.00    +0.000 C 
ATOM      7  C   UNL     1      31.779 -22.521 -16.338  0.00  0.00    +0.015 C 
ATOM      8  C   UNL     1      31.582 -23.762 -14.277  0.00  0.00    +0.000 C 
ATOM      9  C   UNL     1      34.860 -23.727 -12.508  0.00  0.00    +0.003 C 
ATOM     10  C   UNL     1      31.013 -23.272 -15.452  0.00  0.00    +0.001 C 
ENDROOT
BRANCH   5  13
ATOM     11  N   UNL     1      37.465 -22.558 -11.779  0.00  0.00    -0.343 N 
ATOM     12  N   UNL     1      37.896 -22.581 -14.075  0.00  0.00    -0.285 NA
ATOM     13  C   UNL     1      37.022 -22.702 -13.092  0.00  0.00    +0.117 C 
ATOM     14  H   UNL     1      38.415 -22.373 -11.598  0.00  0.00    +0.144 HD
ATOM     15  H   UNL     1      36.829 -22.642 -11.032  0.00  0.00    +0.144 HD
ATOM     16  H   UNL     1      38.842 -22.396 -13.873  0.00  0.00    +0.188 HD
ENDBRANCH   5  13
BRANCH   2  18
ATOM     17  O   UNL     1      34.005 -23.008 -18.744  0.00  0.00    -0.270 OA
ATOM     18  N   UNL     1      33.841 -21.495 -16.980  0.00  0.00    -0.280 N 
ATOM     19  C   UNL     1      34.236 -21.906 -18.252  0.00  0.00    +0.249 C 
ATOM     20  H   UNL     1      34.093 -20.583 -16.708  0.00  0.00    +0.155 HD
BRANCH  19  21
ATOM     21  C   UNL     1      35.030 -20.904 -18.987  0.00  0.00    +0.053 C 
ATOM     22  C   UNL     1      34.411 -19.989 -19.824  0.00  0.00    +0.016 C 
ATOM     23  C   UNL     1      36.406 -20.906 -18.815  0.00  0.00    +0.004 C 
ATOM     24  C   UNL     1      35.187 -19.053 -20.507  0.00  0.00    +0.130 C 
ATOM     25  C   UNL     1      32.927 -19.993 -20.005  0.00  0.00    +0.034 C 
ATOM     26  C   UNL     1      37.182 -19.970 -19.498  0.00  0.00    +0.003 C 
ATOM     27  C   UNL     1      36.572 -19.043 -20.344  0.00  0.00    +0.036 C 
BRANCH  24  28
ATOM     28  O   UNL     1      34.610 -18.139 -21.338  0.00  0.00    -0.506 OA
ATOM     29  H   UNL     1      33.799 -18.340 -21.762  0.00  0.00    +0.292 HD
ENDBRANCH  24  28
ENDBRANCH  19  21
ENDBRANCH   2  18
TORSDOF 4
ENDMDL
MODEL 6
REMARK VINA RESULT:     -10.1      3.610      6.687
REMARK  Name = 6852140
REMARK  4 active torsions:
REMARK  status: ('A' for Active; 'I' for Inactive)
REMARK    1  A    between atoms: C_2  and  N_18
REMARK    2  A    between atoms: C_5  and  C_13
REMARK    3  A    between atoms: C_19  and  C_21
REMARK    4  A    between atoms: C_24  and  O_28
REMARK                            x       y       z     vdW  Elec       q    Type
REMARK                         _______ _______ _______ _____ _____    ______ ____
ROOT
ATOM      1  C   UNL     1      33.865 -22.486 -16.076  0.00  0.00    +0.014 C 
ATOM      2  C   UNL     1      34.149 -23.180 -14.887  0.00  0.00    +0.050 C 
ATOM      3  C   UNL     1      32.516 -22.294 -16.459  0.00  0.00    +0.001 C 
ATOM      4  C   UNL     1      34.890 -21.981 -16.893  0.00  0.00    +0.004 C 
ATOM      5  C   UNL     1      34.589 -21.296 -18.069  0.00  0.00    +0.031 C 
ATOM      6  C   UNL     1      32.232 -21.600 -17.647  0.00  0.00    +0.000 C 
ATOM      7  C   UNL     1      33.118 -23.675 -14.088  0.00  0.00    +0.015 C 
ATOM      8  C   UNL     1      31.491 -22.798 -15.641  0.00  0.00    +0.000 C 
ATOM      9  C   UNL     1      33.263 -21.104 -18.446  0.00  0.00    +0.003 C 
ATOM     10  C   UNL     1      31.792 -23.485 -14.465  0.00  0.00    +0.001 C 
ENDROOT
BRANCH   5  13
ATOM     11  N   UNL     1      36.998 -20.907 -18.531  0.00  0.00    -0.343 N 
ATOM     12  N   UNL     1      35.374 -20.166 -20.039  0.00  0.00    -0.285 NA
ATOM     13  C   UNL     1      35.661 -20.778 -18.904  0.00  0.00    +0.117 C 
ATOM     14  H   UNL     1      37.708 -20.548 -19.111  0.00  0.00    +0.144 HD
ATOM     15  H   UNL     1      37.232 -21.357 -17.687  0.00  0.00    +0.144 HD
ATOM     16  H   UNL     1      36.099 -19.815 -20.606  0.00  0.00    +0.188 HD
ENDBRANCH   5  13
BRANCH   2  18
ATOM     17  O   UNL     1      35.734 -25.641 -15.041  0.00  0.00    -0.270 OA
ATOM     18  N   UNL     1      35.464 -23.402 -14.458  0.00  0.00    -0.280 N 
ATOM     19  C   UNL     1      36.170 -24.599 -14.558  0.00  0.00    +0.249 C 
ATOM     20  H   UNL     1      35.933 -22.640 -14.048  0.00  0.00    +0.155 HD
BRANCH  19  21
ATOM     21  C   UNL     1      37.524 -24.548 -13.975  0.00  0.00    +0.053 C 
ATOM     22  C   UNL     1      37.778 -23.782 -12.848  0.00  0.00    +0.016 C 
ATOM     23  C   UNL     1      38.527 -25.285 -14.585  0.00  0.00    +0.004 C 
ATOM     24  C   UNL     1      39.068 -23.752 -12.318  0.00  0.00    +0.130 C 
ATOM     25  C   UNL     1      36.692 -22.989 -12.194  0.00  0.00    +0.034 C 
ATOM     26  C   UNL     1      39.817 -25.255 -14.055  0.00  0.00    +0.003 C 
ATOM     27  C   UNL     1      40.088 -24.488 -12.922  0.00  0.00    +0.036 C 
BRANCH  24  28
ATOM     28  O   UNL     1      39.352 -23.008 -11.211  0.00  0.00    -0.506 OA
ATOM     29  H   UNL     1      38.678 -22.505 -10.800  0.00  0.00    +0.292 HD
ENDBRANCH  24  28
ENDBRANCH  19  21
ENDBRANCH   2  18
TORSDOF 4
ENDMDL
MODEL 7
REMARK VINA RESULT:      -9.9      3.372      6.546
REMARK  Name = 6852140
REMARK  4 active torsions:
REMARK  status: ('A' for Active; 'I' for Inactive)
REMARK    1  A    between atoms: C_2  and  N_18
REMARK    2  A    between atoms: C_5  and  C_13
REMARK    3  A    between atoms: C_19  and  C_21
REMARK    4  A    between atoms: C_24  and  O_28
REMARK                            x       y       z     vdW  Elec       q    Type
REMARK                         _______ _______ _______ _____ _____    ______ ____
ROOT
ATOM      1  C   UNL     1      33.576 -22.588 -16.214  0.00  0.00    +0.014 C 
ATOM      2  C   UNL     1      33.714 -23.426 -15.095  0.00  0.00    +0.050 C 
ATOM      3  C   UNL     1      32.285 -22.151 -16.597  0.00  0.00    +0.001 C 
ATOM      4  C   UNL     1      34.691 -22.175 -16.963  0.00  0.00    +0.004 C 
ATOM      5  C   UNL     1      34.536 -21.344 -18.071  0.00  0.00    +0.031 C 
ATOM      6  C   UNL     1      32.148 -21.313 -17.716  0.00  0.00    +0.000 C 
ATOM      7  C   UNL     1      32.595 -23.826 -14.364  0.00  0.00    +0.015 C 
ATOM      8  C   UNL     1      31.171 -22.563 -15.848  0.00  0.00    +0.000 C 
ATOM      9  C   UNL     1      33.267 -20.912 -18.447  0.00  0.00    +0.003 C 
ATOM     10  C   UNL     1      31.326 -23.396 -14.740  0.00  0.00    +0.001 C 
ENDROOT
BRANCH   5  13
ATOM     11  N   UNL     1      35.566 -20.273 -20.060  0.00  0.00    -0.343 N 
ATOM     12  N   UNL     1      36.913 -21.166 -18.372  0.00  0.00    -0.285 NA
ATOM     13  C   UNL     1      35.700 -20.924 -18.835  0.00  0.00    +0.117 C 
ATOM     14  H   UNL     1      36.368 -19.998 -20.561  0.00  0.00    +0.144 HD
ATOM     15  H   UNL     1      34.671 -20.086 -20.424  0.00  0.00    +0.144 HD
ATOM     16  H   UNL     1      37.702 -20.882 -18.888  0.00  0.00    +0.188 HD
ENDBRANCH   5  13
BRANCH   2  18
ATOM     17  O   UNL     1      35.442 -22.359 -12.980  0.00  0.00    -0.270 OA
ATOM     18  N   UNL     1      34.965 -23.891 -14.670  0.00  0.00    -0.280 N 
ATOM     19  C   UNL     1      35.745 -23.341 -13.654  0.00  0.00    +0.249 C 
ATOM     20  H   UNL     1      35.328 -24.681 -15.133  0.00  0.00    +0.155 HD
BRANCH  19  21
ATOM     21  C   UNL     1      37.042 -24.016 -13.461  0.00  0.00    +0.053 C 
ATOM     22  C   UNL     1      38.151 -23.639 -14.203  0.00  0.00    +0.016 C 
ATOM     23  C   UNL     1      37.117 -25.031 -12.520  0.00  0.00    +0.004 C 
ATOM     24  C   UNL     1      39.364 -24.295 -14.000  0.00  0.00    +0.130 C 
ATOM     25  C   UNL     1      38.063 -22.543 -15.216  0.00  0.00    +0.034 C 
ATOM     26  C   UNL     1      38.331 -25.687 -12.317  0.00  0.00    +0.003 C 
ATOM     27  C   UNL     1      39.455 -25.320 -13.057  0.00  0.00    +0.036 C 
BRANCH  24  28
ATOM     28  O   UNL     1      40.474 -23.950 -14.713  0.00  0.00    -0.506 OA
ATOM     29  H   UNL     1      41.159 -23.460 -14.304  0.00  0.00    +0.292 HD
ENDBRANCH  24  28
ENDBRANCH  19  21
ENDBRANCH   2  18
TORSDOF 4
ENDMDL
MODEL 8
REMARK VINA RESULT:      -9.7     11.753     14.816
REMARK  Name = 6852140
REMARK  4 active torsions:
REMARK  status: ('A' for Active; 'I' for Inactive)
REMARK    1  A    between atoms: C_2  and  N_18
REMARK    2  A    between atoms: C_5  and  C_13
REMARK    3  A    between atoms: C_19  and  C_21
REMARK    4  A    between atoms: C_24  and  O_28
REMARK                            x       y       z     vdW  Elec       q    Type
REMARK                         _______ _______ _______ _____ _____    ______ ____
ROOT
ATOM      1  C   UNL     1      32.307 -10.677 -20.661  0.00  0.00    +0.014 C 
ATOM      2  C   UNL     1      31.862  -9.438 -20.170  0.00  0.00    +0.050 C 
ATOM      3  C   UNL     1      32.249 -11.815 -19.822  0.00  0.00    +0.001 C 
ATOM      4  C   UNL     1      32.811 -10.810 -21.966  0.00  0.00    +0.004 C 
ATOM      5  C   UNL     1      33.249 -12.048 -22.436  0.00  0.00    +0.031 C 
ATOM      6  C   UNL     1      32.694 -13.053 -20.313  0.00  0.00    +0.000 C 
ATOM      7  C   UNL     1      31.366  -9.324 -18.871  0.00  0.00    +0.015 C 
ATOM      8  C   UNL     1      31.746 -11.681 -18.517  0.00  0.00    +0.000 C 
ATOM      9  C   UNL     1      33.190 -13.168 -21.612  0.00  0.00    +0.003 C 
ATOM     10  C   UNL     1      31.309 -10.443 -18.047  0.00  0.00    +0.001 C 
ENDROOT
BRANCH   5  13
ATOM     11  N   UNL     1      33.716 -13.382 -24.478  0.00  0.00    -0.343 N 
ATOM     12  N   UNL     1      34.302 -11.121 -24.387  0.00  0.00    -0.285 NA
ATOM     13  C   UNL     1      33.766 -12.171 -23.790  0.00  0.00    +0.117 C 
ATOM     14  H   UNL     1      34.073 -13.442 -25.393  0.00  0.00    +0.144 HD
ATOM     15  H   UNL     1      33.323 -14.176 -24.049  0.00  0.00    +0.144 HD
ATOM     16  H   UNL     1      34.652 -11.203 -25.304  0.00  0.00    +0.188 HD
ENDBRANCH   5  13
BRANCH   2  18
ATOM     17  O   UNL     1      33.701  -7.161 -19.991  0.00  0.00    -0.270 OA
ATOM     18  N   UNL     1      31.897  -8.277 -20.954  0.00  0.00    -0.280 N 
ATOM     19  C   UNL     1      32.799  -7.222 -20.823  0.00  0.00    +0.249 C 
ATOM     20  H   UNL     1      31.220  -8.199 -21.665  0.00  0.00    +0.155 HD
BRANCH  19  21
ATOM     21  C   UNL     1      32.561  -6.109 -21.760  0.00  0.00    +0.053 C 
ATOM     22  C   UNL     1      31.993  -4.924 -21.318  0.00  0.00    +0.016 C 
ATOM     23  C   UNL     1      32.921  -6.283 -23.087  0.00  0.00    +0.004 C 
ATOM     24  C   UNL     1      31.779  -3.888 -22.227  0.00  0.00    +0.130 C 
ATOM     25  C   UNL     1      31.607  -4.742 -19.885  0.00  0.00    +0.034 C 
ATOM     26  C   UNL     1      32.707  -5.248 -23.996  0.00  0.00    +0.003 C 
ATOM     27  C   UNL     1      32.136  -4.049 -23.566  0.00  0.00    +0.036 C 
BRANCH  24  28
ATOM     28  O   UNL     1      31.223  -2.710 -21.826  0.00  0.00    -0.506 OA
ATOM     29  H   UNL     1      30.815  -2.647 -20.985  0.00  0.00    +0.292 HD
ENDBRANCH  24  28
ENDBRANCH  19  21
ENDBRANCH   2  18
TORSDOF 4
ENDMDL
MODEL 9
REMARK VINA RESULT:      -9.7      8.538     12.393
REMARK  Name = 6852140
REMARK  4 active torsions:
REMARK  status: ('A' for Active; 'I' for Inactive)
REMARK    1  A    between atoms: C_2  and  N_18
REMARK    2  A    between atoms: C_5  and  C_13
REMARK    3  A    between atoms: C_19  and  C_21
REMARK    4  A    between atoms: C_24  and  O_28
REMARK                            x       y       z     vdW  Elec       q    Type
REMARK                         _______ _______ _______ _____ _____    ______ ____
ROOT
ATOM      1  C   UNL     1      32.821 -11.097 -21.699  0.00  0.00    +0.014 C 
ATOM      2  C   UNL     1      32.636 -12.275 -20.957  0.00  0.00    +0.050 C 
ATOM      3  C   UNL     1      32.219  -9.896 -21.253  0.00  0.00    +0.001 C 
ATOM      4  C   UNL     1      33.589 -11.085 -22.875  0.00  0.00    +0.004 C 
ATOM      5  C   UNL     1      33.762  -9.906 -23.600  0.00  0.00    +0.031 C 
ATOM      6  C   UNL     1      32.405  -8.718 -21.996  0.00  0.00    +0.000 C 
ATOM      7  C   UNL     1      31.868 -12.269 -19.791  0.00  0.00    +0.015 C 
ATOM      8  C   UNL     1      31.451  -9.908 -20.077  0.00  0.00    +0.000 C 
ATOM      9  C   UNL     1      33.172  -8.725 -23.161  0.00  0.00    +0.003 C 
ATOM     10  C   UNL     1      31.278 -11.088 -19.353  0.00  0.00    +0.001 C 
ENDROOT
BRANCH   5  13
ATOM     11  N   UNL     1      35.674  -9.082 -24.953  0.00  0.00    -0.343 N 
ATOM     12  N   UNL     1      34.231 -10.703 -25.818  0.00  0.00    -0.285 NA
ATOM     13  C   UNL     1      34.561  -9.909 -24.815  0.00  0.00    +0.117 C 
ATOM     14  H   UNL     1      36.200  -9.099 -25.785  0.00  0.00    +0.144 HD
ATOM     15  H   UNL     1      35.935  -8.480 -24.218  0.00  0.00    +0.144 HD
ATOM     16  H   UNL     1      34.771 -10.707 -26.641  0.00  0.00    +0.188 HD
ENDBRANCH   5  13
BRANCH   2  18
ATOM     17  O   UNL     1      35.340 -13.283 -20.441  0.00  0.00    -0.270 OA
ATOM     18  N   UNL     1      33.205 -13.493 -21.350  0.00  0.00    -0.280 N 
ATOM     19  C   UNL     1      34.503 -13.921 -21.075  0.00  0.00    +0.249 C 
ATOM     20  H   UNL     1      32.635 -14.105 -21.870  0.00  0.00    +0.155 HD
BRANCH  19  21
ATOM     21  C   UNL     1      34.840 -15.232 -21.661  0.00  0.00    +0.053 C 
ATOM     22  C   UNL     1      34.669 -15.463 -23.017  0.00  0.00    +0.016 C 
ATOM     23  C   UNL     1      35.331 -16.218 -20.819  0.00  0.00    +0.004 C 
ATOM     24  C   UNL     1      34.996 -16.712 -23.544  0.00  0.00    +0.130 C 
ATOM     25  C   UNL     1      34.141 -14.395 -23.920  0.00  0.00    +0.034 C 
ATOM     26  C   UNL     1      35.658 -17.467 -21.346  0.00  0.00    +0.003 C 
ATOM     27  C   UNL     1      35.490 -17.714 -22.709  0.00  0.00    +0.036 C 
BRANCH  24  28
ATOM     28  O   UNL     1      34.840 -16.973 -24.873  0.00  0.00    -0.506 OA
ATOM     29  H   UNL     1      34.459 -16.327 -25.435  0.00  0.00    +0.292 HD
ENDBRANCH  24  28
ENDBRANCH  19  21
ENDBRANCH   2  18
TORSDOF 4
ENDMDL
