MODEL 1
REMARK VINA RESULT:     -11.8      0.000      0.000
REMARK  Name = 444698
REMARK  5 active torsions:
REMARK  status: ('A' for Active; 'I' for Inactive)
REMARK    1  A    between atoms: S_1  and  N_4
REMARK    2  A    between atoms: S_1  and  C_18
REMARK    3  A    between atoms: C_5  and  C_15
REMARK    4  A    between atoms: C_15  and  O_16
REMARK    5  A    between atoms: C_21  and  C_24
REMARK                            x       y       z     vdW  Elec       q    Type
REMARK                         _______ _______ _______ _____ _____    ______ ____
ROOT
ATOM      1  S   UNL     1      35.126 -22.948 -15.182  0.00  0.00    +0.064 S 
ATOM      2  O   UNL     1      35.588 -24.263 -15.579  0.00  0.00    -0.153 OA
ATOM      3  O   UNL     1      35.783 -22.189 -14.138  0.00  0.00    -0.153 OA
ENDROOT
BRANCH   1   4
ATOM      4  N   UNL     1      33.452 -23.037 -14.844  0.00  0.00    -0.141 NA
ATOM      5  C   UNL     1      33.032 -23.981 -13.769  0.00  0.00    +0.182 C 
ATOM      6  C   UNL     1      31.691 -24.677 -14.015  0.00  0.00    +0.055 C 
ATOM      7  C   UNL     1      32.539 -22.886 -16.012  0.00  0.00    +0.122 C 
ATOM      8  C   UNL     1      30.664 -23.766 -14.630  0.00  0.00    -0.023 C 
ATOM      9  C   UNL     1      31.087 -22.872 -15.624  0.00  0.00    -0.008 C 
ATOM     10  C   UNL     1      29.312 -23.826 -14.276  0.00  0.00    -0.004 C 
ATOM     11  C   UNL     1      30.158 -22.044 -16.258  0.00  0.00    -0.003 C 
ATOM     12  C   UNL     1      28.391 -22.986 -14.903  0.00  0.00    -0.000 C 
ATOM     13  C   UNL     1      28.813 -22.098 -15.892  0.00  0.00    -0.000 C 
BRANCH   5  15
ATOM     14  O   UNL     1      31.996 -22.498 -12.166  0.00  0.00    -0.249 OA
ATOM     15  C   UNL     1      32.977 -23.124 -12.542  0.00  0.00    +0.330 C 
BRANCH  15  16
ATOM     16  O   UNL     1      34.170 -23.129 -11.900  0.00  0.00    -0.479 OA
ATOM     17  H   UNL     1      34.204 -22.984 -10.974  0.00  0.00    +0.295 HD
ENDBRANCH  15  16
ENDBRANCH   5  15
ENDBRANCH   1   4
BRANCH   1  18
ATOM     18  C   UNL     1      35.328 -21.933 -16.642  0.00  0.00    +0.122 C 
ATOM     19  C   UNL     1      36.546 -21.338 -16.862  0.00  0.00    +0.020 C 
ATOM     20  C   UNL     1      34.257 -21.786 -17.490  0.00  0.00    +0.020 C 
ATOM     21  C   UNL     1      35.637 -20.375 -18.882  0.00  0.00    +0.000 C 
ATOM     22  C   UNL     1      36.702 -20.546 -18.000  0.00  0.00    +0.001 C 
ATOM     23  C   UNL     1      34.413 -20.995 -18.627  0.00  0.00    +0.001 C 
BRANCH  21  24
ATOM     24  C   UNL     1      35.800 -19.554 -20.062  0.00  0.00    +0.000 C 
ATOM     25  C   UNL     1      34.782 -19.489 -21.014  0.00  0.00    +0.000 C 
ATOM     26  C   UNL     1      36.975 -18.827 -20.248  0.00  0.00    +0.000 C 
ATOM     27  C   UNL     1      34.941 -18.698 -22.152  0.00  0.00    +0.000 C 
ATOM     28  C   UNL     1      37.134 -18.035 -21.385  0.00  0.00    +0.000 C 
ATOM     29  C   UNL     1      36.116 -17.970 -22.338  0.00  0.00    +0.000 C 
ENDBRANCH  21  24
ENDBRANCH   1  18
TORSDOF 5
ENDMDL
MODEL 2
REMARK VINA RESULT:     -11.4      5.443      9.446
REMARK  Name = 444698
REMARK  5 active torsions:
REMARK  status: ('A' for Active; 'I' for Inactive)
REMARK    1  A    between atoms: S_1  and  N_4
REMARK    2  A    between atoms: S_1  and  C_18
REMARK    3  A    between atoms: C_5  and  C_15
REMARK    4  A    between atoms: C_15  and  O_16
REMARK    5  A    between atoms: C_21  and  C_24
REMARK                            x       y       z     vdW  Elec       q    Type
REMARK                         _______ _______ _______ _____ _____    ______ ____
ROOT
ATOM      1  S   UNL     1      36.267 -18.186 -22.090  0.00  0.00    +0.064 S 
ATOM      2  O   UNL     1      37.614 -17.829 -21.692  0.00  0.00    -0.153 OA
ATOM      3  O   UNL     1      36.005 -18.987 -23.268  0.00  0.00    -0.153 OA
ENDROOT
BRANCH   1   4
ATOM      4  N   UNL     1      35.321 -16.763 -22.155  0.00  0.00    -0.141 NA
ATOM      5  C   UNL     1      35.357 -15.989 -23.429  0.00  0.00    +0.182 C 
ATOM      6  C   UNL     1      35.280 -14.470 -23.258  0.00  0.00    +0.055 C 
ATOM      7  C   UNL     1      35.221 -15.985 -20.889  0.00  0.00    +0.122 C 
ATOM      8  C   UNL     1      34.323 -14.051 -22.175  0.00  0.00    -0.023 C 
ATOM      9  C   UNL     1      34.293 -14.808 -20.995  0.00  0.00    -0.008 C 
ATOM     10  C   UNL     1      33.517 -12.915 -22.296  0.00  0.00    -0.004 C 
ATOM     11  C   UNL     1      33.457 -14.425 -19.943  0.00  0.00    -0.003 C 
ATOM     12  C   UNL     1      32.674 -12.546 -21.248  0.00  0.00    -0.000 C 
ATOM     13  C   UNL     1      32.644 -13.299 -20.074  0.00  0.00    -0.000 C 
BRANCH   5  15
ATOM     14  O   UNL     1      33.702 -15.980 -25.191  0.00  0.00    -0.249 OA
ATOM     15  C   UNL     1      34.178 -16.506 -24.194  0.00  0.00    +0.330 C 
BRANCH  15  16
ATOM     16  O   UNL     1      33.700 -17.641 -23.630  0.00  0.00    -0.479 OA
ATOM     17  H   UNL     1      32.853 -17.644 -23.228  0.00  0.00    +0.295 HD
ENDBRANCH  15  16
ENDBRANCH   5  15
ENDBRANCH   1   4
BRANCH   1  18
ATOM     18  C   UNL     1      35.643 -19.187 -20.744  0.00  0.00    +0.122 C 
ATOM     19  C   UNL     1      36.546 -19.783 -19.899  0.00  0.00    +0.020 C 
ATOM     20  C   UNL     1      34.283 -19.323 -20.606  0.00  0.00    +0.020 C 
ATOM     21  C   UNL     1      34.685 -20.723 -18.679  0.00  0.00    +0.000 C 
ATOM     22  C   UNL     1      36.060 -20.563 -18.850  0.00  0.00    +0.001 C 
ATOM     23  C   UNL     1      33.797 -20.103 -19.557  0.00  0.00    +0.001 C 
BRANCH  21  24
ATOM     24  C   UNL     1      34.181 -21.532 -17.591  0.00  0.00    +0.000 C 
ATOM     25  C   UNL     1      32.815 -21.796 -17.492  0.00  0.00    +0.000 C 
ATOM     26  C   UNL     1      35.062 -22.049 -16.641  0.00  0.00    +0.000 C 
ATOM     27  C   UNL     1      32.330 -22.576 -16.442  0.00  0.00    +0.000 C 
ATOM     28  C   UNL     1      34.577 -22.830 -15.591  0.00  0.00    +0.000 C 
ATOM     29  C   UNL     1      33.210 -23.094 -15.492  0.00  0.00    +0.000 C 
ENDBRANCH  21  24
ENDBRANCH   1  18
TORSDOF 5
ENDMDL
MODEL 3
REMARK VINA RESULT:     -11.4      7.739     11.382
REMARK  Name = 444698
REMARK  5 active torsions:
REMARK  status: ('A' for Active; 'I' for Inactive)
REMARK    1  A    between atoms: S_1  and  N_4
REMARK    2  A    between atoms: S_1  and  C_18
REMARK    3  A    between atoms: C_5  and  C_15
REMARK    4  A    between atoms: C_15  and  O_16
REMARK    5  A    between atoms: C_21  and  C_24
REMARK                            x       y       z     vdW  Elec       q    Type
REMARK                         _______ _______ _______ _____ _____    ______ ____
ROOT
ATOM      1  S   UNL     1      34.518 -15.363 -24.743  0.00  0.00    +0.064 S 
ATOM      2  O   UNL     1      35.844 -15.091 -25.258  0.00  0.00    -0.153 OA
ATOM      3  O   UNL     1      33.488 -15.969 -25.561  0.00  0.00    -0.153 OA
ENDROOT
BRANCH   1   4
ATOM      4  N   UNL     1      33.904 -13.933 -24.034  0.00  0.00    -0.141 NA
ATOM      5  C   UNL     1      34.322 -12.642 -24.653  0.00  0.00    +0.182 C 
ATOM      6  C   UNL     1      34.521 -11.492 -23.663  0.00  0.00    +0.055 C 
ATOM      7  C   UNL     1      33.735 -13.955 -22.554  0.00  0.00    +0.122 C 
ATOM      8  C   UNL     1      33.489 -11.477 -22.569  0.00  0.00    -0.023 C 
ATOM      9  C   UNL     1      33.097 -12.705 -22.017  0.00  0.00    -0.008 C 
ATOM     10  C   UNL     1      32.962 -10.285 -22.062  0.00  0.00    -0.004 C 
ATOM     11  C   UNL     1      32.180 -12.734 -20.964  0.00  0.00    -0.003 C 
ATOM     12  C   UNL     1      32.036 -10.321 -21.020  0.00  0.00    -0.000 C 
ATOM     13  C   UNL     1      31.646 -11.543 -20.471  0.00  0.00    -0.000 C 
BRANCH   5  15
ATOM     14  O   UNL     1      33.171 -11.348 -26.339  0.00  0.00    -0.249 OA
ATOM     15  C   UNL     1      33.220 -12.336 -25.620  0.00  0.00    +0.330 C 
BRANCH  15  16
ATOM     16  O   UNL     1      32.273 -13.305 -25.591  0.00  0.00    -0.479 OA
ATOM     17  H   UNL     1      31.482 -13.172 -25.106  0.00  0.00    +0.295 HD
ENDBRANCH  15  16
ENDBRANCH   5  15
ENDBRANCH   1   4
BRANCH   1  18
ATOM     18  C   UNL     1      34.774 -16.549 -23.427  0.00  0.00    +0.122 C 
ATOM     19  C   UNL     1      34.315 -17.831 -23.603  0.00  0.00    +0.020 C 
ATOM     20  C   UNL     1      35.420 -16.133 -22.288  0.00  0.00    +0.020 C 
ATOM     21  C   UNL     1      35.166 -18.368 -21.408  0.00  0.00    +0.000 C 
ATOM     22  C   UNL     1      34.514 -18.755 -22.578  0.00  0.00    +0.001 C 
ATOM     23  C   UNL     1      35.619 -17.057 -21.263  0.00  0.00    +0.001 C 
BRANCH  21  24
ATOM     24  C   UNL     1      35.373 -19.327 -20.344  0.00  0.00    +0.000 C 
ATOM     25  C   UNL     1      34.282 -19.984 -19.775  0.00  0.00    +0.000 C 
ATOM     26  C   UNL     1      36.664 -19.594 -19.888  0.00  0.00    +0.000 C 
ATOM     27  C   UNL     1      34.483 -20.907 -18.748  0.00  0.00    +0.000 C 
ATOM     28  C   UNL     1      36.865 -20.518 -18.862  0.00  0.00    +0.000 C 
ATOM     29  C   UNL     1      35.773 -21.175 -18.292  0.00  0.00    +0.000 C 
ENDBRANCH  21  24
ENDBRANCH   1  18
TORSDOF 5
ENDMDL
MODEL 4
REMARK VINA RESULT:     -10.9      2.788      4.588
REMARK  Name = 444698
REMARK  5 active torsions:
REMARK  status: ('A' for Active; 'I' for Inactive)
REMARK    1  A    between atoms: S_1  and  N_4
REMARK    2  A    between atoms: S_1  and  C_18
REMARK    3  A    between atoms: C_5  and  C_15
REMARK    4  A    between atoms: C_15  and  O_16
REMARK    5  A    between atoms: C_21  and  C_24
REMARK                            x       y       z     vdW  Elec       q    Type
REMARK                         _______ _______ _______ _____ _____    ______ ____
ROOT
ATOM      1  S   UNL     1      33.410 -23.073 -15.720  0.00  0.00    +0.064 S 
ATOM      2  O   UNL     1      32.520 -22.226 -14.953  0.00  0.00    -0.153 OA
ATOM      3  O   UNL     1      32.933 -24.246 -16.423  0.00  0.00    -0.153 OA
ENDROOT
BRANCH   1   4
ATOM      4  N   UNL     1      34.735 -23.510 -14.730  0.00  0.00    -0.141 NA
ATOM      5  C   UNL     1      35.076 -22.582 -13.614  0.00  0.00    +0.182 C 
ATOM      6  C   UNL     1      36.573 -22.462 -13.316  0.00  0.00    +0.055 C 
ATOM      7  C   UNL     1      35.866 -24.197 -15.415  0.00  0.00    +0.122 C 
ATOM      8  C   UNL     1      37.297 -23.776 -13.421  0.00  0.00    -0.023 C 
ATOM      9  C   UNL     1      36.943 -24.641 -14.466  0.00  0.00    -0.008 C 
ATOM     10  C   UNL     1      38.332 -24.124 -12.548  0.00  0.00    -0.004 C 
ATOM     11  C   UNL     1      37.626 -25.848 -14.633  0.00  0.00    -0.003 C 
ATOM     12  C   UNL     1      39.000 -25.338 -12.710  0.00  0.00    -0.000 C 
ATOM     13  C   UNL     1      38.648 -26.198 -13.750  0.00  0.00    -0.000 C 
BRANCH   5  15
ATOM     14  O   UNL     1      34.777 -23.991 -11.674  0.00  0.00    -0.249 OA
ATOM     15  C   UNL     1      34.337 -23.147 -12.441  0.00  0.00    +0.330 C 
BRANCH  15  16
ATOM     16  O   UNL     1      33.103 -22.596 -12.341  0.00  0.00    -0.479 OA
ATOM     17  H   UNL     1      32.409 -23.074 -11.930  0.00  0.00    +0.295 HD
ENDBRANCH  15  16
ENDBRANCH   5  15
ENDBRANCH   1   4
BRANCH   1  18
ATOM     18  C   UNL     1      34.037 -22.017 -17.022  0.00  0.00    +0.122 C 
ATOM     19  C   UNL     1      35.384 -21.752 -17.059  0.00  0.00    +0.020 C 
ATOM     20  C   UNL     1      33.147 -21.510 -17.938  0.00  0.00    +0.020 C 
ATOM     21  C   UNL     1      34.997 -20.396 -19.020  0.00  0.00    +0.000 C 
ATOM     22  C   UNL     1      35.872 -20.929 -18.073  0.00  0.00    +0.001 C 
ATOM     23  C   UNL     1      33.635 -20.686 -18.952  0.00  0.00    +0.001 C 
BRANCH  21  24
ATOM     24  C   UNL     1      35.504 -19.542 -20.072  0.00  0.00    +0.000 C 
ATOM     25  C   UNL     1      34.667 -19.148 -21.116  0.00  0.00    +0.000 C 
ATOM     26  C   UNL     1      36.831 -19.112 -20.042  0.00  0.00    +0.000 C 
ATOM     27  C   UNL     1      35.156 -18.325 -22.130  0.00  0.00    +0.000 C 
ATOM     28  C   UNL     1      37.320 -18.289 -21.056  0.00  0.00    +0.000 C 
ATOM     29  C   UNL     1      36.483 -17.895 -22.101  0.00  0.00    +0.000 C 
ENDBRANCH  21  24
ENDBRANCH   1  18
TORSDOF 5
ENDMDL
MODEL 5
REMARK VINA RESULT:     -10.9      3.271      5.540
REMARK  Name = 444698
REMARK  5 active torsions:
REMARK  status: ('A' for Active; 'I' for Inactive)
REMARK    1  A    between atoms: S_1  and  N_4
REMARK    2  A    between atoms: S_1  and  C_18
REMARK    3  A    between atoms: C_5  and  C_15
REMARK    4  A    between atoms: C_15  and  O_16
REMARK    5  A    between atoms: C_21  and  C_24
REMARK                            x       y       z     vdW  Elec       q    Type
REMARK                         _______ _______ _______ _____ _____    ______ ____
ROOT
ATOM      1  S   UNL     1      34.014 -23.765 -13.945  0.00  0.00    +0.064 S 
ATOM      2  O   UNL     1      33.412 -22.893 -12.957  0.00  0.00    -0.153 OA
ATOM      3  O   UNL     1      33.408 -25.024 -14.325  0.00  0.00    -0.153 OA
ENDROOT
BRANCH   1   4
ATOM      4  N   UNL     1      35.646 -24.036 -13.511  0.00  0.00    -0.141 NA
ATOM      5  C   UNL     1      36.200 -23.189 -12.415  0.00  0.00    +0.182 C 
ATOM      6  C   UNL     1      37.672 -22.804 -12.585  0.00  0.00    +0.055 C 
ATOM      7  C   UNL     1      36.568 -24.398 -14.623  0.00  0.00    +0.122 C 
ATOM      8  C   UNL     1      38.509 -23.924 -13.137  0.00  0.00    -0.023 C 
ATOM      9  C   UNL     1      37.959 -24.720 -14.152  0.00  0.00    -0.008 C 
ATOM     10  C   UNL     1      39.820 -24.153 -12.706  0.00  0.00    -0.004 C 
ATOM     11  C   UNL     1      38.720 -25.739 -14.729  0.00  0.00    -0.003 C 
ATOM     12  C   UNL     1      40.571 -25.181 -13.276  0.00  0.00    -0.000 C 
ATOM     13  C   UNL     1      40.022 -25.972 -14.286  0.00  0.00    -0.000 C 
BRANCH   5  15
ATOM     14  O   UNL     1      36.486 -25.125 -10.997  0.00  0.00    -0.249 OA
ATOM     15  C   UNL     1      35.999 -24.020 -11.186  0.00  0.00    +0.330 C 
BRANCH  15  16
ATOM     16  O   UNL     1      35.195 -23.381 -10.302  0.00  0.00    -0.479 OA
ATOM     17  H   UNL     1      35.571 -22.887  -9.599  0.00  0.00    +0.295 HD
ENDBRANCH  15  16
ENDBRANCH   5  15
ENDBRANCH   1   4
BRANCH   1  18
ATOM     18  C   UNL     1      34.010 -22.812 -15.460  0.00  0.00    +0.122 C 
ATOM     19  C   UNL     1      35.200 -22.296 -15.911  0.00  0.00    +0.020 C 
ATOM     20  C   UNL     1      32.817 -22.631 -16.115  0.00  0.00    +0.020 C 
ATOM     21  C   UNL     1      34.004 -21.350 -17.784  0.00  0.00    +0.000 C 
ATOM     22  C   UNL     1      35.197 -21.553 -17.092  0.00  0.00    +0.001 C 
ATOM     23  C   UNL     1      32.813 -21.888 -17.296  0.00  0.00    +0.001 C 
BRANCH  21  24
ATOM     24  C   UNL     1      34.001 -20.579 -19.008  0.00  0.00    +0.000 C 
ATOM     25  C   UNL     1      35.204 -20.147 -19.564  0.00  0.00    +0.000 C 
ATOM     26  C   UNL     1      32.793 -20.268 -19.632  0.00  0.00    +0.000 C 
ATOM     27  C   UNL     1      35.200 -19.403 -20.745  0.00  0.00    +0.000 C 
ATOM     28  C   UNL     1      32.788 -19.525 -20.813  0.00  0.00    +0.000 C 
ATOM     29  C   UNL     1      33.993 -19.092 -21.369  0.00  0.00    +0.000 C 
ENDBRANCH  21  24
ENDBRANCH   1  18
TORSDOF 5
ENDMDL
MODEL 6
REMARK VINA RESULT:     -10.4     11.068     14.567
REMARK  Name = 444698
REMARK  5 active torsions:
REMARK  status: ('A' for Active; 'I' for Inactive)
REMARK    1  A    between atoms: S_1  and  N_4
REMARK    2  A    between atoms: S_1  and  C_18
REMARK    3  A    between atoms: C_5  and  C_15
REMARK    4  A    between atoms: C_15  and  O_16
REMARK    5  A    between atoms: C_21  and  C_24
REMARK                            x       y       z     vdW  Elec       q    Type
REMARK                         _______ _______ _______ _____ _____    ______ ____
ROOT
ATOM      1  S   UNL     1      31.749  -9.605 -19.831  0.00  0.00    +0.064 S 
ATOM      2  O   UNL     1      30.332  -9.883 -19.722  0.00  0.00    -0.153 OA
ATOM      3  O   UNL     1      32.613  -9.566 -18.669  0.00  0.00    -0.153 OA
ENDROOT
BRANCH   1   4
ATOM      4  N   UNL     1      31.956  -8.167 -20.734  0.00  0.00    -0.141 NA
ATOM      5  C   UNL     1      32.095  -6.900 -19.960  0.00  0.00    +0.182 C 
ATOM      6  C   UNL     1      31.457  -5.674 -20.617  0.00  0.00    +0.055 C 
ATOM      7  C   UNL     1      31.224  -8.096 -22.029  0.00  0.00    +0.122 C 
ATOM      8  C   UNL     1      31.649  -5.643 -22.108  0.00  0.00    -0.023 C 
ATOM      9  C   UNL     1      31.534  -6.851 -22.812  0.00  0.00    -0.008 C 
ATOM     10  C   UNL     1      31.883  -4.452 -22.801  0.00  0.00    -0.004 C 
ATOM     11  C   UNL     1      31.654  -6.861 -24.203  0.00  0.00    -0.003 C 
ATOM     12  C   UNL     1      32.016  -4.470 -24.190  0.00  0.00    -0.000 C 
ATOM     13  C   UNL     1      31.901  -5.671 -24.890  0.00  0.00    -0.000 C 
BRANCH   5  15
ATOM     14  O   UNL     1      34.393  -6.932 -20.708  0.00  0.00    -0.249 OA
ATOM     15  C   UNL     1      33.577  -6.728 -19.821  0.00  0.00    +0.330 C 
BRANCH  15  16
ATOM     16  O   UNL     1      33.896  -6.314 -18.571  0.00  0.00    -0.479 OA
ATOM     17  H   UNL     1      34.684  -5.827 -18.426  0.00  0.00    +0.295 HD
ENDBRANCH  15  16
ENDBRANCH   5  15
ENDBRANCH   1   4
BRANCH   1  18
ATOM     18  C   UNL     1      32.406 -10.954 -20.808  0.00  0.00    +0.122 C 
ATOM     19  C   UNL     1      32.325 -12.228 -20.302  0.00  0.00    +0.020 C 
ATOM     20  C   UNL     1      32.966 -10.664 -22.029  0.00  0.00    +0.020 C 
ATOM     21  C   UNL     1      33.413 -13.022 -22.307  0.00  0.00    +0.000 C 
ATOM     22  C   UNL     1      32.837 -13.278 -21.063  0.00  0.00    +0.001 C 
ATOM     23  C   UNL     1      33.478 -11.715 -22.790  0.00  0.00    +0.001 C 
BRANCH  21  24
ATOM     24  C   UNL     1      33.944 -14.112 -23.097  0.00  0.00    +0.000 C 
ATOM     25  C   UNL     1      34.830 -15.023 -22.523  0.00  0.00    +0.000 C 
ATOM     26  C   UNL     1      33.569 -14.251 -24.433  0.00  0.00    +0.000 C 
ATOM     27  C   UNL     1      35.342 -16.073 -23.285  0.00  0.00    +0.000 C 
ATOM     28  C   UNL     1      34.080 -15.302 -25.196  0.00  0.00    +0.000 C 
ATOM     29  C   UNL     1      34.967 -16.213 -24.621  0.00  0.00    +0.000 C 
ENDBRANCH  21  24
ENDBRANCH   1  18
TORSDOF 5
ENDMDL
MODEL 7
REMARK VINA RESULT:     -10.3      9.867     13.680
REMARK  Name = 444698
REMARK  5 active torsions:
REMARK  status: ('A' for Active; 'I' for Inactive)
REMARK    1  A    between atoms: S_1  and  N_4
REMARK    2  A    between atoms: S_1  and  C_18
REMARK    3  A    between atoms: C_5  and  C_15
REMARK    4  A    between atoms: C_15  and  O_16
REMARK    5  A    between atoms: C_21  and  C_24
REMARK                            x       y       z     vdW  Elec       q    Type
REMARK                         _______ _______ _______ _____ _____    ______ ____
ROOT
ATOM      1  S   UNL     1      31.826 -10.535 -20.257  0.00  0.00    +0.064 S 
ATOM      2  O   UNL     1      30.496 -10.810 -20.761  0.00  0.00    -0.153 OA
ATOM      3  O   UNL     1      32.069 -10.242 -18.860  0.00  0.00    -0.153 OA
ENDROOT
BRANCH   1   4
ATOM      4  N   UNL     1      32.531  -9.309 -21.219  0.00  0.00    -0.141 NA
ATOM      5  C   UNL     1      31.952  -7.941 -21.098  0.00  0.00    +0.182 C 
ATOM      6  C   UNL     1      31.931  -7.136 -22.399  0.00  0.00    +0.055 C 
ATOM      7  C   UNL     1      33.010  -9.728 -22.566  0.00  0.00    +0.122 C 
ATOM      8  C   UNL     1      33.170  -7.333 -23.228  0.00  0.00    -0.023 C 
ATOM      9  C   UNL     1      33.708  -8.625 -23.310  0.00  0.00    -0.008 C 
ATOM     10  C   UNL     1      33.755  -6.287 -23.948  0.00  0.00    -0.004 C 
ATOM     11  C   UNL     1      34.828  -8.864 -24.111  0.00  0.00    -0.003 C 
ATOM     12  C   UNL     1      34.881  -6.528 -24.735  0.00  0.00    -0.000 C 
ATOM     13  C   UNL     1      35.417  -7.814 -24.816  0.00  0.00    -0.000 C 
BRANCH   5  15
ATOM     14  O   UNL     1      33.884  -6.731 -20.294  0.00  0.00    -0.249 OA
ATOM     15  C   UNL     1      32.814  -7.278 -20.067  0.00  0.00    +0.330 C 
BRANCH  15  16
ATOM     16  O   UNL     1      32.248  -7.367 -18.839  0.00  0.00    -0.479 OA
ATOM     17  H   UNL     1      32.226  -8.191 -18.393  0.00  0.00    +0.295 HD
ENDBRANCH  15  16
ENDBRANCH   5  15
ENDBRANCH   1   4
BRANCH   1  18
ATOM     18  C   UNL     1      32.746 -12.043 -20.545  0.00  0.00    +0.122 C 
ATOM     19  C   UNL     1      33.568 -12.108 -21.644  0.00  0.00    +0.020 C 
ATOM     20  C   UNL     1      32.596 -13.080 -19.657  0.00  0.00    +0.020 C 
ATOM     21  C   UNL     1      34.157 -14.356 -20.987  0.00  0.00    +0.000 C 
ATOM     22  C   UNL     1      34.284 -13.283 -21.868  0.00  0.00    +0.001 C 
ATOM     23  C   UNL     1      33.313 -14.255 -19.882  0.00  0.00    +0.001 C 
BRANCH  21  24
ATOM     24  C   UNL     1      34.901 -15.575 -21.221  0.00  0.00    +0.000 C 
ATOM     25  C   UNL     1      35.288 -16.374 -20.145  0.00  0.00    +0.000 C 
ATOM     26  C   UNL     1      35.230 -15.952 -22.523  0.00  0.00    +0.000 C 
ATOM     27  C   UNL     1      36.005 -17.549 -20.372  0.00  0.00    +0.000 C 
ATOM     28  C   UNL     1      35.947 -17.127 -22.750  0.00  0.00    +0.000 C 
ATOM     29  C   UNL     1      36.334 -17.926 -21.673  0.00  0.00    +0.000 C 
ENDBRANCH  21  24
ENDBRANCH   1  18
TORSDOF 5
ENDMDL
MODEL 8
REMARK VINA RESULT:      -9.7      1.550      2.036
REMARK  Name = 444698
REMARK  5 active torsions:
REMARK  status: ('A' for Active; 'I' for Inactive)
REMARK    1  A    between atoms: S_1  and  N_4
REMARK    2  A    between atoms: S_1  and  C_18
REMARK    3  A    between atoms: C_5  and  C_15
REMARK    4  A    between atoms: C_15  and  O_16
REMARK    5  A    between atoms: C_21  and  C_24
REMARK                            x       y       z     vdW  Elec       q    Type
REMARK                         _______ _______ _______ _____ _____    ______ ____
ROOT
ATOM      1  S   UNL     1      36.815 -22.598 -14.806  0.00  0.00    +0.064 S 
ATOM      2  O   UNL     1      37.432 -23.839 -15.228  0.00  0.00    -0.153 OA
ATOM      3  O   UNL     1      37.493 -21.666 -13.930  0.00  0.00    -0.153 OA
ENDROOT
BRANCH   1   4
ATOM      4  N   UNL     1      35.268 -22.948 -14.167  0.00  0.00    -0.141 NA
ATOM      5  C   UNL     1      35.151 -24.168 -13.317  0.00  0.00    +0.182 C 
ATOM      6  C   UNL     1      33.826 -24.921 -13.456  0.00  0.00    +0.055 C 
ATOM      7  C   UNL     1      34.107 -22.613 -15.038  0.00  0.00    +0.122 C 
ATOM      8  C   UNL     1      32.642 -24.003 -13.583  0.00  0.00    -0.023 C 
ATOM      9  C   UNL     1      32.783 -22.852 -14.370  0.00  0.00    -0.008 C 
ATOM     10  C   UNL     1      31.410 -24.294 -12.987  0.00  0.00    -0.004 C 
ATOM     11  C   UNL     1      31.693 -21.998 -14.558  0.00  0.00    -0.003 C 
ATOM     12  C   UNL     1      30.330 -23.430 -13.165  0.00  0.00    -0.000 C 
ATOM     13  C   UNL     1      30.471 -22.285 -13.949  0.00  0.00    -0.000 C 
BRANCH   5  15
ATOM     14  O   UNL     1      35.141 -24.298 -10.903  0.00  0.00    -0.249 OA
ATOM     15  C   UNL     1      35.333 -23.650 -11.923  0.00  0.00    +0.330 C 
BRANCH  15  16
ATOM     16  O   UNL     1      35.739 -22.358 -11.940  0.00  0.00    -0.479 OA
ATOM     17  H   UNL     1      35.145 -21.677 -11.687  0.00  0.00    +0.295 HD
ENDBRANCH  15  16
ENDBRANCH   5  15
ENDBRANCH   1   4
BRANCH   1  18
ATOM     18  C   UNL     1      36.576 -21.670 -16.318  0.00  0.00    +0.122 C 
ATOM     19  C   UNL     1      37.474 -20.678 -16.625  0.00  0.00    +0.020 C 
ATOM     20  C   UNL     1      35.502 -21.984 -17.115  0.00  0.00    +0.020 C 
ATOM     21  C   UNL     1      36.208 -20.246 -18.636  0.00  0.00    +0.000 C 
ATOM     22  C   UNL     1      37.287 -19.955 -17.803  0.00  0.00    +0.001 C 
ATOM     23  C   UNL     1      35.315 -21.260 -18.292  0.00  0.00    +0.001 C 
BRANCH  21  24
ATOM     24  C   UNL     1      36.015 -19.495 -19.858  0.00  0.00    +0.000 C 
ATOM     25  C   UNL     1      37.037 -18.682 -20.347  0.00  0.00    +0.000 C 
ATOM     26  C   UNL     1      34.805 -19.585 -20.547  0.00  0.00    +0.000 C 
ATOM     27  C   UNL     1      36.848 -17.958 -21.525  0.00  0.00    +0.000 C 
ATOM     28  C   UNL     1      34.617 -18.862 -21.724  0.00  0.00    +0.000 C 
ATOM     29  C   UNL     1      35.639 -18.048 -22.214  0.00  0.00    +0.000 C 
ENDBRANCH  21  24
ENDBRANCH   1  18
TORSDOF 5
ENDMDL
MODEL 9
REMARK VINA RESULT:      -9.7      7.253     11.338
REMARK  Name = 444698
REMARK  5 active torsions:
REMARK  status: ('A' for Active; 'I' for Inactive)
REMARK    1  A    between atoms: S_1  and  N_4
REMARK    2  A    between atoms: S_1  and  C_18
REMARK    3  A    between atoms: C_5  and  C_15
REMARK    4  A    between atoms: C_15  and  O_16
REMARK    5  A    between atoms: C_21  and  C_24
REMARK                            x       y       z     vdW  Elec       q    Type
REMARK                         _______ _______ _______ _____ _____    ______ ____
ROOT
ATOM      1  S   UNL     1      34.471 -15.384 -24.755  0.00  0.00    +0.064 S 
ATOM      2  O   UNL     1      35.712 -15.348 -25.500  0.00  0.00    -0.153 OA
ATOM      3  O   UNL     1      33.230 -15.827 -25.355  0.00  0.00    -0.153 OA
ENDROOT
BRANCH   1   4
ATOM      4  N   UNL     1      34.228 -13.856 -24.026  0.00  0.00    -0.141 NA
ATOM      5  C   UNL     1      33.372 -13.821 -22.805  0.00  0.00    +0.182 C 
ATOM      6  C   UNL     1      32.502 -12.569 -22.668  0.00  0.00    +0.055 C 
ATOM      7  C   UNL     1      34.138 -12.694 -24.953  0.00  0.00    +0.122 C 
ATOM      8  C   UNL     1      33.212 -11.314 -23.098  0.00  0.00    -0.023 C 
ATOM      9  C   UNL     1      34.028 -11.378 -24.237  0.00  0.00    -0.008 C 
ATOM     10  C   UNL     1      33.037 -10.097 -22.432  0.00  0.00    -0.004 C 
ATOM     11  C   UNL     1      34.664 -10.225 -24.703  0.00  0.00    -0.003 C 
ATOM     12  C   UNL     1      33.687  -8.952 -22.894  0.00  0.00    -0.000 C 
ATOM     13  C   UNL     1      34.498  -9.016 -24.026  0.00  0.00    -0.000 C 
BRANCH   5  15
ATOM     14  O   UNL     1      34.118 -14.421 -20.586  0.00  0.00    -0.249 OA
ATOM     15  C   UNL     1      34.353 -13.922 -21.678  0.00  0.00    +0.330 C 
BRANCH  15  16
ATOM     16  O   UNL     1      35.545 -13.381 -22.029  0.00  0.00    -0.479 OA
ATOM     17  H   UNL     1      35.842 -13.440 -22.916  0.00  0.00    +0.295 HD
ENDBRANCH  15  16
ENDBRANCH   5  15
ENDBRANCH   1   4
BRANCH   1  18
ATOM     18  C   UNL     1      34.759 -16.567 -23.443  0.00  0.00    +0.122 C 
ATOM     19  C   UNL     1      35.735 -16.292 -22.517  0.00  0.00    +0.020 C 
ATOM     20  C   UNL     1      33.993 -17.707 -23.411  0.00  0.00    +0.020 C 
ATOM     21  C   UNL     1      35.201 -18.382 -21.431  0.00  0.00    +0.000 C 
ATOM     22  C   UNL     1      35.960 -17.214 -21.495  0.00  0.00    +0.001 C 
ATOM     23  C   UNL     1      34.218 -18.629 -22.389  0.00  0.00    +0.001 C 
BRANCH  21  24
ATOM     24  C   UNL     1      35.435 -19.339 -20.371  0.00  0.00    +0.000 C 
ATOM     25  C   UNL     1      36.729 -19.557 -19.900  0.00  0.00    +0.000 C 
ATOM     26  C   UNL     1      34.364 -20.043 -19.820  0.00  0.00    +0.000 C 
ATOM     27  C   UNL     1      36.953 -20.480 -18.878  0.00  0.00    +0.000 C 
ATOM     28  C   UNL     1      34.588 -20.966 -18.798  0.00  0.00    +0.000 C 
ATOM     29  C   UNL     1      35.883 -21.184 -18.326  0.00  0.00    +0.000 C 
ENDBRANCH  21  24
ENDBRANCH   1  18
TORSDOF 5
ENDMDL
