MODEL 1
REMARK VINA RESULT:     -11.3      0.000      0.000
REMARK  Name = 5497056
REMARK  11 active torsions:
REMARK  status: ('A' for Active; 'I' for Inactive)
REMARK    1  A    between atoms: N_2  and  C_22
REMARK    2  A    between atoms: C_3  and  C_5
REMARK    3  A    between atoms: C_8  and  C_11
REMARK    4  A    between atoms: C_13  and  C_17
REMARK    5  A    between atoms: C_17  and  N_18
REMARK    6  A    between atoms: C_22  and  C_24
REMARK    7  A    between atoms: C_24  and  C_26
REMARK    8  A    between atoms: C_24  and  C_29
REMARK    9  A    between atoms: C_26  and  O_27
REMARK   10  A    between atoms: C_29  and  C_30
REMARK   11  A    between atoms: C_33  and  C_38
REMARK                            x       y       z     vdW  Elec       q    Type
REMARK                         _______ _______ _______ _____ _____    ______ ____
ROOT
ATOM      1  O   UNL     1      34.171 -23.353 -18.889  0.00  0.00    -0.270 OA
ATOM      2  N   UNL     1      33.725 -22.062 -17.015  0.00  0.00    -0.302 N 
ATOM      3  C   UNL     1      34.047 -22.257 -18.350  0.00  0.00    +0.246 C 
ATOM      4  H   UNL     1      33.649 -21.141 -16.676  0.00  0.00    +0.150 HD
ENDROOT
BRANCH   3   5
ATOM      5  C   UNL     1      34.277 -21.025 -19.147  0.00  0.00    +0.053 C 
ATOM      6  C   UNL     1      33.192 -20.265 -19.585  0.00  0.00    +0.005 C 
ATOM      7  C   UNL     1      35.578 -20.628 -19.460  0.00  0.00    +0.005 C 
ATOM      8  C   UNL     1      34.709 -18.711 -20.645  0.00  0.00    -0.000 C 
ATOM      9  C   UNL     1      33.408 -19.108 -20.334  0.00  0.00    +0.000 C 
ATOM     10  C   UNL     1      35.793 -19.472 -20.208  0.00  0.00    +0.000 C 
BRANCH   8  11
ATOM     11  C   UNL     1      34.931 -17.510 -21.422  0.00  0.00    -0.000 C 
ATOM     12  C   UNL     1      34.852 -16.260 -20.810  0.00  0.00    -0.006 C 
ATOM     13  C   UNL     1      35.067 -15.103 -21.559  0.00  0.00    -0.044 C 
ATOM     14  C   UNL     1      35.225 -17.605 -22.782  0.00  0.00    -0.000 C 
ATOM     15  C   UNL     1      35.360 -15.197 -22.920  0.00  0.00    -0.006 C 
ATOM     16  C   UNL     1      35.440 -16.448 -23.531  0.00  0.00    -0.000 C 
BRANCH  13  17
ATOM     17  C   UNL     1      34.983 -13.765 -20.905  0.00  0.00    -0.059 C 
BRANCH  17  18
ATOM     18  N   UNL     1      34.847 -12.677 -21.876  0.00  0.00    +0.383 N 
ATOM     19  H   UNL     1      34.112 -12.908 -22.544  0.00  0.00    -0.089 HD
ATOM     20  H   UNL     1      35.729 -12.550 -22.371  0.00  0.00    -0.089 HD
ATOM     21  H   UNL     1      34.604 -11.815 -21.387  0.00  0.00    -0.089 HD
ENDBRANCH  17  18
ENDBRANCH  13  17
ENDBRANCH   8  11
ENDBRANCH   3   5
BRANCH   2  22
ATOM     22  C   UNL     1      33.496 -23.160 -16.105  0.00  0.00    +0.083 C 
ATOM     23  C   UNL     1      32.089 -23.070 -15.516  0.00  0.00    +0.022 C 
BRANCH  22  24
ATOM     24  C   UNL     1      34.584 -23.262 -15.013  0.00  0.00    +0.121 C 
BRANCH  24  26
ATOM     25  O   UNL     1      35.642 -21.150 -14.410  0.00  0.00    -0.250 OA
ATOM     26  C   UNL     1      35.603 -22.134 -15.138  0.00  0.00    +0.319 C 
BRANCH  26  27
ATOM     27  O   UNL     1      36.451 -22.393 -16.176  0.00  0.00    -0.444 OA
ATOM     28  C   UNL     1      37.396 -21.360 -16.472  0.00  0.00    +0.256 C 
ENDBRANCH  26  27
ENDBRANCH  24  26
BRANCH  24  29
ATOM     29  C   UNL     1      35.304 -24.625 -15.038  0.00  0.00    +0.039 C 
BRANCH  29  30
ATOM     30  C   UNL     1      36.202 -24.837 -13.841  0.00  0.00    -0.021 C 
ATOM     31  C   UNL     1      35.918 -24.197 -12.635  0.00  0.00    -0.002 C 
ATOM     32  C   UNL     1      37.316 -25.670 -13.943  0.00  0.00    -0.004 C 
ATOM     33  C   UNL     1      36.747 -24.391 -11.530  0.00  0.00    +0.030 C 
ATOM     34  C   UNL     1      38.146 -25.863 -12.838  0.00  0.00    -0.000 C 
ATOM     35  C   UNL     1      37.862 -25.224 -11.632  0.00  0.00    +0.003 C 
BRANCH  33  38
ATOM     36  N   UNL     1      37.094 -22.538  -9.913  0.00  0.00    -0.343 N 
ATOM     37  N   UNL     1      35.564 -24.241  -9.444  0.00  0.00    -0.285 NA
ATOM     38  C   UNL     1      36.453 -23.723 -10.273  0.00  0.00    +0.117 C 
ATOM     39  H   UNL     1      36.880 -22.103  -9.056  0.00  0.00    +0.144 HD
ATOM     40  H   UNL     1      37.763 -22.138 -10.515  0.00  0.00    +0.144 HD
ATOM     41  H   UNL     1      35.363 -23.791  -8.593  0.00  0.00    +0.188 HD
ENDBRANCH  33  38
ENDBRANCH  29  30
ENDBRANCH  24  29
ENDBRANCH  22  24
ENDBRANCH   2  22
TORSDOF 11
ENDMDL
MODEL 2
REMARK VINA RESULT:     -11.3      1.978      2.733
REMARK  Name = 5497056
REMARK  11 active torsions:
REMARK  status: ('A' for Active; 'I' for Inactive)
REMARK    1  A    between atoms: N_2  and  C_22
REMARK    2  A    between atoms: C_3  and  C_5
REMARK    3  A    between atoms: C_8  and  C_11
REMARK    4  A    between atoms: C_13  and  C_17
REMARK    5  A    between atoms: C_17  and  N_18
REMARK    6  A    between atoms: C_22  and  C_24
REMARK    7  A    between atoms: C_24  and  C_26
REMARK    8  A    between atoms: C_24  and  C_29
REMARK    9  A    between atoms: C_26  and  O_27
REMARK   10  A    between atoms: C_29  and  C_30
REMARK   11  A    between atoms: C_33  and  C_38
REMARK                            x       y       z     vdW  Elec       q    Type
REMARK                         _______ _______ _______ _____ _____    ______ ____
ROOT
ATOM      1  O   UNL     1      33.943 -23.570 -18.605  0.00  0.00    -0.270 OA
ATOM      2  N   UNL     1      33.807 -22.177 -16.756  0.00  0.00    -0.302 N 
ATOM      3  C   UNL     1      33.963 -22.448 -18.107  0.00  0.00    +0.246 C 
ATOM      4  H   UNL     1      33.839 -21.240 -16.454  0.00  0.00    +0.150 HD
ENDROOT
BRANCH   3   5
ATOM      5  C   UNL     1      34.196 -21.270 -18.982  0.00  0.00    +0.053 C 
ATOM      6  C   UNL     1      35.497 -20.890 -19.308  0.00  0.00    +0.005 C 
ATOM      7  C   UNL     1      33.112 -20.544 -19.477  0.00  0.00    +0.005 C 
ATOM      8  C   UNL     1      34.633 -19.058 -20.626  0.00  0.00    -0.000 C 
ATOM      9  C   UNL     1      35.716 -19.784 -20.130  0.00  0.00    +0.000 C 
ATOM     10  C   UNL     1      33.331 -19.438 -20.299  0.00  0.00    +0.000 C 
BRANCH   8  11
ATOM     11  C   UNL     1      34.861 -17.912 -21.479  0.00  0.00    -0.000 C 
ATOM     12  C   UNL     1      34.440 -17.937 -22.808  0.00  0.00    -0.006 C 
ATOM     13  C   UNL     1      34.660 -16.831 -23.629  0.00  0.00    -0.044 C 
ATOM     14  C   UNL     1      35.502 -16.782 -20.970  0.00  0.00    -0.000 C 
ATOM     15  C   UNL     1      35.302 -15.701 -23.121  0.00  0.00    -0.006 C 
ATOM     16  C   UNL     1      35.722 -15.676 -21.791  0.00  0.00    -0.000 C 
BRANCH  13  17
ATOM     17  C   UNL     1      34.209 -16.856 -25.051  0.00  0.00    -0.059 C 
BRANCH  17  18
ATOM     18  N   UNL     1      33.318 -15.740 -25.374  0.00  0.00    +0.383 N 
ATOM     19  H   UNL     1      33.492 -14.970 -24.728  0.00  0.00    -0.089 HD
ATOM     20  H   UNL     1      32.348 -16.043 -25.289  0.00  0.00    -0.089 HD
ATOM     21  H   UNL     1      33.496 -15.431 -26.329  0.00  0.00    -0.089 HD
ENDBRANCH  17  18
ENDBRANCH  13  17
ENDBRANCH   8  11
ENDBRANCH   3   5
BRANCH   2  22
ATOM     22  C   UNL     1      33.599 -23.217 -15.776  0.00  0.00    +0.083 C 
ATOM     23  C   UNL     1      32.208 -23.087 -15.159  0.00  0.00    +0.022 C 
BRANCH  22  24
ATOM     24  C   UNL     1      34.714 -23.257 -14.707  0.00  0.00    +0.121 C 
BRANCH  24  26
ATOM     25  O   UNL     1      35.835 -21.158 -14.181  0.00  0.00    -0.250 OA
ATOM     26  C   UNL     1      35.722 -22.132 -14.915  0.00  0.00    +0.319 C 
BRANCH  26  27
ATOM     27  O   UNL     1      36.465 -22.381 -16.032  0.00  0.00    -0.444 OA
ATOM     28  C   UNL     1      37.546 -21.472 -16.268  0.00  0.00    +0.256 C 
ENDBRANCH  26  27
ENDBRANCH  24  26
BRANCH  24  29
ATOM     29  C   UNL     1      35.443 -24.617 -14.682  0.00  0.00    +0.039 C 
BRANCH  29  30
ATOM     30  C   UNL     1      36.625 -24.631 -13.741  0.00  0.00    -0.021 C 
ATOM     31  C   UNL     1      37.914 -24.805 -14.243  0.00  0.00    -0.002 C 
ATOM     32  C   UNL     1      36.426 -24.472 -12.370  0.00  0.00    -0.004 C 
ATOM     33  C   UNL     1      39.006 -24.820 -13.374  0.00  0.00    +0.030 C 
ATOM     34  C   UNL     1      37.517 -24.487 -11.500  0.00  0.00    -0.000 C 
ATOM     35  C   UNL     1      38.807 -24.661 -12.002  0.00  0.00    +0.003 C 
BRANCH  33  38
ATOM     36  N   UNL     1      40.935 -26.266 -13.967  0.00  0.00    -0.343 N 
ATOM     37  N   UNL     1      41.042 -23.958 -14.313  0.00  0.00    -0.285 NA
ATOM     38  C   UNL     1      40.350 -25.003 -13.897  0.00  0.00    +0.117 C 
ATOM     39  H   UNL     1      41.847 -26.367 -14.324  0.00  0.00    +0.144 HD
ATOM     40  H   UNL     1      40.436 -27.058 -13.658  0.00  0.00    +0.144 HD
ATOM     41  H   UNL     1      41.952 -24.080 -14.667  0.00  0.00    +0.188 HD
ENDBRANCH  33  38
ENDBRANCH  29  30
ENDBRANCH  24  29
ENDBRANCH  22  24
ENDBRANCH   2  22
TORSDOF 11
ENDMDL
MODEL 3
REMARK VINA RESULT:     -11.2      6.471     14.059
REMARK  Name = 5497056
REMARK  11 active torsions:
REMARK  status: ('A' for Active; 'I' for Inactive)
REMARK    1  A    between atoms: N_2  and  C_22
REMARK    2  A    between atoms: C_3  and  C_5
REMARK    3  A    between atoms: C_8  and  C_11
REMARK    4  A    between atoms: C_13  and  C_17
REMARK    5  A    between atoms: C_17  and  N_18
REMARK    6  A    between atoms: C_22  and  C_24
REMARK    7  A    between atoms: C_24  and  C_26
REMARK    8  A    between atoms: C_24  and  C_29
REMARK    9  A    between atoms: C_26  and  O_27
REMARK   10  A    between atoms: C_29  and  C_30
REMARK   11  A    between atoms: C_33  and  C_38
REMARK                            x       y       z     vdW  Elec       q    Type
REMARK                         _______ _______ _______ _____ _____    ______ ____
ROOT
ATOM      1  O   UNL     1      33.793 -12.703 -24.639  0.00  0.00    -0.270 OA
ATOM      2  N   UNL     1      34.002 -11.600 -22.610  0.00  0.00    -0.302 N 
ATOM      3  C   UNL     1      34.066 -12.707 -23.442  0.00  0.00    +0.246 C 
ATOM      4  H   UNL     1      34.241 -11.706 -21.661  0.00  0.00    +0.150 HD
ENDROOT
BRANCH   3   5
ATOM      5  C   UNL     1      34.474 -13.981 -22.796  0.00  0.00    +0.053 C 
ATOM      6  C   UNL     1      34.770 -15.097 -23.579  0.00  0.00    +0.005 C 
ATOM      7  C   UNL     1      34.561 -14.062 -21.406  0.00  0.00    +0.005 C 
ATOM      8  C   UNL     1      35.241 -16.373 -21.582  0.00  0.00    -0.000 C 
ATOM      9  C   UNL     1      35.154 -16.293 -22.972  0.00  0.00    +0.000 C 
ATOM     10  C   UNL     1      34.945 -15.257 -20.799  0.00  0.00    +0.000 C 
BRANCH   8  11
ATOM     11  C   UNL     1      35.640 -17.614 -20.954  0.00  0.00    -0.000 C 
ATOM     12  C   UNL     1      34.674 -18.476 -20.435  0.00  0.00    -0.006 C 
ATOM     13  C   UNL     1      35.060 -19.672 -19.830  0.00  0.00    -0.044 C 
ATOM     14  C   UNL     1      36.992 -17.948 -20.868  0.00  0.00    -0.000 C 
ATOM     15  C   UNL     1      36.412 -20.006 -19.743  0.00  0.00    -0.006 C 
ATOM     16  C   UNL     1      37.378 -19.144 -20.263  0.00  0.00    -0.000 C 
BRANCH  13  17
ATOM     17  C   UNL     1      34.027 -20.594 -19.277  0.00  0.00    -0.059 C 
BRANCH  17  18
ATOM     18  N   UNL     1      32.666 -20.102 -19.492  0.00  0.00    +0.383 N 
ATOM     19  H   UNL     1      32.495 -20.002 -20.493  0.00  0.00    -0.089 HD
ATOM     20  H   UNL     1      32.555 -19.196 -19.037  0.00  0.00    -0.089 HD
ATOM     21  H   UNL     1      31.998 -20.764 -19.097  0.00  0.00    -0.089 HD
ENDBRANCH  17  18
ENDBRANCH  13  17
ENDBRANCH   8  11
ENDBRANCH   3   5
BRANCH   2  22
ATOM     22  C   UNL     1      33.597 -10.297 -23.085  0.00  0.00    +0.083 C 
ATOM     23  C   UNL     1      34.812  -9.523 -23.593  0.00  0.00    +0.022 C 
BRANCH  22  24
ATOM     24  C   UNL     1      32.795  -9.504 -22.029  0.00  0.00    +0.121 C 
BRANCH  24  26
ATOM     25  O   UNL     1      31.489 -11.456 -21.382  0.00  0.00    -0.250 OA
ATOM     26  C   UNL     1      32.084 -10.438 -21.056  0.00  0.00    +0.319 C 
BRANCH  26  27
ATOM     27  O   UNL     1      32.215  -9.962 -19.783  0.00  0.00    -0.444 OA
ATOM     28  C   UNL     1      31.091 -10.182 -18.925  0.00  0.00    +0.256 C 
ENDBRANCH  26  27
ENDBRANCH  24  26
BRANCH  24  29
ATOM     29  C   UNL     1      31.775  -8.545 -22.677  0.00  0.00    +0.039 C 
BRANCH  29  30
ATOM     30  C   UNL     1      31.936  -7.116 -22.212  0.00  0.00    -0.021 C 
ATOM     31  C   UNL     1      32.126  -6.841 -20.859  0.00  0.00    -0.002 C 
ATOM     32  C   UNL     1      31.894  -6.073 -23.137  0.00  0.00    -0.004 C 
ATOM     33  C   UNL     1      32.273  -5.522 -20.429  0.00  0.00    +0.030 C 
ATOM     34  C   UNL     1      32.040  -4.754 -22.708  0.00  0.00    -0.000 C 
ATOM     35  C   UNL     1      32.230  -4.477 -21.354  0.00  0.00    +0.003 C 
BRANCH  33  38
ATOM     36  N   UNL     1      32.380  -6.236 -18.053  0.00  0.00    -0.343 N 
ATOM     37  N   UNL     1      32.733  -3.999 -18.628  0.00  0.00    -0.285 NA
ATOM     38  C   UNL     1      32.468  -5.233 -19.017  0.00  0.00    +0.117 C 
ATOM     39  H   UNL     1      32.515  -6.019 -17.103  0.00  0.00    +0.144 HD
ATOM     40  H   UNL     1      32.180  -7.162 -18.323  0.00  0.00    +0.144 HD
ATOM     41  H   UNL     1      32.865  -3.802 -17.673  0.00  0.00    +0.188 HD
ENDBRANCH  33  38
ENDBRANCH  29  30
ENDBRANCH  24  29
ENDBRANCH  22  24
ENDBRANCH   2  22
TORSDOF 11
ENDMDL
MODEL 4
REMARK VINA RESULT:     -11.2      6.354     14.123
REMARK  Name = 5497056
REMARK  11 active torsions:
REMARK  status: ('A' for Active; 'I' for Inactive)
REMARK    1  A    between atoms: N_2  and  C_22
REMARK    2  A    between atoms: C_3  and  C_5
REMARK    3  A    between atoms: C_8  and  C_11
REMARK    4  A    between atoms: C_13  and  C_17
REMARK    5  A    between atoms: C_17  and  N_18
REMARK    6  A    between atoms: C_22  and  C_24
REMARK    7  A    between atoms: C_24  and  C_26
REMARK    8  A    between atoms: C_24  and  C_29
REMARK    9  A    between atoms: C_26  and  O_27
REMARK   10  A    between atoms: C_29  and  C_30
REMARK   11  A    between atoms: C_33  and  C_38
REMARK                            x       y       z     vdW  Elec       q    Type
REMARK                         _______ _______ _______ _____ _____    ______ ____
ROOT
ATOM      1  O   UNL     1      33.873 -12.925 -24.493  0.00  0.00    -0.270 OA
ATOM      2  N   UNL     1      33.948 -11.853 -22.438  0.00  0.00    -0.302 N 
ATOM      3  C   UNL     1      34.084 -12.943 -23.284  0.00  0.00    +0.246 C 
ATOM      4  H   UNL     1      34.142 -11.969 -21.480  0.00  0.00    +0.150 HD
ENDROOT
BRANCH   3   5
ATOM      5  C   UNL     1      34.494 -14.217 -22.638  0.00  0.00    +0.053 C 
ATOM      6  C   UNL     1      34.594 -14.293 -21.248  0.00  0.00    +0.005 C 
ATOM      7  C   UNL     1      34.778 -15.337 -23.420  0.00  0.00    +0.005 C 
ATOM      8  C   UNL     1      35.262 -16.609 -21.423  0.00  0.00    -0.000 C 
ATOM      9  C   UNL     1      34.979 -15.489 -20.642  0.00  0.00    +0.000 C 
ATOM     10  C   UNL     1      35.161 -16.532 -22.813  0.00  0.00    +0.000 C 
BRANCH   8  11
ATOM     11  C   UNL     1      35.659 -17.849 -20.792  0.00  0.00    -0.000 C 
ATOM     12  C   UNL     1      34.691 -18.718 -20.291  0.00  0.00    -0.006 C 
ATOM     13  C   UNL     1      35.075 -19.913 -19.683  0.00  0.00    -0.044 C 
ATOM     14  C   UNL     1      37.012 -18.174 -20.686  0.00  0.00    -0.000 C 
ATOM     15  C   UNL     1      36.427 -20.238 -19.576  0.00  0.00    -0.006 C 
ATOM     16  C   UNL     1      37.396 -19.369 -20.078  0.00  0.00    -0.000 C 
BRANCH  13  17
ATOM     17  C   UNL     1      34.040 -20.844 -19.148  0.00  0.00    -0.059 C 
BRANCH  17  18
ATOM     18  N   UNL     1      32.684 -20.312 -19.292  0.00  0.00    +0.383 N 
ATOM     19  H   UNL     1      32.671 -19.609 -20.030  0.00  0.00    -0.089 HD
ATOM     20  H   UNL     1      32.390 -19.887 -18.412  0.00  0.00    -0.089 HD
ATOM     21  H   UNL     1      32.045 -21.071 -19.532  0.00  0.00    -0.089 HD
ENDBRANCH  17  18
ENDBRANCH  13  17
ENDBRANCH   8  11
ENDBRANCH   3   5
BRANCH   2  22
ATOM     22  C   UNL     1      33.533 -10.553 -22.912  0.00  0.00    +0.083 C 
ATOM     23  C   UNL     1      34.714  -9.826 -23.553  0.00  0.00    +0.022 C 
BRANCH  22  24
ATOM     24  C   UNL     1      32.852  -9.710 -21.810  0.00  0.00    +0.121 C 
BRANCH  24  26
ATOM     25  O   UNL     1      30.562 -10.422 -21.380  0.00  0.00    -0.250 OA
ATOM     26  C   UNL     1      31.753 -10.499 -21.107  0.00  0.00    +0.319 C 
BRANCH  26  27
ATOM     27  O   UNL     1      32.302 -11.290 -20.140  0.00  0.00    -0.444 OA
ATOM     28  C   UNL     1      31.741 -11.142 -18.832  0.00  0.00    +0.256 C 
ENDBRANCH  26  27
ENDBRANCH  24  26
BRANCH  24  29
ATOM     29  C   UNL     1      32.279  -8.389 -22.364  0.00  0.00    +0.039 C 
BRANCH  29  30
ATOM     30  C   UNL     1      32.281  -7.275 -21.342  0.00  0.00    -0.021 C 
ATOM     31  C   UNL     1      31.576  -6.099 -21.592  0.00  0.00    -0.002 C 
ATOM     32  C   UNL     1      32.990  -7.424 -20.150  0.00  0.00    -0.004 C 
ATOM     33  C   UNL     1      31.579  -5.070 -20.650  0.00  0.00    +0.030 C 
ATOM     34  C   UNL     1      32.994  -6.395 -19.208  0.00  0.00    -0.000 C 
ATOM     35  C   UNL     1      32.289  -5.218 -19.457  0.00  0.00    +0.003 C 
BRANCH  33  38
ATOM     36  N   UNL     1      29.607  -3.598 -20.318  0.00  0.00    -0.343 N 
ATOM     37  N   UNL     1      31.350  -2.933 -21.725  0.00  0.00    -0.285 NA
ATOM     38  C   UNL     1      30.845  -3.842 -20.910  0.00  0.00    +0.117 C 
ATOM     39  H   UNL     1      29.126  -2.760 -20.509  0.00  0.00    +0.144 HD
ATOM     40  H   UNL     1      29.211  -4.265 -19.710  0.00  0.00    +0.144 HD
ATOM     41  H   UNL     1      30.855  -2.102 -21.903  0.00  0.00    +0.188 HD
ENDBRANCH  33  38
ENDBRANCH  29  30
ENDBRANCH  24  29
ENDBRANCH  22  24
ENDBRANCH   2  22
TORSDOF 11
ENDMDL
MODEL 5
REMARK VINA RESULT:     -11.1      2.546      3.822
REMARK  Name = 5497056
REMARK  11 active torsions:
REMARK  status: ('A' for Active; 'I' for Inactive)
REMARK    1  A    between atoms: N_2  and  C_22
REMARK    2  A    between atoms: C_3  and  C_5
REMARK    3  A    between atoms: C_8  and  C_11
REMARK    4  A    between atoms: C_13  and  C_17
REMARK    5  A    between atoms: C_17  and  N_18
REMARK    6  A    between atoms: C_22  and  C_24
REMARK    7  A    between atoms: C_24  and  C_26
REMARK    8  A    between atoms: C_24  and  C_29
REMARK    9  A    between atoms: C_26  and  O_27
REMARK   10  A    between atoms: C_29  and  C_30
REMARK   11  A    between atoms: C_33  and  C_38
REMARK                            x       y       z     vdW  Elec       q    Type
REMARK                         _______ _______ _______ _____ _____    ______ ____
ROOT
ATOM      1  O   UNL     1      33.501 -23.517 -16.874  0.00  0.00    -0.270 OA
ATOM      2  N   UNL     1      31.759 -22.041 -16.467  0.00  0.00    -0.302 N 
ATOM      3  C   UNL     1      32.918 -22.461 -17.103  0.00  0.00    +0.246 C 
ATOM      4  H   UNL     1      31.367 -21.174 -16.721  0.00  0.00    +0.150 HD
ENDROOT
BRANCH   3   5
ATOM      5  C   UNL     1      33.479 -21.525 -18.110  0.00  0.00    +0.053 C 
ATOM      6  C   UNL     1      32.628 -20.707 -18.853  0.00  0.00    +0.005 C 
ATOM      7  C   UNL     1      34.858 -21.465 -18.315  0.00  0.00    +0.005 C 
ATOM      8  C   UNL     1      34.534 -19.767 -20.003  0.00  0.00    -0.000 C 
ATOM      9  C   UNL     1      33.156 -19.828 -19.799  0.00  0.00    +0.000 C 
ATOM     10  C   UNL     1      35.385 -20.586 -19.261  0.00  0.00    +0.000 C 
BRANCH   8  11
ATOM     11  C   UNL     1      35.080 -18.854 -20.985  0.00  0.00    -0.000 C 
ATOM     12  C   UNL     1      34.413 -18.649 -22.192  0.00  0.00    -0.006 C 
ATOM     13  C   UNL     1      34.940 -17.768 -23.137  0.00  0.00    -0.044 C 
ATOM     14  C   UNL     1      36.272 -18.181 -20.721  0.00  0.00    -0.000 C 
ATOM     15  C   UNL     1      36.133 -17.095 -22.875  0.00  0.00    -0.006 C 
ATOM     16  C   UNL     1      36.799 -17.301 -21.667  0.00  0.00    -0.000 C 
BRANCH  13  17
ATOM     17  C   UNL     1      34.227 -17.547 -24.429  0.00  0.00    -0.059 C 
BRANCH  17  18
ATOM     18  N   UNL     1      34.235 -16.141 -24.836  0.00  0.00    +0.383 N 
ATOM     19  H   UNL     1      33.277 -15.825 -24.987  0.00  0.00    -0.089 HD
ATOM     20  H   UNL     1      34.766 -16.040 -25.701  0.00  0.00    -0.089 HD
ATOM     21  H   UNL     1      34.668 -15.578 -24.104  0.00  0.00    -0.089 HD
ENDBRANCH  17  18
ENDBRANCH  13  17
ENDBRANCH   8  11
ENDBRANCH   3   5
BRANCH   2  22
ATOM     22  C   UNL     1      31.107 -22.827 -15.446  0.00  0.00    +0.083 C 
ATOM     23  C   UNL     1      30.061 -21.982 -14.720  0.00  0.00    +0.022 C 
BRANCH  22  24
ATOM     24  C   UNL     1      32.110 -23.485 -14.472  0.00  0.00    +0.121 C 
BRANCH  24  26
ATOM     25  O   UNL     1      31.538 -24.458 -12.312  0.00  0.00    -0.250 OA
ATOM     26  C   UNL     1      31.410 -24.459 -13.529  0.00  0.00    +0.319 C 
BRANCH  26  27
ATOM     27  O   UNL     1      30.632 -25.318 -14.250  0.00  0.00    -0.444 OA
ATOM     28  C   UNL     1      29.223 -25.212 -14.021  0.00  0.00    +0.256 C 
ENDBRANCH  26  27
ENDBRANCH  24  26
BRANCH  24  29
ATOM     29  C   UNL     1      32.896 -22.438 -13.657  0.00  0.00    +0.039 C 
BRANCH  29  30
ATOM     30  C   UNL     1      34.360 -22.788 -13.511  0.00  0.00    -0.021 C 
ATOM     31  C   UNL     1      35.293 -22.270 -14.408  0.00  0.00    -0.002 C 
ATOM     32  C   UNL     1      34.775 -23.630 -12.480  0.00  0.00    -0.004 C 
ATOM     33  C   UNL     1      36.643 -22.594 -14.275  0.00  0.00    +0.030 C 
ATOM     34  C   UNL     1      36.126 -23.955 -12.347  0.00  0.00    -0.000 C 
ATOM     35  C   UNL     1      37.060 -23.437 -13.243  0.00  0.00    +0.003 C 
BRANCH  33  38
ATOM     36  N   UNL     1      37.402 -20.844 -15.865  0.00  0.00    -0.343 N 
ATOM     37  N   UNL     1      38.731 -22.722 -15.457  0.00  0.00    -0.285 NA
ATOM     38  C   UNL     1      37.617 -22.056 -15.211  0.00  0.00    +0.117 C 
ATOM     39  H   UNL     1      38.074 -20.499 -16.496  0.00  0.00    +0.144 HD
ATOM     40  H   UNL     1      36.576 -20.334 -15.697  0.00  0.00    +0.144 HD
ATOM     41  H   UNL     1      39.391 -22.360 -16.091  0.00  0.00    +0.188 HD
ENDBRANCH  33  38
ENDBRANCH  29  30
ENDBRANCH  24  29
ENDBRANCH  22  24
ENDBRANCH   2  22
TORSDOF 11
ENDMDL
MODEL 6
REMARK VINA RESULT:     -11.1      2.301      3.388
REMARK  Name = 5497056
REMARK  11 active torsions:
REMARK  status: ('A' for Active; 'I' for Inactive)
REMARK    1  A    between atoms: N_2  and  C_22
REMARK    2  A    between atoms: C_3  and  C_5
REMARK    3  A    between atoms: C_8  and  C_11
REMARK    4  A    between atoms: C_13  and  C_17
REMARK    5  A    between atoms: C_17  and  N_18
REMARK    6  A    between atoms: C_22  and  C_24
REMARK    7  A    between atoms: C_24  and  C_26
REMARK    8  A    between atoms: C_24  and  C_29
REMARK    9  A    between atoms: C_26  and  O_27
REMARK   10  A    between atoms: C_29  and  C_30
REMARK   11  A    between atoms: C_33  and  C_38
REMARK                            x       y       z     vdW  Elec       q    Type
REMARK                         _______ _______ _______ _____ _____    ______ ____
ROOT
ATOM      1  O   UNL     1      33.902 -23.601 -17.843  0.00  0.00    -0.270 OA
ATOM      2  N   UNL     1      32.674 -22.111 -16.559  0.00  0.00    -0.302 N 
ATOM      3  C   UNL     1      33.470 -22.471 -17.636  0.00  0.00    +0.246 C 
ATOM      4  H   UNL     1      32.378 -21.175 -16.481  0.00  0.00    +0.150 HD
ENDROOT
BRANCH   3   5
ATOM      5  C   UNL     1      33.827 -21.375 -18.573  0.00  0.00    +0.053 C 
ATOM      6  C   UNL     1      35.167 -21.052 -18.789  0.00  0.00    +0.005 C 
ATOM      7  C   UNL     1      32.824 -20.668 -19.236  0.00  0.00    +0.005 C 
ATOM      8  C   UNL     1      34.499 -19.317 -20.333  0.00  0.00    -0.000 C 
ATOM      9  C   UNL     1      35.503 -20.022 -19.669  0.00  0.00    +0.000 C 
ATOM     10  C   UNL     1      33.160 -19.640 -20.116  0.00  0.00    +0.000 C 
BRANCH   8  11
ATOM     11  C   UNL     1      34.849 -18.250 -21.246  0.00  0.00    -0.000 C 
ATOM     12  C   UNL     1      34.442 -18.311 -22.579  0.00  0.00    -0.006 C 
ATOM     13  C   UNL     1      34.780 -17.282 -23.458  0.00  0.00    -0.044 C 
ATOM     14  C   UNL     1      35.593 -17.161 -20.792  0.00  0.00    -0.000 C 
ATOM     15  C   UNL     1      35.525 -16.193 -23.004  0.00  0.00    -0.006 C 
ATOM     16  C   UNL     1      35.931 -16.132 -21.671  0.00  0.00    -0.000 C 
BRANCH  13  17
ATOM     17  C   UNL     1      34.344 -17.346 -24.883  0.00  0.00    -0.059 C 
BRANCH  17  18
ATOM     18  N   UNL     1      33.045 -18.002 -25.040  0.00  0.00    +0.383 N 
ATOM     19  H   UNL     1      32.499 -17.509 -25.747  0.00  0.00    -0.089 HD
ATOM     20  H   UNL     1      32.545 -17.984 -24.151  0.00  0.00    -0.089 HD
ATOM     21  H   UNL     1      33.186 -18.969 -25.331  0.00  0.00    -0.089 HD
ENDBRANCH  17  18
ENDBRANCH  13  17
ENDBRANCH   8  11
ENDBRANCH   3   5
BRANCH   2  22
ATOM     22  C   UNL     1      32.263 -23.058 -15.549  0.00  0.00    +0.083 C 
ATOM     23  C   UNL     1      30.876 -22.695 -15.022  0.00  0.00    +0.022 C 
BRANCH  22  24
ATOM     24  C   UNL     1      33.302 -23.204 -14.415  0.00  0.00    +0.121 C 
BRANCH  24  26
ATOM     25  O   UNL     1      32.606 -22.362 -12.236  0.00  0.00    -0.250 OA
ATOM     26  C   UNL     1      32.627 -23.277 -13.049  0.00  0.00    +0.319 C 
BRANCH  26  27
ATOM     27  O   UNL     1      32.059 -24.507 -12.883  0.00  0.00    -0.444 OA
ATOM     28  C   UNL     1      30.674 -24.502 -12.521  0.00  0.00    +0.256 C 
ENDBRANCH  26  27
ENDBRANCH  24  26
BRANCH  24  29
ATOM     29  C   UNL     1      34.338 -22.062 -14.428  0.00  0.00    +0.039 C 
BRANCH  29  30
ATOM     30  C   UNL     1      35.762 -22.562 -14.517  0.00  0.00    -0.021 C 
ATOM     31  C   UNL     1      36.144 -23.702 -13.812  0.00  0.00    -0.002 C 
ATOM     32  C   UNL     1      36.692 -21.882 -15.301  0.00  0.00    -0.004 C 
ATOM     33  C   UNL     1      37.459 -24.164 -13.892  0.00  0.00    +0.030 C 
ATOM     34  C   UNL     1      38.007 -22.342 -15.381  0.00  0.00    -0.000 C 
ATOM     35  C   UNL     1      38.391 -23.483 -14.677  0.00  0.00    +0.003 C 
BRANCH  33  38
ATOM     36  N   UNL     1      39.076 -25.984 -13.405  0.00  0.00    -0.343 N 
ATOM     37  N   UNL     1      37.060 -25.855 -12.232  0.00  0.00    -0.285 NA
ATOM     38  C   UNL     1      37.859 -25.352 -13.156  0.00  0.00    +0.117 C 
ATOM     39  H   UNL     1      39.327 -26.788 -12.896  0.00  0.00    +0.144 HD
ATOM     40  H   UNL     1      39.685 -25.627 -14.093  0.00  0.00    +0.144 HD
ATOM     41  H   UNL     1      37.329 -26.659 -11.733  0.00  0.00    +0.188 HD
ENDBRANCH  33  38
ENDBRANCH  29  30
ENDBRANCH  24  29
ENDBRANCH  22  24
ENDBRANCH   2  22
TORSDOF 11
ENDMDL
MODEL 7
REMARK VINA RESULT:     -10.9      5.649      9.900
REMARK  Name = 5497056
REMARK  11 active torsions:
REMARK  status: ('A' for Active; 'I' for Inactive)
REMARK    1  A    between atoms: N_2  and  C_22
REMARK    2  A    between atoms: C_3  and  C_5
REMARK    3  A    between atoms: C_8  and  C_11
REMARK    4  A    between atoms: C_13  and  C_17
REMARK    5  A    between atoms: C_17  and  N_18
REMARK    6  A    between atoms: C_22  and  C_24
REMARK    7  A    between atoms: C_24  and  C_26
REMARK    8  A    between atoms: C_24  and  C_29
REMARK    9  A    between atoms: C_26  and  O_27
REMARK   10  A    between atoms: C_29  and  C_30
REMARK   11  A    between atoms: C_33  and  C_38
REMARK                            x       y       z     vdW  Elec       q    Type
REMARK                         _______ _______ _______ _____ _____    ______ ____
ROOT
ATOM      1  O   UNL     1      32.171 -13.881 -19.843  0.00  0.00    -0.270 OA
ATOM      2  N   UNL     1      34.099 -13.976 -21.128  0.00  0.00    -0.302 N 
ATOM      3  C   UNL     1      32.982 -13.349 -20.595  0.00  0.00    +0.246 C 
ATOM      4  H   UNL     1      34.691 -13.462 -21.724  0.00  0.00    +0.150 HD
ENDROOT
BRANCH   3   5
ATOM      5  C   UNL     1      32.772 -11.938 -21.008  0.00  0.00    +0.053 C 
ATOM      6  C   UNL     1      32.025 -11.079 -20.202  0.00  0.00    +0.005 C 
ATOM      7  C   UNL     1      33.322 -11.471 -22.202  0.00  0.00    +0.005 C 
ATOM      8  C   UNL     1      32.378  -9.287 -21.784  0.00  0.00    -0.000 C 
ATOM      9  C   UNL     1      31.827  -9.754 -20.590  0.00  0.00    +0.000 C 
ATOM     10  C   UNL     1      33.125 -10.146 -22.590  0.00  0.00    +0.000 C 
BRANCH   8  11
ATOM     11  C   UNL     1      32.173  -7.911 -22.184  0.00  0.00    -0.000 C 
ATOM     12  C   UNL     1      32.042  -6.915 -21.217  0.00  0.00    -0.006 C 
ATOM     13  C   UNL     1      31.844  -5.590 -21.604  0.00  0.00    -0.044 C 
ATOM     14  C   UNL     1      32.107  -7.583 -23.538  0.00  0.00    -0.000 C 
ATOM     15  C   UNL     1      31.778  -5.261 -22.958  0.00  0.00    -0.006 C 
ATOM     16  C   UNL     1      31.910  -6.258 -23.925  0.00  0.00    -0.000 C 
BRANCH  13  17
ATOM     17  C   UNL     1      31.705  -4.524 -20.570  0.00  0.00    -0.059 C 
BRANCH  17  18
ATOM     18  N   UNL     1      30.382  -3.898 -20.589  0.00  0.00    +0.383 N 
ATOM     19  H   UNL     1      29.703  -4.525 -20.156  0.00  0.00    -0.089 HD
ATOM     20  H   UNL     1      30.107  -3.712 -21.553  0.00  0.00    -0.089 HD
ATOM     21  H   UNL     1      30.415  -3.020 -20.070  0.00  0.00    -0.089 HD
ENDBRANCH  17  18
ENDBRANCH  13  17
ENDBRANCH   8  11
ENDBRANCH   3   5
BRANCH   2  22
ATOM     22  C   UNL     1      34.425 -15.353 -20.841  0.00  0.00    +0.083 C 
ATOM     23  C   UNL     1      35.111 -15.458 -19.480  0.00  0.00    +0.022 C 
BRANCH  22  24
ATOM     24  C   UNL     1      35.250 -16.015 -21.967  0.00  0.00    +0.121 C 
BRANCH  24  26
ATOM     25  O   UNL     1      35.582 -14.054 -23.377  0.00  0.00    -0.250 OA
ATOM     26  C   UNL     1      35.178 -15.204 -23.257  0.00  0.00    +0.319 C 
BRANCH  26  27
ATOM     27  O   UNL     1      34.599 -15.954 -24.239  0.00  0.00    -0.444 OA
ATOM     28  C   UNL     1      33.752 -15.237 -25.143  0.00  0.00    +0.256 C 
ENDBRANCH  26  27
ENDBRANCH  24  26
BRANCH  24  29
ATOM     29  C   UNL     1      34.805 -17.467 -22.234  0.00  0.00    +0.039 C 
BRANCH  29  30
ATOM     30  C   UNL     1      35.284 -18.431 -21.173  0.00  0.00    -0.021 C 
ATOM     31  C   UNL     1      34.391 -19.335 -20.599  0.00  0.00    -0.002 C 
ATOM     32  C   UNL     1      36.618 -18.415 -20.768  0.00  0.00    -0.004 C 
ATOM     33  C   UNL     1      34.833 -20.225 -19.619  0.00  0.00    +0.030 C 
ATOM     34  C   UNL     1      37.060 -19.304 -19.787  0.00  0.00    -0.000 C 
ATOM     35  C   UNL     1      36.168 -20.208 -19.212  0.00  0.00    +0.003 C 
BRANCH  33  38
ATOM     36  N   UNL     1      32.679 -20.747 -18.498  0.00  0.00    -0.343 N 
ATOM     37  N   UNL     1      34.213 -22.449 -18.955  0.00  0.00    -0.285 NA
ATOM     38  C   UNL     1      33.902 -21.167 -19.018  0.00  0.00    +0.117 C 
ATOM     39  H   UNL     1      32.064 -21.401 -18.095  0.00  0.00    +0.144 HD
ATOM     40  H   UNL     1      32.430 -19.794 -18.532  0.00  0.00    +0.144 HD
ATOM     41  H   UNL     1      33.584 -23.088 -18.549  0.00  0.00    +0.188 HD
ENDBRANCH  33  38
ENDBRANCH  29  30
ENDBRANCH  24  29
ENDBRANCH  22  24
ENDBRANCH   2  22
TORSDOF 11
ENDMDL
MODEL 8
REMARK VINA RESULT:     -10.6      4.091     11.044
REMARK  Name = 5497056
REMARK  11 active torsions:
REMARK  status: ('A' for Active; 'I' for Inactive)
REMARK    1  A    between atoms: N_2  and  C_22
REMARK    2  A    between atoms: C_3  and  C_5
REMARK    3  A    between atoms: C_8  and  C_11
REMARK    4  A    between atoms: C_13  and  C_17
REMARK    5  A    between atoms: C_17  and  N_18
REMARK    6  A    between atoms: C_22  and  C_24
REMARK    7  A    between atoms: C_24  and  C_26
REMARK    8  A    between atoms: C_24  and  C_29
REMARK    9  A    between atoms: C_26  and  O_27
REMARK   10  A    between atoms: C_29  and  C_30
REMARK   11  A    between atoms: C_33  and  C_38
REMARK                            x       y       z     vdW  Elec       q    Type
REMARK                         _______ _______ _______ _____ _____    ______ ____
ROOT
ATOM      1  O   UNL     1      36.877 -20.735 -20.005  0.00  0.00    -0.270 OA
ATOM      2  N   UNL     1      35.187 -19.293 -20.670  0.00  0.00    -0.302 N 
ATOM      3  C   UNL     1      35.736 -20.299 -19.889  0.00  0.00    +0.246 C 
ATOM      4  H   UNL     1      34.259 -19.013 -20.499  0.00  0.00    +0.150 HD
ENDROOT
BRANCH   3   5
ATOM      5  C   UNL     1      34.836 -20.886 -18.863  0.00  0.00    +0.053 C 
ATOM      6  C   UNL     1      35.373 -21.588 -17.784  0.00  0.00    +0.005 C 
ATOM      7  C   UNL     1      33.454 -20.735 -18.978  0.00  0.00    +0.005 C 
ATOM      8  C   UNL     1      33.146 -21.988 -16.935  0.00  0.00    -0.000 C 
ATOM      9  C   UNL     1      34.528 -22.139 -16.820  0.00  0.00    +0.000 C 
ATOM     10  C   UNL     1      32.609 -21.285 -18.014  0.00  0.00    +0.000 C 
BRANCH   8  11
ATOM     11  C   UNL     1      32.271 -22.559 -15.934  0.00  0.00    -0.000 C 
ATOM     12  C   UNL     1      30.888 -22.500 -16.101  0.00  0.00    -0.006 C 
ATOM     13  C   UNL     1      30.046 -23.051 -15.135  0.00  0.00    -0.044 C 
ATOM     14  C   UNL     1      32.813 -23.169 -14.803  0.00  0.00    -0.000 C 
ATOM     15  C   UNL     1      30.587 -23.660 -14.003  0.00  0.00    -0.006 C 
ATOM     16  C   UNL     1      31.970 -23.720 -13.837  0.00  0.00    -0.000 C 
BRANCH  13  17
ATOM     17  C   UNL     1      28.566 -22.989 -15.314  0.00  0.00    -0.059 C 
BRANCH  17  18
ATOM     18  N   UNL     1      28.184 -22.520 -16.647  0.00  0.00    +0.383 N 
ATOM     19  H   UNL     1      28.146 -23.313 -17.288  0.00  0.00    -0.089 HD
ATOM     20  H   UNL     1      28.872 -21.845 -16.981  0.00  0.00    -0.089 HD
ATOM     21  H   UNL     1      27.267 -22.076 -16.600  0.00  0.00    -0.089 HD
ENDBRANCH  17  18
ENDBRANCH  13  17
ENDBRANCH   8  11
ENDBRANCH   3   5
BRANCH   2  22
ATOM     22  C   UNL     1      35.927 -18.642 -21.726  0.00  0.00    +0.083 C 
ATOM     23  C   UNL     1      37.183 -17.983 -21.158  0.00  0.00    +0.022 C 
BRANCH  22  24
ATOM     24  C   UNL     1      35.060 -17.651 -22.535  0.00  0.00    +0.121 C 
BRANCH  24  26
ATOM     25  O   UNL     1      34.917 -19.382 -24.245  0.00  0.00    -0.250 OA
ATOM     26  C   UNL     1      34.621 -18.257 -23.864  0.00  0.00    +0.319 C 
BRANCH  26  27
ATOM     27  O   UNL     1      33.860 -17.356 -24.550  0.00  0.00    -0.444 OA
ATOM     28  C   UNL     1      32.784 -17.913 -25.313  0.00  0.00    +0.256 C 
ENDBRANCH  26  27
ENDBRANCH  24  26
BRANCH  24  29
ATOM     29  C   UNL     1      35.787 -16.314 -22.782  0.00  0.00    +0.039 C 
BRANCH  29  30
ATOM     30  C   UNL     1      35.139 -15.153 -22.062  0.00  0.00    -0.021 C 
ATOM     31  C   UNL     1      34.746 -14.022 -22.775  0.00  0.00    -0.002 C 
ATOM     32  C   UNL     1      34.935 -15.214 -20.683  0.00  0.00    -0.004 C 
ATOM     33  C   UNL     1      34.149 -12.950 -22.111  0.00  0.00    +0.030 C 
ATOM     34  C   UNL     1      34.339 -14.142 -20.018  0.00  0.00    -0.000 C 
ATOM     35  C   UNL     1      33.946 -13.010 -20.732  0.00  0.00    +0.003 C 
BRANCH  33  38
ATOM     36  N   UNL     1      34.126 -11.578 -24.181  0.00  0.00    -0.343 N 
ATOM     37  N   UNL     1      32.993 -10.850 -22.271  0.00  0.00    -0.285 NA
ATOM     38  C   UNL     1      33.741 -11.769 -22.855  0.00  0.00    +0.117 C 
ATOM     39  H   UNL     1      33.839 -10.770 -24.665  0.00  0.00    +0.144 HD
ATOM     40  H   UNL     1      34.687 -12.250 -24.633  0.00  0.00    +0.144 HD
ATOM     41  H   UNL     1      32.716 -10.049 -22.772  0.00  0.00    +0.188 HD
ENDBRANCH  33  38
ENDBRANCH  29  30
ENDBRANCH  24  29
ENDBRANCH  22  24
ENDBRANCH   2  22
TORSDOF 11
ENDMDL
MODEL 9
REMARK VINA RESULT:     -10.6      8.074     13.428
REMARK  Name = 5497056
REMARK  11 active torsions:
REMARK  status: ('A' for Active; 'I' for Inactive)
REMARK    1  A    between atoms: N_2  and  C_22
REMARK    2  A    between atoms: C_3  and  C_5
REMARK    3  A    between atoms: C_8  and  C_11
REMARK    4  A    between atoms: C_13  and  C_17
REMARK    5  A    between atoms: C_17  and  N_18
REMARK    6  A    between atoms: C_22  and  C_24
REMARK    7  A    between atoms: C_24  and  C_26
REMARK    8  A    between atoms: C_24  and  C_29
REMARK    9  A    between atoms: C_26  and  O_27
REMARK   10  A    between atoms: C_29  and  C_30
REMARK   11  A    between atoms: C_33  and  C_38
REMARK                            x       y       z     vdW  Elec       q    Type
REMARK                         _______ _______ _______ _____ _____    ______ ____
ROOT
ATOM      1  O   UNL     1      33.678 -10.139 -25.409  0.00  0.00    -0.270 OA
ATOM      2  N   UNL     1      33.713  -9.704 -23.132  0.00  0.00    -0.302 N 
ATOM      3  C   UNL     1      33.808 -10.519 -24.249  0.00  0.00    +0.246 C 
ATOM      4  H   UNL     1      33.832 -10.105 -22.240  0.00  0.00    +0.150 HD
ENDROOT
BRANCH   3   5
ATOM      5  C   UNL     1      34.060 -11.958 -23.981  0.00  0.00    +0.053 C 
ATOM      6  C   UNL     1      34.655 -12.351 -22.781  0.00  0.00    +0.005 C 
ATOM      7  C   UNL     1      33.703 -12.918 -24.928  0.00  0.00    +0.005 C 
ATOM      8  C   UNL     1      34.534 -14.662 -23.476  0.00  0.00    -0.000 C 
ATOM      9  C   UNL     1      34.892 -13.702 -22.530  0.00  0.00    +0.000 C 
ATOM     10  C   UNL     1      33.939 -14.269 -24.676  0.00  0.00    +0.000 C 
BRANCH   8  11
ATOM     11  C   UNL     1      34.780 -16.063 -23.213  0.00  0.00    -0.000 C 
ATOM     12  C   UNL     1      35.517 -16.444 -22.092  0.00  0.00    -0.006 C 
ATOM     13  C   UNL     1      35.753 -17.795 -21.839  0.00  0.00    -0.044 C 
ATOM     14  C   UNL     1      34.278 -17.033 -24.081  0.00  0.00    -0.000 C 
ATOM     15  C   UNL     1      35.252 -18.765 -22.708  0.00  0.00    -0.006 C 
ATOM     16  C   UNL     1      34.514 -18.384 -23.828  0.00  0.00    -0.000 C 
BRANCH  13  17
ATOM     17  C   UNL     1      36.540 -18.202 -20.640  0.00  0.00    -0.059 C 
BRANCH  17  18
ATOM     18  N   UNL     1      35.916 -19.308 -19.912  0.00  0.00    +0.383 N 
ATOM     19  H   UNL     1      34.951 -19.066 -19.687  0.00  0.00    -0.089 HD
ATOM     20  H   UNL     1      36.433 -19.484 -19.050  0.00  0.00    -0.089 HD
ATOM     21  H   UNL     1      35.930 -20.147 -20.493  0.00  0.00    -0.089 HD
ENDBRANCH  17  18
ENDBRANCH  13  17
ENDBRANCH   8  11
ENDBRANCH   3   5
BRANCH   2  22
ATOM     22  C   UNL     1      33.445  -8.287 -23.227  0.00  0.00    +0.083 C 
ATOM     23  C   UNL     1      34.724  -7.493 -22.967  0.00  0.00    +0.022 C 
BRANCH  22  24
ATOM     24  C   UNL     1      32.280  -7.841 -22.315  0.00  0.00    +0.121 C 
BRANCH  24  26
ATOM     25  O   UNL     1      31.147  -5.693 -22.108  0.00  0.00    -0.250 OA
ATOM     26  C   UNL     1      31.639  -6.554 -22.825  0.00  0.00    +0.319 C 
BRANCH  26  27
ATOM     27  O   UNL     1      31.700  -6.520 -24.188  0.00  0.00    -0.444 OA
ATOM     28  C   UNL     1      31.959  -5.233 -24.760  0.00  0.00    +0.256 C 
ENDBRANCH  26  27
ENDBRANCH  24  26
BRANCH  24  29
ATOM     29  C   UNL     1      32.729  -7.659 -20.851  0.00  0.00    +0.039 C 
BRANCH  29  30
ATOM     30  C   UNL     1      32.378  -8.844 -19.980  0.00  0.00    -0.021 C 
ATOM     31  C   UNL     1      32.368 -10.129 -20.522  0.00  0.00    -0.002 C 
ATOM     32  C   UNL     1      32.064  -8.652 -18.635  0.00  0.00    -0.004 C 
ATOM     33  C   UNL     1      32.044 -11.222 -19.719  0.00  0.00    +0.030 C 
ATOM     34  C   UNL     1      31.738  -9.745 -17.832  0.00  0.00    -0.000 C 
ATOM     35  C   UNL     1      31.728 -11.030 -18.373  0.00  0.00    +0.003 C 
BRANCH  33  38
ATOM     36  N   UNL     1      32.399 -13.672 -19.525  0.00  0.00    -0.343 N 
ATOM     37  N   UNL     1      31.669 -12.743 -21.541  0.00  0.00    -0.285 NA
ATOM     38  C   UNL     1      32.031 -12.562 -20.284  0.00  0.00    +0.117 C 
ATOM     39  H   UNL     1      32.385 -14.570 -19.928  0.00  0.00    +0.144 HD
ATOM     40  H   UNL     1      32.676 -13.558 -18.587  0.00  0.00    +0.144 HD
ATOM     41  H   UNL     1      31.660 -13.649 -21.925  0.00  0.00    +0.188 HD
ENDBRANCH  33  38
ENDBRANCH  29  30
ENDBRANCH  24  29
ENDBRANCH  22  24
ENDBRANCH   2  22
TORSDOF 11
ENDMDL
