MODEL 1
REMARK VINA RESULT:     -12.2      0.000      0.000
REMARK  Name = 42642648
REMARK  5 active torsions:
REMARK  status: ('A' for Active; 'I' for Inactive)
REMARK    1  A    between atoms: N_1  and  C_22
REMARK    2  A    between atoms: C_4  and  N_15
REMARK    3  A    between atoms: C_25  and  O_28
REMARK    4  A    between atoms: O_28  and  C_29
REMARK    5  A    between atoms: C_29  and  C_32
REMARK                            x       y       z     vdW  Elec       q    Type
REMARK                         _______ _______ _______ _____ _____    ______ ____
ROOT
ATOM      1  N   UNL     1      33.837 -22.086 -17.799  0.00  0.00    -0.301 N 
ATOM      2  N   UNL     1      30.713 -22.527 -15.121  0.00  0.00    -0.248 NA
ATOM      3  N   UNL     1      31.593 -21.702 -17.207  0.00  0.00    -0.233 NA
ATOM      4  C   UNL     1      34.414 -24.185 -14.159  0.00  0.00    +0.048 C 
ATOM      5  C   UNL     1      33.005 -22.941 -15.687  0.00  0.00    +0.117 C 
ATOM      6  C   UNL     1      34.253 -23.502 -15.360  0.00  0.00    +0.001 C 
ATOM      7  C   UNL     1      31.910 -23.059 -14.817  0.00  0.00    +0.067 C 
ATOM      8  C   UNL     1      32.778 -22.246 -16.871  0.00  0.00    +0.115 C 
ATOM      9  C   UNL     1      33.337 -24.308 -13.289  0.00  0.00    +0.016 C 
ATOM     10  C   UNL     1      32.100 -23.748 -13.621  0.00  0.00    +0.016 C 
ATOM     11  C   UNL     1      30.619 -21.877 -16.298  0.00  0.00    +0.251 C 
ATOM     12  H   UNL     1      34.489 -22.823 -17.788  0.00  0.00    +0.153 HD
ENDROOT
BRANCH   4  15
ATOM     13  O   UNL     1      37.689 -25.061 -12.821  0.00  0.00    -0.448 OA
ATOM     14  N   UNL     1      36.466 -23.258 -12.136  0.00  0.00    -0.222 NA
ATOM     15  N   UNL     1      35.662 -24.749 -13.825  0.00  0.00    -0.269 N 
ATOM     16  C   UNL     1      37.677 -23.324 -11.302  0.00  0.00    +0.151 C 
ATOM     17  C   UNL     1      38.585 -24.294 -12.028  0.00  0.00    +0.233 C 
ATOM     18  C   UNL     1      36.560 -24.300 -12.905  0.00  0.00    +0.284 C 
ATOM     19  C   UNL     1      38.283 -21.943 -11.141  0.00  0.00    +0.030 C 
ATOM     20  H   UNL     1      35.915 -25.565 -14.315  0.00  0.00    +0.157 HD
ENDBRANCH   4  15
BRANCH   1  22
ATOM     21 CL   UNL     1      37.396 -19.198 -20.071  0.00  0.00    -0.079 Cl
ATOM     22  C   UNL     1      34.136 -21.079 -18.732  0.00  0.00    +0.050 C 
ATOM     23  C   UNL     1      35.457 -20.677 -18.925  0.00  0.00    +0.029 C 
ATOM     24  C   UNL     1      33.110 -20.482 -19.463  0.00  0.00    +0.018 C 
ATOM     25  C   UNL     1      34.726 -19.079 -20.584  0.00  0.00    +0.150 C 
ATOM     26  C   UNL     1      35.753 -19.677 -19.852  0.00  0.00    +0.093 C 
ATOM     27  C   UNL     1      33.406 -19.482 -20.390  0.00  0.00    +0.039 C 
BRANCH  25  28
ATOM     28  O   UNL     1      34.986 -18.100 -21.496  0.00  0.00    -0.468 OA
BRANCH  28  29
ATOM     29  C   UNL     1      34.943 -18.470 -22.873  0.00  0.00    +0.257 C 
BRANCH  29  32
ATOM     30  S   UNL     1      35.050 -15.710 -23.143  0.00  0.00    -0.067 S 
ATOM     31  N   UNL     1      33.915 -17.310 -24.825  0.00  0.00    -0.237 NA
ATOM     32  C   UNL     1      34.580 -17.266 -23.693  0.00  0.00    +0.132 C 
ATOM     33  C   UNL     1      34.309 -15.024 -24.528  0.00  0.00    +0.057 C 
ATOM     34  C   UNL     1      33.759 -16.024 -25.303  0.00  0.00    +0.106 C 
ENDBRANCH  29  32
ENDBRANCH  28  29
ENDBRANCH  25  28
ENDBRANCH   1  22
TORSDOF 5
ENDMDL
MODEL 2
REMARK VINA RESULT:     -12.0      5.911     10.095
REMARK  Name = 42642648
REMARK  5 active torsions:
REMARK  status: ('A' for Active; 'I' for Inactive)
REMARK    1  A    between atoms: N_1  and  C_22
REMARK    2  A    between atoms: C_4  and  N_15
REMARK    3  A    between atoms: C_25  and  O_28
REMARK    4  A    between atoms: O_28  and  C_29
REMARK    5  A    between atoms: C_29  and  C_32
REMARK                            x       y       z     vdW  Elec       q    Type
REMARK                         _______ _______ _______ _____ _____    ______ ____
ROOT
ATOM      1  N   UNL     1      34.585 -13.863 -22.419  0.00  0.00    -0.301 N 
ATOM      2  N   UNL     1      33.788 -16.703 -25.323  0.00  0.00    -0.248 NA
ATOM      3  N   UNL     1      33.675 -14.437 -24.512  0.00  0.00    -0.233 NA
ATOM      4  C   UNL     1      35.783 -17.894 -21.862  0.00  0.00    +0.048 C 
ATOM      5  C   UNL     1      34.728 -16.160 -23.185  0.00  0.00    +0.117 C 
ATOM      6  C   UNL     1      35.402 -16.565 -22.019  0.00  0.00    +0.001 C 
ATOM      7  C   UNL     1      34.431 -17.080 -24.204  0.00  0.00    +0.067 C 
ATOM      8  C   UNL     1      34.320 -14.848 -23.404  0.00  0.00    +0.115 C 
ATOM      9  C   UNL     1      35.494 -18.813 -22.864  0.00  0.00    +0.016 C 
ATOM     10  C   UNL     1      34.823 -18.404 -24.019  0.00  0.00    +0.016 C 
ATOM     11  C   UNL     1      33.444 -15.403 -25.416  0.00  0.00    +0.251 C 
ATOM     12  H   UNL     1      35.400 -14.036 -21.895  0.00  0.00    +0.153 HD
ENDROOT
BRANCH   4  15
ATOM     13  O   UNL     1      37.034 -19.526 -18.854  0.00  0.00    -0.448 OA
ATOM     14  N   UNL     1      35.304 -20.320 -20.117  0.00  0.00    -0.222 NA
ATOM     15  N   UNL     1      36.458 -18.306 -20.696  0.00  0.00    -0.269 N 
ATOM     16  C   UNL     1      35.568 -21.298 -19.049  0.00  0.00    +0.151 C 
ATOM     17  C   UNL     1      36.454 -20.559 -18.069  0.00  0.00    +0.233 C 
ATOM     18  C   UNL     1      36.212 -19.409 -19.936  0.00  0.00    +0.284 C 
ATOM     19  C   UNL     1      34.266 -21.775 -18.437  0.00  0.00    +0.030 C 
ATOM     20  H   UNL     1      37.196 -17.727 -20.394  0.00  0.00    +0.157 HD
ENDBRANCH   4  15
BRANCH   1  22
ATOM     21 CL   UNL     1      33.572  -8.949 -23.412  0.00  0.00    -0.079 Cl
ATOM     22  C   UNL     1      33.911 -12.689 -22.049  0.00  0.00    +0.050 C 
ATOM     23  C   UNL     1      34.051 -11.532 -22.815  0.00  0.00    +0.029 C 
ATOM     24  C   UNL     1      33.100 -12.680 -20.914  0.00  0.00    +0.018 C 
ATOM     25  C   UNL     1      32.569 -10.357 -21.311  0.00  0.00    +0.150 C 
ATOM     26  C   UNL     1      33.380 -10.366 -22.447  0.00  0.00    +0.093 C 
ATOM     27  C   UNL     1      32.429 -11.514 -20.546  0.00  0.00    +0.039 C 
BRANCH  25  28
ATOM     28  O   UNL     1      31.902  -9.232 -20.928  0.00  0.00    -0.468 OA
BRANCH  28  29
ATOM     29  C   UNL     1      32.136  -8.762 -19.601  0.00  0.00    +0.257 C 
BRANCH  29  32
ATOM     30  S   UNL     1      32.066  -6.438 -21.116  0.00  0.00    -0.067 S 
ATOM     31  N   UNL     1      32.454  -6.519 -18.562  0.00  0.00    -0.237 NA
ATOM     32  C   UNL     1      32.238  -7.265 -19.622  0.00  0.00    +0.132 C 
ATOM     33  C   UNL     1      32.297  -4.953 -20.292  0.00  0.00    +0.057 C 
ATOM     34  C   UNL     1      32.488  -5.193 -18.948  0.00  0.00    +0.106 C 
ENDBRANCH  29  32
ENDBRANCH  28  29
ENDBRANCH  25  28
ENDBRANCH   1  22
TORSDOF 5
ENDMDL
MODEL 3
REMARK VINA RESULT:     -11.9      5.809     10.045
REMARK  Name = 42642648
REMARK  5 active torsions:
REMARK  status: ('A' for Active; 'I' for Inactive)
REMARK    1  A    between atoms: N_1  and  C_22
REMARK    2  A    between atoms: C_4  and  N_15
REMARK    3  A    between atoms: C_25  and  O_28
REMARK    4  A    between atoms: O_28  and  C_29
REMARK    5  A    between atoms: C_29  and  C_32
REMARK                            x       y       z     vdW  Elec       q    Type
REMARK                         _______ _______ _______ _____ _____    ______ ____
ROOT
ATOM      1  N   UNL     1      34.554 -13.856 -22.376  0.00  0.00    -0.301 N 
ATOM      2  N   UNL     1      33.821 -16.698 -25.295  0.00  0.00    -0.248 NA
ATOM      3  N   UNL     1      33.671 -14.435 -24.479  0.00  0.00    -0.233 NA
ATOM      4  C   UNL     1      35.797 -17.873 -21.818  0.00  0.00    +0.048 C 
ATOM      5  C   UNL     1      34.734 -16.149 -23.147  0.00  0.00    +0.117 C 
ATOM      6  C   UNL     1      35.401 -16.549 -21.975  0.00  0.00    +0.001 C 
ATOM      7  C   UNL     1      34.458 -17.069 -24.171  0.00  0.00    +0.067 C 
ATOM      8  C   UNL     1      34.311 -14.841 -23.366  0.00  0.00    +0.115 C 
ATOM      9  C   UNL     1      35.530 -18.793 -22.825  0.00  0.00    +0.016 C 
ATOM     10  C   UNL     1      34.866 -18.389 -23.986  0.00  0.00    +0.016 C 
ATOM     11  C   UNL     1      33.462 -15.402 -25.388  0.00  0.00    +0.251 C 
ATOM     12  H   UNL     1      35.365 -14.020 -21.844  0.00  0.00    +0.153 HD
ENDROOT
BRANCH   4  15
ATOM     13  O   UNL     1      37.041 -19.500 -18.803  0.00  0.00    -0.448 OA
ATOM     14  N   UNL     1      35.339 -20.315 -20.090  0.00  0.00    -0.222 NA
ATOM     15  N   UNL     1      36.466 -18.280 -20.646  0.00  0.00    -0.269 N 
ATOM     16  C   UNL     1      35.606 -21.294 -19.024  0.00  0.00    +0.151 C 
ATOM     17  C   UNL     1      36.469 -20.545 -18.030  0.00  0.00    +0.233 C 
ATOM     18  C   UNL     1      36.229 -19.390 -19.895  0.00  0.00    +0.284 C 
ATOM     19  C   UNL     1      34.305 -21.795 -18.428  0.00  0.00    +0.030 C 
ATOM     20  H   UNL     1      37.191 -17.691 -20.334  0.00  0.00    +0.157 HD
ENDBRANCH   4  15
BRANCH   1  22
ATOM     21 CL   UNL     1      31.558 -11.486 -18.975  0.00  0.00    -0.079 Cl
ATOM     22  C   UNL     1      33.860 -12.692 -22.009  0.00  0.00    +0.050 C 
ATOM     23  C   UNL     1      33.136 -12.658 -20.818  0.00  0.00    +0.029 C 
ATOM     24  C   UNL     1      33.896 -11.570 -22.836  0.00  0.00    +0.018 C 
ATOM     25  C   UNL     1      32.484 -10.377 -21.280  0.00  0.00    +0.150 C 
ATOM     26  C   UNL     1      32.448 -11.501 -20.453  0.00  0.00    +0.093 C 
ATOM     27  C   UNL     1      33.208 -10.413 -22.471  0.00  0.00    +0.039 C 
BRANCH  25  28
ATOM     28  O   UNL     1      31.820  -9.233 -20.949  0.00  0.00    -0.468 OA
BRANCH  28  29
ATOM     29  C   UNL     1      32.214  -8.039 -21.624  0.00  0.00    +0.257 C 
BRANCH  29  32
ATOM     30  S   UNL     1      31.806  -5.335 -21.155  0.00  0.00    -0.067 S 
ATOM     31  N   UNL     1      32.606  -7.032 -19.378  0.00  0.00    -0.237 NA
ATOM     32  C   UNL     1      32.251  -6.909 -20.637  0.00  0.00    +0.132 C 
ATOM     33  C   UNL     1      32.108  -4.755 -19.570  0.00  0.00    +0.057 C 
ATOM     34  C   UNL     1      32.524  -5.796 -18.767  0.00  0.00    +0.106 C 
ENDBRANCH  29  32
ENDBRANCH  28  29
ENDBRANCH  25  28
ENDBRANCH   1  22
TORSDOF 5
ENDMDL
MODEL 4
REMARK VINA RESULT:     -11.8      1.328      1.526
REMARK  Name = 42642648
REMARK  5 active torsions:
REMARK  status: ('A' for Active; 'I' for Inactive)
REMARK    1  A    between atoms: N_1  and  C_22
REMARK    2  A    between atoms: C_4  and  N_15
REMARK    3  A    between atoms: C_25  and  O_28
REMARK    4  A    between atoms: O_28  and  C_29
REMARK    5  A    between atoms: C_29  and  C_32
REMARK                            x       y       z     vdW  Elec       q    Type
REMARK                         _______ _______ _______ _____ _____    ______ ____
ROOT
ATOM      1  N   UNL     1      33.278 -22.267 -17.065  0.00  0.00    -0.301 N 
ATOM      2  N   UNL     1      29.747 -22.389 -14.909  0.00  0.00    -0.248 NA
ATOM      3  N   UNL     1      30.961 -21.878 -16.926  0.00  0.00    -0.233 NA
ATOM      4  C   UNL     1      33.246 -23.727 -13.083  0.00  0.00    +0.048 C 
ATOM      5  C   UNL     1      32.106 -22.801 -15.009  0.00  0.00    +0.117 C 
ATOM      6  C   UNL     1      33.285 -23.254 -14.390  0.00  0.00    +0.001 C 
ATOM      7  C   UNL     1      30.879 -22.819 -14.326  0.00  0.00    +0.067 C 
ATOM      8  C   UNL     1      32.077 -22.315 -16.313  0.00  0.00    +0.115 C 
ATOM      9  C   UNL     1      32.037 -23.749 -12.396  0.00  0.00    +0.016 C 
ATOM     10  C   UNL     1      30.871 -23.297 -13.018  0.00  0.00    +0.016 C 
ATOM     11  C   UNL     1      29.849 -21.941 -16.176  0.00  0.00    +0.251 C 
ATOM     12  H   UNL     1      33.926 -22.967 -16.823  0.00  0.00    +0.153 HD
ENDROOT
BRANCH   4  15
ATOM     13  O   UNL     1      36.637 -24.467 -11.970  0.00  0.00    -0.448 OA
ATOM     14  N   UNL     1      36.133 -23.031 -13.674  0.00  0.00    -0.222 NA
ATOM     15  N   UNL     1      34.424 -24.182 -12.457  0.00  0.00    -0.269 N 
ATOM     16  C   UNL     1      37.589 -22.991 -13.468  0.00  0.00    +0.151 C 
ATOM     17  C   UNL     1      37.883 -24.196 -12.599  0.00  0.00    +0.233 C 
ATOM     18  C   UNL     1      35.710 -23.843 -12.753  0.00  0.00    +0.284 C 
ATOM     19  C   UNL     1      38.312 -23.024 -14.800  0.00  0.00    +0.030 C 
ATOM     20  H   UNL     1      34.304 -24.821 -11.717  0.00  0.00    +0.157 HD
ENDBRANCH   4  15
BRANCH   1  22
ATOM     21 CL   UNL     1      37.214 -20.337 -19.700  0.00  0.00    -0.079 Cl
ATOM     22  C   UNL     1      33.720 -21.413 -18.088  0.00  0.00    +0.050 C 
ATOM     23  C   UNL     1      35.083 -21.303 -18.363  0.00  0.00    +0.029 C 
ATOM     24  C   UNL     1      32.797 -20.676 -18.828  0.00  0.00    +0.018 C 
ATOM     25  C   UNL     1      34.598 -19.717 -20.121  0.00  0.00    +0.150 C 
ATOM     26  C   UNL     1      35.522 -20.455 -19.380  0.00  0.00    +0.093 C 
ATOM     27  C   UNL     1      33.236 -19.828 -19.844  0.00  0.00    +0.039 C 
BRANCH  25  28
ATOM     28  O   UNL     1      34.999 -18.880 -21.120  0.00  0.00    -0.468 OA
BRANCH  28  29
ATOM     29  C   UNL     1      35.425 -17.574 -20.737  0.00  0.00    +0.257 C 
BRANCH  29  32
ATOM     30  S   UNL     1      35.004 -14.964 -21.582  0.00  0.00    -0.067 S 
ATOM     31  N   UNL     1      35.218 -17.004 -23.155  0.00  0.00    -0.237 NA
ATOM     32  C   UNL     1      35.230 -16.637 -21.893  0.00  0.00    +0.132 C 
ATOM     33  C   UNL     1      34.879 -14.693 -23.270  0.00  0.00    +0.057 C 
ATOM     34  C   UNL     1      35.016 -15.889 -23.944  0.00  0.00    +0.106 C 
ENDBRANCH  29  32
ENDBRANCH  28  29
ENDBRANCH  25  28
ENDBRANCH   1  22
TORSDOF 5
ENDMDL
MODEL 5
REMARK VINA RESULT:     -11.8      2.241      2.739
REMARK  Name = 42642648
REMARK  5 active torsions:
REMARK  status: ('A' for Active; 'I' for Inactive)
REMARK    1  A    between atoms: N_1  and  C_22
REMARK    2  A    between atoms: C_4  and  N_15
REMARK    3  A    between atoms: C_25  and  O_28
REMARK    4  A    between atoms: O_28  and  C_29
REMARK    5  A    between atoms: C_29  and  C_32
REMARK                            x       y       z     vdW  Elec       q    Type
REMARK                         _______ _______ _______ _____ _____    ______ ____
ROOT
ATOM      1  N   UNL     1      35.022 -22.135 -17.043  0.00  0.00    -0.301 N 
ATOM      2  N   UNL     1      31.890 -23.244 -14.574  0.00  0.00    -0.248 NA
ATOM      3  N   UNL     1      32.725 -22.530 -16.719  0.00  0.00    -0.233 NA
ATOM      4  C   UNL     1      35.748 -23.178 -12.996  0.00  0.00    +0.048 C 
ATOM      5  C   UNL     1      34.238 -22.852 -14.862  0.00  0.00    +0.117 C 
ATOM      6  C   UNL     1      35.539 -22.832 -14.327  0.00  0.00    +0.001 C 
ATOM      7  C   UNL     1      33.137 -23.220 -14.072  0.00  0.00    +0.067 C 
ATOM      8  C   UNL     1      33.961 -22.517 -16.184  0.00  0.00    +0.115 C 
ATOM      9  C   UNL     1      34.665 -23.543 -12.204  0.00  0.00    +0.016 C 
ATOM     10  C   UNL     1      33.376 -23.561 -12.743  0.00  0.00    +0.016 C 
ATOM     11  C   UNL     1      31.752 -22.897 -15.870  0.00  0.00    +0.251 C 
ATOM     12  H   UNL     1      35.883 -22.556 -16.820  0.00  0.00    +0.153 HD
ENDROOT
BRANCH   4  15
ATOM     13  O   UNL     1      39.302 -23.458 -12.241  0.00  0.00    -0.448 OA
ATOM     14  N   UNL     1      38.352 -24.138 -14.204  0.00  0.00    -0.222 NA
ATOM     15  N   UNL     1      37.048 -23.159 -12.453  0.00  0.00    -0.269 N 
ATOM     16  C   UNL     1      39.807 -24.331 -14.317  0.00  0.00    +0.151 C 
ATOM     17  C   UNL     1      40.318 -24.205 -12.897  0.00  0.00    +0.233 C 
ATOM     18  C   UNL     1      38.199 -23.602 -13.031  0.00  0.00    +0.284 C 
ATOM     19  C   UNL     1      40.114 -25.676 -14.946  0.00  0.00    +0.030 C 
ATOM     20  H   UNL     1      37.135 -22.780 -11.548  0.00  0.00    +0.157 HD
ENDBRANCH   4  15
BRANCH   1  22
ATOM     21 CL   UNL     1      32.497 -19.539 -20.655  0.00  0.00    -0.079 Cl
ATOM     22  C   UNL     1      35.081 -21.272 -18.149  0.00  0.00    +0.050 C 
ATOM     23  C   UNL     1      33.906 -20.874 -18.786  0.00  0.00    +0.029 C 
ATOM     24  C   UNL     1      36.315 -20.815 -18.611  0.00  0.00    +0.018 C 
ATOM     25  C   UNL     1      35.200 -19.558 -20.347  0.00  0.00    +0.150 C 
ATOM     26  C   UNL     1      33.965 -20.016 -19.885  0.00  0.00    +0.093 C 
ATOM     27  C   UNL     1      36.374 -19.958 -19.710  0.00  0.00    +0.039 C 
BRANCH  25  28
ATOM     28  O   UNL     1      35.287 -18.721 -21.419  0.00  0.00    -0.468 OA
BRANCH  28  29
ATOM     29  C   UNL     1      36.292 -17.709 -21.368  0.00  0.00    +0.257 C 
BRANCH  29  32
ATOM     30  S   UNL     1      35.239 -15.355 -22.395  0.00  0.00    -0.067 S 
ATOM     31  N   UNL     1      35.349 -15.945 -19.881  0.00  0.00    -0.237 NA
ATOM     32  C   UNL     1      35.642 -16.387 -21.084  0.00  0.00    +0.132 C 
ATOM     33  C   UNL     1      34.618 -14.215 -21.275  0.00  0.00    +0.057 C 
ATOM     34  C   UNL     1      34.763 -14.699 -19.992  0.00  0.00    +0.106 C 
ENDBRANCH  29  32
ENDBRANCH  28  29
ENDBRANCH  25  28
ENDBRANCH   1  22
TORSDOF 5
ENDMDL
MODEL 6
REMARK VINA RESULT:     -10.1      2.309      4.591
REMARK  Name = 42642648
REMARK  5 active torsions:
REMARK  status: ('A' for Active; 'I' for Inactive)
REMARK    1  A    between atoms: N_1  and  C_22
REMARK    2  A    between atoms: C_4  and  N_15
REMARK    3  A    between atoms: C_25  and  O_28
REMARK    4  A    between atoms: O_28  and  C_29
REMARK    5  A    between atoms: C_29  and  C_32
REMARK                            x       y       z     vdW  Elec       q    Type
REMARK                         _______ _______ _______ _____ _____    ______ ____
ROOT
ATOM      1  N   UNL     1      36.006 -21.436 -16.195  0.00  0.00    -0.301 N 
ATOM      2  N   UNL     1      38.996 -23.649 -14.380  0.00  0.00    -0.248 NA
ATOM      3  N   UNL     1      38.271 -22.053 -16.033  0.00  0.00    -0.233 NA
ATOM      4  C   UNL     1      35.089 -24.049 -12.982  0.00  0.00    +0.048 C 
ATOM      5  C   UNL     1      36.678 -23.048 -14.511  0.00  0.00    +0.117 C 
ATOM      6  C   UNL     1      35.361 -23.185 -14.037  0.00  0.00    +0.001 C 
ATOM      7  C   UNL     1      37.733 -23.774 -13.935  0.00  0.00    +0.067 C 
ATOM      8  C   UNL     1      37.018 -22.201 -15.562  0.00  0.00    +0.115 C 
ATOM      9  C   UNL     1      36.125 -24.774 -12.404  0.00  0.00    +0.016 C 
ATOM     10  C   UNL     1      37.431 -24.633 -12.881  0.00  0.00    +0.016 C 
ATOM     11  C   UNL     1      39.196 -22.797 -15.405  0.00  0.00    +0.251 C 
ATOM     12  H   UNL     1      35.261 -21.194 -15.599  0.00  0.00    +0.153 HD
ENDROOT
BRANCH   4  15
ATOM     13  O   UNL     1      31.489 -24.230 -12.445  0.00  0.00    -0.448 OA
ATOM     14  N   UNL     1      32.461 -23.728 -14.450  0.00  0.00    -0.222 NA
ATOM     15  N   UNL     1      33.772 -24.191 -12.503  0.00  0.00    -0.269 N 
ATOM     16  C   UNL     1      31.006 -23.793 -14.658  0.00  0.00    +0.151 C 
ATOM     17  C   UNL     1      30.421 -23.771 -13.262  0.00  0.00    +0.233 C 
ATOM     18  C   UNL     1      32.611 -24.038 -13.198  0.00  0.00    +0.284 C 
ATOM     19  C   UNL     1      30.543 -22.632 -15.518  0.00  0.00    +0.030 C 
ATOM     20  H   UNL     1      33.679 -24.430 -11.551  0.00  0.00    +0.157 HD
ENDBRANCH   4  15
BRANCH   1  22
ATOM     21 CL   UNL     1      32.873 -20.309 -20.078  0.00  0.00    -0.079 Cl
ATOM     22  C   UNL     1      35.861 -20.957 -17.507  0.00  0.00    +0.050 C 
ATOM     23  C   UNL     1      34.595 -20.876 -18.084  0.00  0.00    +0.029 C 
ATOM     24  C   UNL     1      36.985 -20.562 -18.231  0.00  0.00    +0.018 C 
ATOM     25  C   UNL     1      35.577 -20.003 -20.113  0.00  0.00    +0.150 C 
ATOM     26  C   UNL     1      34.452 -20.399 -19.387  0.00  0.00    +0.093 C 
ATOM     27  C   UNL     1      36.843 -20.085 -19.534  0.00  0.00    +0.039 C 
BRANCH  25  28
ATOM     28  O   UNL     1      35.467 -19.534 -21.388  0.00  0.00    -0.468 OA
BRANCH  28  29
ATOM     29  C   UNL     1      35.750 -18.151 -21.594  0.00  0.00    +0.257 C 
BRANCH  29  32
ATOM     30  S   UNL     1      35.138 -16.036 -23.283  0.00  0.00    -0.067 S 
ATOM     31  N   UNL     1      34.433 -18.490 -23.684  0.00  0.00    -0.237 NA
ATOM     32  C   UNL     1      35.079 -17.697 -22.858  0.00  0.00    +0.132 C 
ATOM     33  C   UNL     1      34.228 -16.390 -24.692  0.00  0.00    +0.057 C 
ATOM     34  C   UNL     1      33.945 -17.739 -24.735  0.00  0.00    +0.106 C 
ENDBRANCH  29  32
ENDBRANCH  28  29
ENDBRANCH  25  28
ENDBRANCH   1  22
TORSDOF 5
ENDMDL
MODEL 7
REMARK VINA RESULT:     -10.1      6.648     13.898
REMARK  Name = 42642648
REMARK  5 active torsions:
REMARK  status: ('A' for Active; 'I' for Inactive)
REMARK    1  A    between atoms: N_1  and  C_22
REMARK    2  A    between atoms: C_4  and  N_15
REMARK    3  A    between atoms: C_25  and  O_28
REMARK    4  A    between atoms: O_28  and  C_29
REMARK    5  A    between atoms: C_29  and  C_32
REMARK                            x       y       z     vdW  Elec       q    Type
REMARK                         _______ _______ _______ _____ _____    ______ ____
ROOT
ATOM      1  N   UNL     1      33.644 -12.660 -22.019  0.00  0.00    -0.301 N 
ATOM      2  N   UNL     1      33.956 -10.598 -25.594  0.00  0.00    -0.248 NA
ATOM      3  N   UNL     1      33.955 -12.662 -24.352  0.00  0.00    -0.233 NA
ATOM      4  C   UNL     1      33.314  -8.432 -22.091  0.00  0.00    +0.048 C 
ATOM      5  C   UNL     1      33.635 -10.552 -23.219  0.00  0.00    +0.117 C 
ATOM      6  C   UNL     1      33.418  -9.818 -22.039  0.00  0.00    +0.001 C 
ATOM      7  C   UNL     1      33.749  -9.906 -24.460  0.00  0.00    +0.067 C 
ATOM      8  C   UNL     1      33.748 -11.939 -23.235  0.00  0.00    +0.115 C 
ATOM      9  C   UNL     1      33.426  -7.781 -23.314  0.00  0.00    +0.016 C 
ATOM     10  C   UNL     1      33.642  -8.517 -24.483  0.00  0.00    +0.016 C 
ATOM     11  C   UNL     1      34.048 -11.938 -25.479  0.00  0.00    +0.251 C 
ATOM     12  H   UNL     1      33.064 -12.229 -21.351  0.00  0.00    +0.153 HD
ENDROOT
BRANCH   4  15
ATOM     13  O   UNL     1      32.485  -5.994 -19.513  0.00  0.00    -0.448 OA
ATOM     14  N   UNL     1      32.101  -5.681 -21.743  0.00  0.00    -0.222 NA
ATOM     15  N   UNL     1      33.097  -7.691 -20.912  0.00  0.00    -0.269 N 
ATOM     16  C   UNL     1      31.550  -4.521 -21.023  0.00  0.00    +0.151 C 
ATOM     17  C   UNL     1      32.141  -4.620 -19.633  0.00  0.00    +0.233 C 
ATOM     18  C   UNL     1      32.546  -6.451 -20.797  0.00  0.00    +0.284 C 
ATOM     19  C   UNL     1      31.914  -3.235 -21.738  0.00  0.00    +0.030 C 
ATOM     20  H   UNL     1      33.378  -8.121 -20.071  0.00  0.00    +0.157 HD
ENDBRANCH   4  15
BRANCH   1  22
ATOM     21 CL   UNL     1      35.680 -17.185 -23.260  0.00  0.00    -0.079 Cl
ATOM     22  C   UNL     1      34.207 -13.871 -21.585  0.00  0.00    +0.050 C 
ATOM     23  C   UNL     1      34.619 -14.822 -22.517  0.00  0.00    +0.029 C 
ATOM     24  C   UNL     1      34.355 -14.120 -20.221  0.00  0.00    +0.018 C 
ATOM     25  C   UNL     1      35.328 -16.275 -20.721  0.00  0.00    +0.150 C 
ATOM     26  C   UNL     1      35.180 -16.024 -22.086  0.00  0.00    +0.093 C 
ATOM     27  C   UNL     1      34.916 -15.322 -19.789  0.00  0.00    +0.039 C 
BRANCH  25  28
ATOM     28  O   UNL     1      35.872 -17.441 -20.270  0.00  0.00    -0.468 OA
BRANCH  28  29
ATOM     29  C   UNL     1      35.212 -18.649 -20.645  0.00  0.00    +0.257 C 
BRANCH  29  32
ATOM     30  S   UNL     1      34.194 -20.733 -19.121  0.00  0.00    -0.067 S 
ATOM     31  N   UNL     1      36.632 -19.880 -19.007  0.00  0.00    -0.237 NA
ATOM     32  C   UNL     1      35.473 -19.694 -19.600  0.00  0.00    +0.132 C 
ATOM     33  C   UNL     1      35.265 -21.506 -18.028  0.00  0.00    +0.057 C 
ATOM     34  C   UNL     1      36.511 -20.919 -18.106  0.00  0.00    +0.106 C 
ENDBRANCH  29  32
ENDBRANCH  28  29
ENDBRANCH  25  28
ENDBRANCH   1  22
TORSDOF 5
ENDMDL
MODEL 8
REMARK VINA RESULT:      -9.8      5.113      9.616
REMARK  Name = 42642648
REMARK  5 active torsions:
REMARK  status: ('A' for Active; 'I' for Inactive)
REMARK    1  A    between atoms: N_1  and  C_22
REMARK    2  A    between atoms: C_4  and  N_15
REMARK    3  A    between atoms: C_25  and  O_28
REMARK    4  A    between atoms: O_28  and  C_29
REMARK    5  A    between atoms: C_29  and  C_32
REMARK                            x       y       z     vdW  Elec       q    Type
REMARK                         _______ _______ _______ _____ _____    ______ ____
ROOT
ATOM      1  N   UNL     1      34.871 -14.118 -23.025  0.00  0.00    -0.301 N 
ATOM      2  N   UNL     1      33.595 -17.326 -25.308  0.00  0.00    -0.248 NA
ATOM      3  N   UNL     1      33.737 -14.954 -24.910  0.00  0.00    -0.233 NA
ATOM      4  C   UNL     1      35.784 -18.088 -21.844  0.00  0.00    +0.048 C 
ATOM      5  C   UNL     1      34.761 -16.516 -23.376  0.00  0.00    +0.117 C 
ATOM      6  C   UNL     1      35.499 -16.777 -22.208  0.00  0.00    +0.001 C 
ATOM      7  C   UNL     1      34.302 -17.564 -24.189  0.00  0.00    +0.067 C 
ATOM      8  C   UNL     1      34.441 -15.228 -23.795  0.00  0.00    +0.115 C 
ATOM      9  C   UNL     1      35.335 -19.135 -22.641  0.00  0.00    +0.016 C 
ATOM     10  C   UNL     1      34.601 -18.868 -23.800  0.00  0.00    +0.016 C 
ATOM     11  C   UNL     1      33.351 -16.035 -25.608  0.00  0.00    +0.251 C 
ATOM     12  H   UNL     1      35.712 -14.275 -22.538  0.00  0.00    +0.153 HD
ENDROOT
BRANCH   4  15
ATOM     13  O   UNL     1      37.233 -19.370 -18.755  0.00  0.00    -0.448 OA
ATOM     14  N   UNL     1      35.503 -20.364 -19.868  0.00  0.00    -0.222 NA
ATOM     15  N   UNL     1      36.524 -18.356 -20.674  0.00  0.00    -0.269 N 
ATOM     16  C   UNL     1      35.859 -21.224 -18.728  0.00  0.00    +0.151 C 
ATOM     17  C   UNL     1      36.740 -20.354 -17.856  0.00  0.00    +0.233 C 
ATOM     18  C   UNL     1      36.366 -19.395 -19.808  0.00  0.00    +0.284 C 
ATOM     19  C   UNL     1      34.608 -21.708 -18.021  0.00  0.00    +0.030 C 
ATOM     20  H   UNL     1      37.240 -17.715 -20.457  0.00  0.00    +0.157 HD
ENDBRANCH   4  15
BRANCH   1  22
ATOM     21 CL   UNL     1      34.557  -9.250 -24.561  0.00  0.00    -0.079 Cl
ATOM     22  C   UNL     1      34.328 -12.839 -22.822  0.00  0.00    +0.050 C 
ATOM     23  C   UNL     1      34.664 -11.795 -23.683  0.00  0.00    +0.029 C 
ATOM     24  C   UNL     1      33.452 -12.614 -21.761  0.00  0.00    +0.018 C 
ATOM     25  C   UNL     1      33.247 -10.299 -22.419  0.00  0.00    +0.150 C 
ATOM     26  C   UNL     1      34.124 -10.524 -23.482  0.00  0.00    +0.093 C 
ATOM     27  C   UNL     1      32.912 -11.344 -21.559  0.00  0.00    +0.039 C 
BRANCH  25  28
ATOM     28  O   UNL     1      32.705  -9.068 -22.199  0.00  0.00    -0.468 OA
BRANCH  28  29
ATOM     29  C   UNL     1      31.423  -9.029 -21.575  0.00  0.00    +0.257 C 
BRANCH  29  32
ATOM     30  S   UNL     1      30.640 -10.636 -19.452  0.00  0.00    -0.067 S 
ATOM     31  N   UNL     1      32.387  -8.738 -19.295  0.00  0.00    -0.237 NA
ATOM     32  C   UNL     1      31.575  -9.361 -20.120  0.00  0.00    +0.132 C 
ATOM     33  C   UNL     1      31.373 -10.343 -17.930  0.00  0.00    +0.057 C 
ATOM     34  C   UNL     1      32.270  -9.302 -18.040  0.00  0.00    +0.106 C 
ENDBRANCH  29  32
ENDBRANCH  28  29
ENDBRANCH  25  28
ENDBRANCH   1  22
TORSDOF 5
ENDMDL
MODEL 9
REMARK VINA RESULT:      -9.6      9.149     16.640
REMARK  Name = 42642648
REMARK  5 active torsions:
REMARK  status: ('A' for Active; 'I' for Inactive)
REMARK    1  A    between atoms: N_1  and  C_22
REMARK    2  A    between atoms: C_4  and  N_15
REMARK    3  A    between atoms: C_25  and  O_28
REMARK    4  A    between atoms: O_28  and  C_29
REMARK    5  A    between atoms: C_29  and  C_32
REMARK                            x       y       z     vdW  Elec       q    Type
REMARK                         _______ _______ _______ _____ _____    ______ ____
ROOT
ATOM      1  N   UNL     1      33.453  -8.123 -22.490  0.00  0.00    -0.301 N 
ATOM      2  N   UNL     1      32.234  -5.573 -19.468  0.00  0.00    -0.248 NA
ATOM      3  N   UNL     1      33.113  -7.692 -20.202  0.00  0.00    -0.233 NA
ATOM      4  C   UNL     1      32.016  -4.241 -23.411  0.00  0.00    +0.048 C 
ATOM      5  C   UNL     1      32.566  -5.971 -21.808  0.00  0.00    +0.117 C 
ATOM      6  C   UNL     1      32.492  -5.519 -23.138  0.00  0.00    +0.001 C 
ATOM      7  C   UNL     1      32.166  -5.150 -20.742  0.00  0.00    +0.067 C 
ATOM      8  C   UNL     1      33.032  -7.238 -21.467  0.00  0.00    +0.115 C 
ATOM      9  C   UNL     1      31.616  -3.418 -22.364  0.00  0.00    +0.016 C 
ATOM     10  C   UNL     1      31.693  -3.875 -21.046  0.00  0.00    +0.016 C 
ATOM     11  C   UNL     1      32.703  -6.820 -19.267  0.00  0.00    +0.251 C 
ATOM     12  H   UNL     1      33.821  -7.669 -23.282  0.00  0.00    +0.153 HD
ENDROOT
BRANCH   4  15
ATOM     13  O   UNL     1      32.511  -3.333 -26.906  0.00  0.00    -0.448 OA
ATOM     14  N   UNL     1      34.052  -4.449 -25.642  0.00  0.00    -0.222 NA
ATOM     15  N   UNL     1      31.938  -3.781 -24.741  0.00  0.00    -0.269 N 
ATOM     16  C   UNL     1      34.579  -4.352 -27.012  0.00  0.00    +0.151 C 
ATOM     17  C   UNL     1      33.700  -3.319 -27.685  0.00  0.00    +0.233 C 
ATOM     18  C   UNL     1      32.880  -3.895 -25.719  0.00  0.00    +0.284 C 
ATOM     19  C   UNL     1      36.045  -3.965 -26.988  0.00  0.00    +0.030 C 
ATOM     20  H   UNL     1      31.104  -3.323 -24.994  0.00  0.00    +0.157 HD
ENDBRANCH   4  15
BRANCH   1  22
ATOM     21 CL   UNL     1      31.960 -12.605 -20.530  0.00  0.00    -0.079 Cl
ATOM     22  C   UNL     1      33.447  -9.524 -22.592  0.00  0.00    +0.050 C 
ATOM     23  C   UNL     1      32.788 -10.290 -21.631  0.00  0.00    +0.029 C 
ATOM     24  C   UNL     1      34.099 -10.148 -23.655  0.00  0.00    +0.018 C 
ATOM     25  C   UNL     1      33.435 -12.306 -22.797  0.00  0.00    +0.150 C 
ATOM     26  C   UNL     1      32.782 -11.681 -21.733  0.00  0.00    +0.093 C 
ATOM     27  C   UNL     1      34.093 -11.539 -23.757  0.00  0.00    +0.039 C 
BRANCH  25  28
ATOM     28  O   UNL     1      33.445 -13.663 -22.921  0.00  0.00    -0.468 OA
BRANCH  28  29
ATOM     29  C   UNL     1      34.712 -14.283 -23.133  0.00  0.00    +0.257 C 
BRANCH  29  32
ATOM     30  S   UNL     1      35.514 -16.809 -22.310  0.00  0.00    -0.067 S 
ATOM     31  N   UNL     1      34.903 -14.867 -20.717  0.00  0.00    -0.237 NA
ATOM     32  C   UNL     1      35.006 -15.203 -21.984  0.00  0.00    +0.132 C 
ATOM     33  C   UNL     1      35.609 -17.095 -20.622  0.00  0.00    +0.057 C 
ATOM     34  C   UNL     1      35.248 -15.953 -19.937  0.00  0.00    +0.106 C 
ENDBRANCH  29  32
ENDBRANCH  28  29
ENDBRANCH  25  28
ENDBRANCH   1  22
TORSDOF 5
ENDMDL
