MODEL 1
REMARK VINA RESULT:     -12.8      0.000      0.000
REMARK  Name = 107971
REMARK  9 active torsions:
REMARK  status: ('A' for Active; 'I' for Inactive)
REMARK    1  A    between atoms: C_3  and  O_20
REMARK    2  A    between atoms: C_10  and  C_12
REMARK    3  A    between atoms: C_17  and  O_18
REMARK    4  A    between atoms: O_20  and  C_26
REMARK    5  A    between atoms: C_22  and  O_27
REMARK    6  A    between atoms: C_23  and  O_29
REMARK    7  A    between atoms: C_24  and  O_31
REMARK    8  A    between atoms: C_25  and  C_33
REMARK    9  A    between atoms: C_33  and  O_34
REMARK                            x       y       z     vdW  Elec       q    Type
REMARK                         _______ _______ _______ _____ _____    ______ ____
ROOT
ATOM      1  O   UNL     1      36.488 -21.011 -17.959  0.00  0.00    -0.450 OA
ATOM      2  O   UNL     1      32.881 -20.125 -19.646  0.00  0.00    -0.286 OA
ATOM      3  C   UNL     1      34.334 -23.025 -15.820  0.00  0.00    +0.144 C 
ATOM      4  C   UNL     1      35.468 -22.433 -16.373  0.00  0.00    +0.075 C 
ATOM      5  C   UNL     1      33.072 -22.750 -16.348  0.00  0.00    +0.037 C 
ATOM      6  C   UNL     1      35.339 -21.564 -17.457  0.00  0.00    +0.151 C 
ATOM      7  C   UNL     1      34.077 -21.288 -17.985  0.00  0.00    +0.074 C 
ATOM      8  C   UNL     1      32.939 -21.881 -17.432  0.00  0.00    +0.009 C 
ATOM      9  C   UNL     1      33.965 -20.370 -19.133  0.00  0.00    +0.202 C 
ATOM     10  C   UNL     1      35.236 -19.777 -19.634  0.00  0.00    +0.077 C 
ATOM     11  C   UNL     1      36.369 -20.141 -19.016  0.00  0.00    +0.183 C 
ENDROOT
BRANCH  10  12
ATOM     12  C   UNL     1      35.261 -18.816 -20.749  0.00  0.00    +0.006 C 
ATOM     13  C   UNL     1      34.899 -19.224 -22.035  0.00  0.00    +0.003 C 
ATOM     14  C   UNL     1      35.647 -17.493 -20.524  0.00  0.00    +0.003 C 
ATOM     15  C   UNL     1      34.923 -18.313 -23.091  0.00  0.00    +0.037 C 
ATOM     16  C   UNL     1      35.672 -16.582 -21.581  0.00  0.00    +0.037 C 
ATOM     17  C   UNL     1      35.310 -16.992 -22.864  0.00  0.00    +0.134 C 
BRANCH  17  18
ATOM     18  O   UNL     1      35.334 -16.103 -23.895  0.00  0.00    -0.506 OA
ATOM     19  H   UNL     1      35.884 -15.346 -23.847  0.00  0.00    +0.292 HD
ENDBRANCH  17  18
ENDBRANCH  10  12
BRANCH   3  20
ATOM     20  O   UNL     1      34.456 -23.873 -14.760  0.00  0.00    -0.450 OA
BRANCH  20  26
ATOM     21  O   UNL     1      36.640 -24.303 -14.059  0.00  0.00    -0.316 OA
ATOM     22  C   UNL     1      35.971 -23.711 -11.329  0.00  0.00    +0.173 C 
ATOM     23  C   UNL     1      37.277 -24.401 -11.722  0.00  0.00    +0.169 C 
ATOM     24  C   UNL     1      34.906 -23.887 -12.411  0.00  0.00    +0.210 C 
ATOM     25  C   UNL     1      37.694 -24.007 -13.141  0.00  0.00    +0.177 C 
ATOM     26  C   UNL     1      35.459 -23.550 -13.796  0.00  0.00    +0.318 C 
BRANCH  22  27
ATOM     27  O   UNL     1      35.512 -24.297 -10.110  0.00  0.00    -0.379 OA
ATOM     28  H   UNL     1      35.852 -25.202 -10.037  0.00  0.00    +0.211 HD
ENDBRANCH  22  27
BRANCH  23  29
ATOM     29  O   UNL     1      38.304 -24.023 -10.808  0.00  0.00    -0.379 OA
ATOM     30  H   UNL     1      38.811 -23.285 -11.179  0.00  0.00    +0.211 HD
ENDBRANCH  23  29
BRANCH  24  31
ATOM     31  O   UNL     1      33.810 -23.012 -12.142  0.00  0.00    -0.377 OA
ATOM     32  H   UNL     1      33.520 -22.594 -12.968  0.00  0.00    +0.211 HD
ENDBRANCH  24  31
BRANCH  25  33
ATOM     33  C   UNL     1      38.932 -24.772 -13.599  0.00  0.00    +0.169 C 
BRANCH  33  34
ATOM     34  O   UNL     1      40.079 -24.128 -13.075  0.00  0.00    -0.379 OA
ATOM     35  H   UNL     1      40.589 -24.760 -12.545  0.00  0.00    +0.211 HD
ENDBRANCH  33  34
ENDBRANCH  25  33
ENDBRANCH  20  26
ENDBRANCH   3  20
TORSDOF 9
ENDMDL
MODEL 2
REMARK VINA RESULT:     -12.2      1.209      2.166
REMARK  Name = 107971
REMARK  9 active torsions:
REMARK  status: ('A' for Active; 'I' for Inactive)
REMARK    1  A    between atoms: C_3  and  O_20
REMARK    2  A    between atoms: C_10  and  C_12
REMARK    3  A    between atoms: C_17  and  O_18
REMARK    4  A    between atoms: O_20  and  C_26
REMARK    5  A    between atoms: C_22  and  O_27
REMARK    6  A    between atoms: C_23  and  O_29
REMARK    7  A    between atoms: C_24  and  O_31
REMARK    8  A    between atoms: C_25  and  C_33
REMARK    9  A    between atoms: C_33  and  O_34
REMARK                            x       y       z     vdW  Elec       q    Type
REMARK                         _______ _______ _______ _____ _____    ______ ____
ROOT
ATOM      1  O   UNL     1      33.187 -20.656 -19.449  0.00  0.00    -0.450 OA
ATOM      2  O   UNL     1      36.876 -19.005 -20.006  0.00  0.00    -0.286 OA
ATOM      3  C   UNL     1      34.990 -22.338 -16.768  0.00  0.00    +0.144 C 
ATOM      4  C   UNL     1      33.967 -21.937 -17.626  0.00  0.00    +0.075 C 
ATOM      5  C   UNL     1      36.275 -21.815 -16.918  0.00  0.00    +0.037 C 
ATOM      6  C   UNL     1      34.231 -21.012 -18.636  0.00  0.00    +0.151 C 
ATOM      7  C   UNL     1      35.515 -20.490 -18.787  0.00  0.00    +0.074 C 
ATOM      8  C   UNL     1      36.542 -20.890 -17.927  0.00  0.00    +0.009 C 
ATOM      9  C   UNL     1      35.770 -19.510 -19.859  0.00  0.00    +0.202 C 
ATOM     10  C   UNL     1      34.614 -19.167 -20.731  0.00  0.00    +0.077 C 
ATOM     11  C   UNL     1      33.441 -19.758 -20.458  0.00  0.00    +0.183 C 
ENDROOT
BRANCH  10  12
ATOM     12  C   UNL     1      34.741 -18.232 -21.862  0.00  0.00    +0.006 C 
ATOM     13  C   UNL     1      35.253 -16.949 -21.657  0.00  0.00    +0.003 C 
ATOM     14  C   UNL     1      34.350 -18.626 -23.143  0.00  0.00    +0.003 C 
ATOM     15  C   UNL     1      35.373 -16.064 -22.728  0.00  0.00    +0.037 C 
ATOM     16  C   UNL     1      34.469 -17.741 -24.215  0.00  0.00    +0.037 C 
ATOM     17  C   UNL     1      34.981 -16.460 -24.007  0.00  0.00    +0.134 C 
BRANCH  17  18
ATOM     18  O   UNL     1      35.098 -15.596 -25.053  0.00  0.00    -0.506 OA
ATOM     19  H   UNL     1      35.946 -15.324 -25.342  0.00  0.00    +0.292 HD
ENDBRANCH  17  18
ENDBRANCH  10  12
BRANCH   3  20
ATOM     20  O   UNL     1      34.735 -23.243 -15.780  0.00  0.00    -0.450 OA
BRANCH  20  26
ATOM     21  O   UNL     1      36.681 -24.202 -14.922  0.00  0.00    -0.316 OA
ATOM     22  C   UNL     1      35.780 -23.824 -12.222  0.00  0.00    +0.173 C 
ATOM     23  C   UNL     1      36.969 -24.719 -12.571  0.00  0.00    +0.169 C 
ATOM     24  C   UNL     1      34.855 -23.639 -13.424  0.00  0.00    +0.210 C 
ATOM     25  C   UNL     1      37.641 -24.249 -13.864  0.00  0.00    +0.177 C 
ATOM     26  C   UNL     1      35.643 -23.257 -14.678  0.00  0.00    +0.318 C 
BRANCH  22  27
ATOM     27  O   UNL     1      35.057 -24.446 -11.158  0.00  0.00    -0.379 OA
ATOM     28  H   UNL     1      34.358 -23.848 -10.849  0.00  0.00    +0.211 HD
ENDBRANCH  22  27
BRANCH  23  29
ATOM     29  O   UNL     1      37.917 -24.679 -11.507  0.00  0.00    -0.379 OA
ATOM     30  H   UNL     1      38.541 -25.415 -11.603  0.00  0.00    +0.211 HD
ENDBRANCH  23  29
BRANCH  24  31
ATOM     31  O   UNL     1      33.922 -22.594 -13.148  0.00  0.00    -0.377 OA
ATOM     32  H   UNL     1      34.215 -22.097 -12.369  0.00  0.00    +0.211 HD
ENDBRANCH  24  31
BRANCH  25  33
ATOM     33  C   UNL     1      38.758 -25.194 -14.296  0.00  0.00    +0.169 C 
BRANCH  33  34
ATOM     34  O   UNL     1      38.486 -26.481 -13.772  0.00  0.00    -0.379 OA
ATOM     35  H   UNL     1      39.227 -26.766 -13.216  0.00  0.00    +0.211 HD
ENDBRANCH  33  34
ENDBRANCH  25  33
ENDBRANCH  20  26
ENDBRANCH   3  20
TORSDOF 9
ENDMDL
MODEL 3
REMARK VINA RESULT:     -11.5      1.739      3.467
REMARK  Name = 107971
REMARK  9 active torsions:
REMARK  status: ('A' for Active; 'I' for Inactive)
REMARK    1  A    between atoms: C_3  and  O_20
REMARK    2  A    between atoms: C_10  and  C_12
REMARK    3  A    between atoms: C_17  and  O_18
REMARK    4  A    between atoms: O_20  and  C_26
REMARK    5  A    between atoms: C_22  and  O_27
REMARK    6  A    between atoms: C_23  and  O_29
REMARK    7  A    between atoms: C_24  and  O_31
REMARK    8  A    between atoms: C_25  and  C_33
REMARK    9  A    between atoms: C_33  and  O_34
REMARK                            x       y       z     vdW  Elec       q    Type
REMARK                         _______ _______ _______ _____ _____    ______ ____
ROOT
ATOM      1  O   UNL     1      37.164 -19.072 -19.750  0.00  0.00    -0.450 OA
ATOM      2  O   UNL     1      33.332 -19.495 -21.085  0.00  0.00    -0.286 OA
ATOM      3  C   UNL     1      35.948 -21.465 -17.286  0.00  0.00    +0.144 C 
ATOM      4  C   UNL     1      36.785 -20.600 -17.989  0.00  0.00    +0.075 C 
ATOM      5  C   UNL     1      34.624 -21.641 -17.690  0.00  0.00    +0.037 C 
ATOM      6  C   UNL     1      36.295 -19.909 -19.098  0.00  0.00    +0.151 C 
ATOM      7  C   UNL     1      34.972 -20.084 -19.502  0.00  0.00    +0.074 C 
ATOM      8  C   UNL     1      34.131 -20.951 -18.799  0.00  0.00    +0.009 C 
ATOM      9  C   UNL     1      34.477 -19.347 -20.679  0.00  0.00    +0.202 C 
ATOM     10  C   UNL     1      35.447 -18.435 -21.345  0.00  0.00    +0.077 C 
ATOM     11  C   UNL     1      36.685 -18.375 -20.833  0.00  0.00    +0.183 C 
ENDROOT
BRANCH  10  12
ATOM     12  C   UNL     1      35.072 -17.612 -22.507  0.00  0.00    +0.006 C 
ATOM     13  C   UNL     1      35.316 -16.237 -22.501  0.00  0.00    +0.003 C 
ATOM     14  C   UNL     1      34.470 -18.205 -23.620  0.00  0.00    +0.003 C 
ATOM     15  C   UNL     1      34.961 -15.458 -23.602  0.00  0.00    +0.037 C 
ATOM     16  C   UNL     1      34.113 -17.425 -24.720  0.00  0.00    +0.037 C 
ATOM     17  C   UNL     1      34.358 -16.052 -24.712  0.00  0.00    +0.134 C 
BRANCH  17  18
ATOM     18  O   UNL     1      34.011 -15.292 -25.786  0.00  0.00    -0.506 OA
ATOM     19  H   UNL     1      33.145 -14.940 -25.849  0.00  0.00    +0.292 HD
ENDBRANCH  17  18
ENDBRANCH  10  12
BRANCH   3  20
ATOM     20  O   UNL     1      36.422 -22.140 -16.201  0.00  0.00    -0.450 OA
BRANCH  20  26
ATOM     21  O   UNL     1      34.423 -22.196 -15.001  0.00  0.00    -0.316 OA
ATOM     22  C   UNL     1      35.287 -24.489 -13.502  0.00  0.00    +0.173 C 
ATOM     23  C   UNL     1      34.069 -23.657 -13.099  0.00  0.00    +0.169 C 
ATOM     24  C   UNL     1      36.241 -23.681 -14.381  0.00  0.00    +0.210 C 
ATOM     25  C   UNL     1      33.442 -22.984 -14.323  0.00  0.00    +0.177 C 
ATOM     26  C   UNL     1      35.494 -22.982 -15.517  0.00  0.00    +0.318 C 
BRANCH  22  27
ATOM     27  O   UNL     1      35.963 -24.889 -12.309  0.00  0.00    -0.379 OA
ATOM     28  H   UNL     1      36.072 -24.121 -11.726  0.00  0.00    +0.211 HD
ENDBRANCH  22  27
BRANCH  23  29
ATOM     29  O   UNL     1      33.103 -24.505 -12.482  0.00  0.00    -0.379 OA
ATOM     30  H   UNL     1      33.398 -25.427 -12.541  0.00  0.00    +0.211 HD
ENDBRANCH  23  29
BRANCH  24  31
ATOM     31  O   UNL     1      37.211 -24.557 -14.956  0.00  0.00    -0.377 OA
ATOM     32  H   UNL     1      37.987 -24.044 -15.230  0.00  0.00    +0.211 HD
ENDBRANCH  24  31
BRANCH  25  33
ATOM     33  C   UNL     1      32.296 -22.056 -13.931  0.00  0.00    +0.169 C 
BRANCH  33  34
ATOM     34  O   UNL     1      32.270 -21.944 -12.520  0.00  0.00    -0.379 OA
ATOM     35  H   UNL     1      31.411 -22.247 -12.188  0.00  0.00    +0.211 HD
ENDBRANCH  33  34
ENDBRANCH  25  33
ENDBRANCH  20  26
ENDBRANCH   3  20
TORSDOF 9
ENDMDL
MODEL 4
REMARK VINA RESULT:     -11.1      1.771     10.194
REMARK  Name = 107971
REMARK  9 active torsions:
REMARK  status: ('A' for Active; 'I' for Inactive)
REMARK    1  A    between atoms: C_3  and  O_20
REMARK    2  A    between atoms: C_10  and  C_12
REMARK    3  A    between atoms: C_17  and  O_18
REMARK    4  A    between atoms: O_20  and  C_26
REMARK    5  A    between atoms: C_22  and  O_27
REMARK    6  A    between atoms: C_23  and  O_29
REMARK    7  A    between atoms: C_24  and  O_31
REMARK    8  A    between atoms: C_25  and  C_33
REMARK    9  A    between atoms: C_33  and  O_34
REMARK                            x       y       z     vdW  Elec       q    Type
REMARK                         _______ _______ _______ _____ _____    ______ ____
ROOT
ATOM      1  O   UNL     1      33.802 -22.201 -17.145  0.00  0.00    -0.450 OA
ATOM      2  O   UNL     1      37.719 -21.800 -16.078  0.00  0.00    -0.286 OA
ATOM      3  C   UNL     1      34.930 -20.053 -19.862  0.00  0.00    +0.144 C 
ATOM      4  C   UNL     1      34.115 -20.838 -19.047  0.00  0.00    +0.075 C 
ATOM      5  C   UNL     1      36.275 -19.871 -19.541  0.00  0.00    +0.037 C 
ATOM      6  C   UNL     1      34.650 -21.441 -17.908  0.00  0.00    +0.151 C 
ATOM      7  C   UNL     1      35.994 -21.259 -17.586  0.00  0.00    +0.074 C 
ATOM      8  C   UNL     1      36.812 -20.473 -18.402  0.00  0.00    +0.009 C 
ATOM      9  C   UNL     1      36.538 -21.909 -16.379  0.00  0.00    +0.202 C 
ATOM     10  C   UNL     1      35.579 -22.709 -15.569  0.00  0.00    +0.077 C 
ATOM     11  C   UNL     1      34.315 -22.785 -16.012  0.00  0.00    +0.183 C 
ENDROOT
BRANCH  10  12
ATOM     12  C   UNL     1      35.982 -23.378 -14.321  0.00  0.00    +0.006 C 
ATOM     13  C   UNL     1      35.714 -22.782 -13.087  0.00  0.00    +0.003 C 
ATOM     14  C   UNL     1      36.634 -24.613 -14.368  0.00  0.00    +0.003 C 
ATOM     15  C   UNL     1      36.096 -23.417 -11.906  0.00  0.00    +0.037 C 
ATOM     16  C   UNL     1      37.017 -25.247 -13.186  0.00  0.00    +0.037 C 
ATOM     17  C   UNL     1      36.748 -24.649 -11.954  0.00  0.00    +0.134 C 
BRANCH  17  18
ATOM     18  O   UNL     1      37.121 -25.268 -10.801  0.00  0.00    -0.506 OA
ATOM     19  H   UNL     1      36.612 -25.152 -10.023  0.00  0.00    +0.292 HD
ENDBRANCH  17  18
ENDBRANCH  10  12
BRANCH   3  20
ATOM     20  O   UNL     1      34.411 -19.461 -20.975  0.00  0.00    -0.450 OA
BRANCH  20  26
ATOM     21  O   UNL     1      34.711 -17.171 -20.648  0.00  0.00    -0.316 OA
ATOM     22  C   UNL     1      35.226 -16.752 -23.443  0.00  0.00    +0.173 C 
ATOM     23  C   UNL     1      34.947 -15.598 -22.479  0.00  0.00    +0.169 C 
ATOM     24  C   UNL     1      34.671 -18.070 -22.904  0.00  0.00    +0.210 C 
ATOM     25  C   UNL     1      35.367 -15.968 -21.054  0.00  0.00    +0.177 C 
ATOM     26  C   UNL     1      35.080 -18.291 -21.447  0.00  0.00    +0.318 C 
BRANCH  22  27
ATOM     27  O   UNL     1      34.599 -16.447 -24.690  0.00  0.00    -0.379 OA
ATOM     28  H   UNL     1      34.231 -17.258 -25.074  0.00  0.00    +0.211 HD
ENDBRANCH  22  27
BRANCH  23  29
ATOM     29  O   UNL     1      35.672 -14.446 -22.900  0.00  0.00    -0.379 OA
ATOM     30  H   UNL     1      35.127 -13.655 -22.768  0.00  0.00    +0.211 HD
ENDBRANCH  23  29
BRANCH  24  31
ATOM     31  O   UNL     1      35.182 -19.152 -23.681  0.00  0.00    -0.377 OA
ATOM     32  H   UNL     1      36.103 -18.970 -23.923  0.00  0.00    +0.211 HD
ENDBRANCH  24  31
BRANCH  25  33
ATOM     33  C   UNL     1      34.992 -14.878 -20.054  0.00  0.00    +0.169 C 
BRANCH  33  34
ATOM     34  O   UNL     1      34.116 -13.966 -20.691  0.00  0.00    -0.379 OA
ATOM     35  H   UNL     1      34.047 -14.189 -21.632  0.00  0.00    +0.211 HD
ENDBRANCH  33  34
ENDBRANCH  25  33
ENDBRANCH  20  26
ENDBRANCH   3  20
TORSDOF 9
ENDMDL
MODEL 5
REMARK VINA RESULT:     -10.9      1.291      2.273
REMARK  Name = 107971
REMARK  9 active torsions:
REMARK  status: ('A' for Active; 'I' for Inactive)
REMARK    1  A    between atoms: C_3  and  O_20
REMARK    2  A    between atoms: C_10  and  C_12
REMARK    3  A    between atoms: C_17  and  O_18
REMARK    4  A    between atoms: O_20  and  C_26
REMARK    5  A    between atoms: C_22  and  O_27
REMARK    6  A    between atoms: C_23  and  O_29
REMARK    7  A    between atoms: C_24  and  O_31
REMARK    8  A    between atoms: C_25  and  C_33
REMARK    9  A    between atoms: C_33  and  O_34
REMARK                            x       y       z     vdW  Elec       q    Type
REMARK                         _______ _______ _______ _____ _____    ______ ____
ROOT
ATOM      1  O   UNL     1      36.587 -21.495 -17.099  0.00  0.00    -0.450 OA
ATOM      2  O   UNL     1      33.115 -20.779 -19.118  0.00  0.00    -0.286 OA
ATOM      3  C   UNL     1      34.301 -23.445 -15.039  0.00  0.00    +0.144 C 
ATOM      4  C   UNL     1      35.466 -22.856 -15.528  0.00  0.00    +0.075 C 
ATOM      5  C   UNL     1      33.082 -23.226 -15.682  0.00  0.00    +0.037 C 
ATOM      6  C   UNL     1      35.410 -22.047 -16.663  0.00  0.00    +0.151 C 
ATOM      7  C   UNL     1      34.192 -21.828 -17.307  0.00  0.00    +0.074 C 
ATOM      8  C   UNL     1      33.023 -22.417 -16.818  0.00  0.00    +0.009 C 
ATOM      9  C   UNL     1      34.158 -20.972 -18.507  0.00  0.00    +0.202 C 
ATOM     10  C   UNL     1      35.454 -20.377 -18.933  0.00  0.00    +0.077 C 
ATOM     11  C   UNL     1      36.539 -20.683 -18.206  0.00  0.00    +0.183 C 
ENDROOT
BRANCH  10  12
ATOM     12  C   UNL     1      35.554 -19.474 -20.092  0.00  0.00    +0.006 C 
ATOM     13  C   UNL     1      36.694 -18.688 -20.273  0.00  0.00    +0.003 C 
ATOM     14  C   UNL     1      34.507 -19.401 -21.015  0.00  0.00    +0.003 C 
ATOM     15  C   UNL     1      36.787 -17.833 -21.371  0.00  0.00    +0.037 C 
ATOM     16  C   UNL     1      34.601 -18.545 -22.112  0.00  0.00    +0.037 C 
ATOM     17  C   UNL     1      35.741 -17.761 -22.290  0.00  0.00    +0.134 C 
BRANCH  17  18
ATOM     18  O   UNL     1      35.832 -16.926 -23.361  0.00  0.00    -0.506 OA
ATOM     19  H   UNL     1      35.314 -16.146 -23.392  0.00  0.00    +0.292 HD
ENDBRANCH  17  18
ENDBRANCH  10  12
BRANCH   3  20
ATOM     20  O   UNL     1      34.351 -24.235 -13.929  0.00  0.00    -0.450 OA
BRANCH  20  26
ATOM     21  O   UNL     1      36.191 -23.246 -12.890  0.00  0.00    -0.316 OA
ATOM     22  C   UNL     1      37.978 -25.202 -13.998  0.00  0.00    +0.173 C 
ATOM     23  C   UNL     1      38.477 -23.915 -13.343  0.00  0.00    +0.169 C 
ATOM     24  C   UNL     1      36.531 -25.059 -14.469  0.00  0.00    +0.210 C 
ATOM     25  C   UNL     1      37.479 -23.417 -12.295  0.00  0.00    +0.177 C 
ATOM     26  C   UNL     1      35.644 -24.471 -13.371  0.00  0.00    +0.318 C 
BRANCH  22  27
ATOM     27  O   UNL     1      38.817 -25.482 -15.120  0.00  0.00    -0.379 OA
ATOM     28  H   UNL     1      38.274 -25.796 -15.860  0.00  0.00    +0.211 HD
ENDBRANCH  22  27
BRANCH  23  29
ATOM     29  O   UNL     1      39.734 -24.161 -12.717  0.00  0.00    -0.379 OA
ATOM     30  H   UNL     1      40.438 -24.131 -13.384  0.00  0.00    +0.211 HD
ENDBRANCH  23  29
BRANCH  24  31
ATOM     31  O   UNL     1      36.016 -26.343 -14.819  0.00  0.00    -0.377 OA
ATOM     32  H   UNL     1      36.401 -27.015 -14.235  0.00  0.00    +0.211 HD
ENDBRANCH  24  31
BRANCH  25  33
ATOM     33  C   UNL     1      37.898 -22.071 -11.710  0.00  0.00    +0.169 C 
BRANCH  33  34
ATOM     34  O   UNL     1      39.066 -22.263 -10.932  0.00  0.00    -0.379 OA
ATOM     35  H   UNL     1      39.320 -23.199 -10.958  0.00  0.00    +0.211 HD
ENDBRANCH  33  34
ENDBRANCH  25  33
ENDBRANCH  20  26
ENDBRANCH   3  20
TORSDOF 9
ENDMDL
MODEL 6
REMARK VINA RESULT:     -10.8      1.197      2.544
REMARK  Name = 107971
REMARK  9 active torsions:
REMARK  status: ('A' for Active; 'I' for Inactive)
REMARK    1  A    between atoms: C_3  and  O_20
REMARK    2  A    between atoms: C_10  and  C_12
REMARK    3  A    between atoms: C_17  and  O_18
REMARK    4  A    between atoms: O_20  and  C_26
REMARK    5  A    between atoms: C_22  and  O_27
REMARK    6  A    between atoms: C_23  and  O_29
REMARK    7  A    between atoms: C_24  and  O_31
REMARK    8  A    between atoms: C_25  and  C_33
REMARK    9  A    between atoms: C_33  and  O_34
REMARK                            x       y       z     vdW  Elec       q    Type
REMARK                         _______ _______ _______ _____ _____    ______ ____
ROOT
ATOM      1  O   UNL     1      33.180 -21.121 -18.690  0.00  0.00    -0.450 OA
ATOM      2  O   UNL     1      36.915 -19.505 -18.976  0.00  0.00    -0.286 OA
ATOM      3  C   UNL     1      34.791 -22.883 -15.938  0.00  0.00    +0.144 C 
ATOM      4  C   UNL     1      33.829 -22.451 -16.850  0.00  0.00    +0.075 C 
ATOM      5  C   UNL     1      36.089 -22.373 -15.995  0.00  0.00    +0.037 C 
ATOM      6  C   UNL     1      34.167 -21.508 -17.820  0.00  0.00    +0.151 C 
ATOM      7  C   UNL     1      35.464 -20.998 -17.878  0.00  0.00    +0.074 C 
ATOM      8  C   UNL     1      36.430 -21.430 -16.965  0.00  0.00    +0.009 C 
ATOM      9  C   UNL     1      35.797 -19.999 -18.910  0.00  0.00    +0.202 C 
ATOM     10  C   UNL     1      34.702 -19.622 -19.845  0.00  0.00    +0.077 C 
ATOM     11  C   UNL     1      33.508 -20.204 -19.660  0.00  0.00    +0.183 C 
ENDROOT
BRANCH  10  12
ATOM     12  C   UNL     1      34.911 -18.665 -20.944  0.00  0.00    +0.006 C 
ATOM     13  C   UNL     1      34.606 -19.028 -22.258  0.00  0.00    +0.003 C 
ATOM     14  C   UNL     1      35.415 -17.390 -20.676  0.00  0.00    +0.003 C 
ATOM     15  C   UNL     1      34.804 -18.121 -23.298  0.00  0.00    +0.037 C 
ATOM     16  C   UNL     1      35.614 -16.483 -21.717  0.00  0.00    +0.037 C 
ATOM     17  C   UNL     1      35.309 -16.849 -23.029  0.00  0.00    +0.134 C 
BRANCH  17  18
ATOM     18  O   UNL     1      35.503 -15.964 -24.044  0.00  0.00    -0.506 OA
ATOM     19  H   UNL     1      34.774 -15.492 -24.399  0.00  0.00    +0.292 HD
ENDBRANCH  17  18
ENDBRANCH  10  12
BRANCH   3  20
ATOM     20  O   UNL     1      34.464 -23.806 -14.989  0.00  0.00    -0.450 OA
BRANCH  20  26
ATOM     21  O   UNL     1      36.023 -23.055 -13.425  0.00  0.00    -0.316 OA
ATOM     22  C   UNL     1      37.826 -25.198 -14.064  0.00  0.00    +0.173 C 
ATOM     23  C   UNL     1      38.254 -23.986 -13.236  0.00  0.00    +0.169 C 
ATOM     24  C   UNL     1      36.602 -24.877 -14.921  0.00  0.00    +0.210 C 
ATOM     25  C   UNL     1      37.057 -23.385 -12.495  0.00  0.00    +0.177 C 
ATOM     26  C   UNL     1      35.507 -24.201 -14.097  0.00  0.00    +0.318 C 
BRANCH  22  27
ATOM     27  O   UNL     1      38.917 -25.563 -14.910  0.00  0.00    -0.379 OA
ATOM     28  H   UNL     1      39.043 -26.524 -14.880  0.00  0.00    +0.211 HD
ENDBRANCH  22  27
BRANCH  23  29
ATOM     29  O   UNL     1      39.241 -24.387 -12.289  0.00  0.00    -0.379 OA
ATOM     30  H   UNL     1      38.938 -25.181 -11.823  0.00  0.00    +0.211 HD
ENDBRANCH  23  29
BRANCH  24  31
ATOM     31  O   UNL     1      36.071 -26.088 -15.461  0.00  0.00    -0.377 OA
ATOM     32  H   UNL     1      36.462 -26.251 -16.333  0.00  0.00    +0.211 HD
ENDBRANCH  24  31
BRANCH  25  33
ATOM     33  C   UNL     1      37.436 -22.106 -11.755  0.00  0.00    +0.169 C 
BRANCH  33  34
ATOM     34  O   UNL     1      37.785 -22.442 -10.424  0.00  0.00    -0.379 OA
ATOM     35  H   UNL     1      37.095 -22.128  -9.820  0.00  0.00    +0.211 HD
ENDBRANCH  33  34
ENDBRANCH  25  33
ENDBRANCH  20  26
ENDBRANCH   3  20
TORSDOF 9
ENDMDL
MODEL 7
REMARK VINA RESULT:     -10.5      2.249     10.825
REMARK  Name = 107971
REMARK  9 active torsions:
REMARK  status: ('A' for Active; 'I' for Inactive)
REMARK    1  A    between atoms: C_3  and  O_20
REMARK    2  A    between atoms: C_10  and  C_12
REMARK    3  A    between atoms: C_17  and  O_18
REMARK    4  A    between atoms: O_20  and  C_26
REMARK    5  A    between atoms: C_22  and  O_27
REMARK    6  A    between atoms: C_23  and  O_29
REMARK    7  A    between atoms: C_24  and  O_31
REMARK    8  A    between atoms: C_25  and  C_33
REMARK    9  A    between atoms: C_33  and  O_34
REMARK                            x       y       z     vdW  Elec       q    Type
REMARK                         _______ _______ _______ _____ _____    ______ ____
ROOT
ATOM      1  O   UNL     1      33.467 -20.124 -20.282  0.00  0.00    -0.450 OA
ATOM      2  O   UNL     1      37.094 -20.109 -18.414  0.00  0.00    -0.286 OA
ATOM      3  C   UNL     1      35.271 -17.895 -22.528  0.00  0.00    +0.144 C 
ATOM      4  C   UNL     1      34.256 -18.666 -21.963  0.00  0.00    +0.075 C 
ATOM      5  C   UNL     1      36.529 -17.843 -21.927  0.00  0.00    +0.037 C 
ATOM      6  C   UNL     1      34.502 -19.385 -20.792  0.00  0.00    +0.151 C 
ATOM      7  C   UNL     1      35.759 -19.332 -20.191  0.00  0.00    +0.074 C 
ATOM      8  C   UNL     1      36.777 -18.561 -20.757  0.00  0.00    +0.009 C 
ATOM      9  C   UNL     1      35.997 -20.103 -18.957  0.00  0.00    +0.202 C 
ATOM     10  C   UNL     1      34.841 -20.877 -18.426  0.00  0.00    +0.077 C 
ATOM     11  C   UNL     1      33.694 -20.823 -19.120  0.00  0.00    +0.183 C 
ENDROOT
BRANCH  10  12
ATOM     12  C   UNL     1      34.932 -21.659 -17.182  0.00  0.00    +0.006 C 
ATOM     13  C   UNL     1      33.838 -22.409 -16.743  0.00  0.00    +0.003 C 
ATOM     14  C   UNL     1      36.113 -21.653 -16.436  0.00  0.00    +0.003 C 
ATOM     15  C   UNL     1      33.925 -23.149 -15.564  0.00  0.00    +0.037 C 
ATOM     16  C   UNL     1      36.199 -22.393 -15.257  0.00  0.00    +0.037 C 
ATOM     17  C   UNL     1      35.105 -23.141 -14.821  0.00  0.00    +0.134 C 
BRANCH  17  18
ATOM     18  O   UNL     1      35.190 -23.863 -13.670  0.00  0.00    -0.506 OA
ATOM     19  H   UNL     1      35.100 -23.435 -12.841  0.00  0.00    +0.292 HD
ENDBRANCH  17  18
ENDBRANCH  10  12
BRANCH   3  20
ATOM     20  O   UNL     1      35.034 -17.190 -23.671  0.00  0.00    -0.450 OA
BRANCH  20  26
ATOM     21  O   UNL     1      34.677 -15.397 -22.221  0.00  0.00    -0.316 OA
ATOM     22  C   UNL     1      33.818 -13.710 -24.380  0.00  0.00    +0.173 C 
ATOM     23  C   UNL     1      33.605 -13.336 -22.913  0.00  0.00    +0.169 C 
ATOM     24  C   UNL     1      34.000 -15.218 -24.546  0.00  0.00    +0.210 C 
ATOM     25  C   UNL     1      34.674 -13.982 -22.028  0.00  0.00    +0.177 C 
ATOM     26  C   UNL     1      35.025 -15.767 -23.553  0.00  0.00    +0.318 C 
BRANCH  22  27
ATOM     27  O   UNL     1      32.668 -13.286 -25.115  0.00  0.00    -0.379 OA
ATOM     28  H   UNL     1      32.815 -12.391 -25.458  0.00  0.00    +0.211 HD
ENDBRANCH  22  27
BRANCH  23  29
ATOM     29  O   UNL     1      33.670 -11.919 -22.774  0.00  0.00    -0.379 OA
ATOM     30  H   UNL     1      34.237 -11.695 -22.019  0.00  0.00    +0.211 HD
ENDBRANCH  23  29
BRANCH  24  31
ATOM     31  O   UNL     1      34.464 -15.497 -25.867  0.00  0.00    -0.377 OA
ATOM     32  H   UNL     1      34.259 -14.747 -26.446  0.00  0.00    +0.211 HD
ENDBRANCH  24  31
BRANCH  25  33
ATOM     33  C   UNL     1      34.416 -13.719 -20.548  0.00  0.00    +0.169 C 
BRANCH  33  34
ATOM     34  O   UNL     1      33.052 -13.373 -20.384  0.00  0.00    -0.379 OA
ATOM     35  H   UNL     1      32.502 -13.967 -20.918  0.00  0.00    +0.211 HD
ENDBRANCH  33  34
ENDBRANCH  25  33
ENDBRANCH  20  26
ENDBRANCH   3  20
TORSDOF 9
ENDMDL
MODEL 8
REMARK VINA RESULT:     -10.3      2.721     10.445
REMARK  Name = 107971
REMARK  9 active torsions:
REMARK  status: ('A' for Active; 'I' for Inactive)
REMARK    1  A    between atoms: C_3  and  O_20
REMARK    2  A    between atoms: C_10  and  C_12
REMARK    3  A    between atoms: C_17  and  O_18
REMARK    4  A    between atoms: O_20  and  C_26
REMARK    5  A    between atoms: C_22  and  O_27
REMARK    6  A    between atoms: C_23  and  O_29
REMARK    7  A    between atoms: C_24  and  O_31
REMARK    8  A    between atoms: C_25  and  C_33
REMARK    9  A    between atoms: C_33  and  O_34
REMARK                            x       y       z     vdW  Elec       q    Type
REMARK                         _______ _______ _______ _____ _____    ______ ____
ROOT
ATOM      1  O   UNL     1      32.955 -20.513 -19.184  0.00  0.00    -0.450 OA
ATOM      2  O   UNL     1      36.019 -21.903 -16.877  0.00  0.00    -0.286 OA
ATOM      3  C   UNL     1      35.755 -19.014 -20.968  0.00  0.00    +0.144 C 
ATOM      4  C   UNL     1      34.459 -19.380 -20.610  0.00  0.00    +0.075 C 
ATOM      5  C   UNL     1      36.842 -19.450 -20.209  0.00  0.00    +0.037 C 
ATOM      6  C   UNL     1      34.251 -20.185 -19.489  0.00  0.00    +0.151 C 
ATOM      7  C   UNL     1      35.336 -20.621 -18.730  0.00  0.00    +0.074 C 
ATOM      8  C   UNL     1      36.637 -20.255 -19.088  0.00  0.00    +0.009 C 
ATOM      9  C   UNL     1      35.092 -21.474 -17.552  0.00  0.00    +0.202 C 
ATOM     10  C   UNL     1      33.670 -21.790 -17.246  0.00  0.00    +0.077 C 
ATOM     11  C   UNL     1      32.739 -21.291 -18.073  0.00  0.00    +0.183 C 
ENDROOT
BRANCH  10  12
ATOM     12  C   UNL     1      33.285 -22.599 -16.078  0.00  0.00    +0.006 C 
ATOM     13  C   UNL     1      31.936 -22.828 -15.797  0.00  0.00    +0.003 C 
ATOM     14  C   UNL     1      34.269 -23.141 -15.247  0.00  0.00    +0.003 C 
ATOM     15  C   UNL     1      31.573 -23.594 -14.690  0.00  0.00    +0.037 C 
ATOM     16  C   UNL     1      33.904 -23.906 -14.139  0.00  0.00    +0.037 C 
ATOM     17  C   UNL     1      32.557 -24.133 -13.860  0.00  0.00    +0.134 C 
BRANCH  17  18
ATOM     18  O   UNL     1      32.201 -24.881 -12.780  0.00  0.00    -0.506 OA
ATOM     19  H   UNL     1      32.827 -25.054 -12.105  0.00  0.00    +0.292 HD
ENDBRANCH  17  18
ENDBRANCH  10  12
BRANCH   3  20
ATOM     20  O   UNL     1      35.963 -18.227 -22.062  0.00  0.00    -0.450 OA
BRANCH  20  26
ATOM     21  O   UNL     1      34.850 -16.994 -23.700  0.00  0.00    -0.316 OA
ATOM     22  C   UNL     1      34.612 -14.726 -21.955  0.00  0.00    +0.173 C 
ATOM     23  C   UNL     1      34.342 -14.636 -23.456  0.00  0.00    +0.169 C 
ATOM     24  C   UNL     1      35.507 -15.919 -21.624  0.00  0.00    +0.210 C 
ATOM     25  C   UNL     1      33.882 -15.989 -24.007  0.00  0.00    +0.177 C 
ATOM     26  C   UNL     1      35.003 -17.196 -22.298  0.00  0.00    +0.318 C 
BRANCH  22  27
ATOM     27  O   UNL     1      35.261 -13.519 -21.550  0.00  0.00    -0.379 OA
ATOM     28  H   UNL     1      35.748 -13.674 -20.725  0.00  0.00    +0.211 HD
ENDBRANCH  22  27
BRANCH  23  29
ATOM     29  O   UNL     1      33.329 -13.662 -23.696  0.00  0.00    -0.379 OA
ATOM     30  H   UNL     1      33.031 -13.725 -24.616  0.00  0.00    +0.211 HD
ENDBRANCH  23  29
BRANCH  24  31
ATOM     31  O   UNL     1      35.513 -16.131 -20.213  0.00  0.00    -0.377 OA
ATOM     32  H   UNL     1      36.425 -16.104 -19.885  0.00  0.00    +0.211 HD
ENDBRANCH  24  31
BRANCH  25  33
ATOM     33  C   UNL     1      33.718 -15.954 -25.523  0.00  0.00    +0.169 C 
BRANCH  33  34
ATOM     34  O   UNL     1      34.261 -14.740 -26.008  0.00  0.00    -0.379 OA
ATOM     35  H   UNL     1      33.838 -14.510 -26.849  0.00  0.00    +0.211 HD
ENDBRANCH  33  34
ENDBRANCH  25  33
ENDBRANCH  20  26
ENDBRANCH   3  20
TORSDOF 9
ENDMDL
MODEL 9
REMARK VINA RESULT:     -10.3      5.695     13.619
REMARK  Name = 107971
REMARK  9 active torsions:
REMARK  status: ('A' for Active; 'I' for Inactive)
REMARK    1  A    between atoms: C_3  and  O_20
REMARK    2  A    between atoms: C_10  and  C_12
REMARK    3  A    between atoms: C_17  and  O_18
REMARK    4  A    between atoms: O_20  and  C_26
REMARK    5  A    between atoms: C_22  and  O_27
REMARK    6  A    between atoms: C_23  and  O_29
REMARK    7  A    between atoms: C_24  and  O_31
REMARK    8  A    between atoms: C_25  and  C_33
REMARK    9  A    between atoms: C_33  and  O_34
REMARK                            x       y       z     vdW  Elec       q    Type
REMARK                         _______ _______ _______ _____ _____    ______ ____
ROOT
ATOM      1  O   UNL     1      34.875 -16.087 -23.479  0.00  0.00    -0.450 OA
ATOM      2  O   UNL     1      35.189 -15.637 -19.436  0.00  0.00    -0.286 OA
ATOM      3  C   UNL     1      34.401 -12.482 -23.254  0.00  0.00    +0.144 C 
ATOM      4  C   UNL     1      34.534 -13.769 -23.773  0.00  0.00    +0.075 C 
ATOM      5  C   UNL     1      34.489 -12.269 -21.878  0.00  0.00    +0.037 C 
ATOM      6  C   UNL     1      34.753 -14.845 -22.912  0.00  0.00    +0.151 C 
ATOM      7  C   UNL     1      34.840 -14.633 -21.537  0.00  0.00    +0.074 C 
ATOM      8  C   UNL     1      34.708 -13.343 -21.014  0.00  0.00    +0.009 C 
ATOM      9  C   UNL     1      35.076 -15.784 -20.646  0.00  0.00    +0.202 C 
ATOM     10  C   UNL     1      35.183 -17.117 -21.302  0.00  0.00    +0.077 C 
ATOM     11  C   UNL     1      35.075 -17.155 -22.638  0.00  0.00    +0.183 C 
ENDROOT
BRANCH  10  12
ATOM     12  C   UNL     1      35.380 -18.353 -20.526  0.00  0.00    +0.006 C 
ATOM     13  C   UNL     1      34.284 -19.144 -20.176  0.00  0.00    +0.003 C 
ATOM     14  C   UNL     1      36.666 -18.738 -20.138  0.00  0.00    +0.003 C 
ATOM     15  C   UNL     1      34.472 -20.314 -19.442  0.00  0.00    +0.037 C 
ATOM     16  C   UNL     1      36.853 -19.908 -19.402  0.00  0.00    +0.037 C 
ATOM     17  C   UNL     1      35.756 -20.697 -19.054  0.00  0.00    +0.134 C 
BRANCH  17  18
ATOM     18  O   UNL     1      35.939 -21.839 -18.337  0.00  0.00    -0.506 OA
ATOM     19  H   UNL     1      35.381 -22.577 -18.483  0.00  0.00    +0.292 HD
ENDBRANCH  17  18
ENDBRANCH  10  12
BRANCH   3  20
ATOM     20  O   UNL     1      34.185 -11.428 -24.092  0.00  0.00    -0.450 OA
BRANCH  20  26
ATOM     21  O   UNL     1      32.914  -9.661 -23.254  0.00  0.00    -0.316 OA
ATOM     22  C   UNL     1      34.920  -7.748 -24.007  0.00  0.00    +0.173 C 
ATOM     23  C   UNL     1      33.507  -7.335 -23.593  0.00  0.00    +0.169 C 
ATOM     24  C   UNL     1      34.953  -9.198 -24.489  0.00  0.00    +0.210 C 
ATOM     25  C   UNL     1      32.895  -8.369 -22.644  0.00  0.00    +0.177 C 
ATOM     26  C   UNL     1      34.237 -10.126 -23.508  0.00  0.00    +0.318 C 
BRANCH  22  27
ATOM     27  O   UNL     1      35.340  -6.885 -25.066  0.00  0.00    -0.379 OA
ATOM     28  H   UNL     1      34.579  -6.380 -25.393  0.00  0.00    +0.211 HD
ENDBRANCH  22  27
BRANCH  23  29
ATOM     29  O   UNL     1      33.559  -6.069 -22.940  0.00  0.00    -0.379 OA
ATOM     30  H   UNL     1      34.043  -5.438 -23.495  0.00  0.00    +0.211 HD
ENDBRANCH  23  29
BRANCH  24  31
ATOM     31  O   UNL     1      36.309  -9.628 -24.603  0.00  0.00    -0.377 OA
ATOM     32  H   UNL     1      36.898  -8.931 -24.274  0.00  0.00    +0.211 HD
ENDBRANCH  24  31
BRANCH  25  33
ATOM     33  C   UNL     1      31.444  -8.038 -22.309  0.00  0.00    +0.169 C 
BRANCH  33  34
ATOM     34  O   UNL     1      31.423  -6.880 -21.495  0.00  0.00    -0.379 OA
ATOM     35  H   UNL     1      32.244  -6.380 -21.624  0.00  0.00    +0.211 HD
ENDBRANCH  33  34
ENDBRANCH  25  33
ENDBRANCH  20  26
ENDBRANCH   3  20
TORSDOF 9
ENDMDL
