MODEL 1
REMARK VINA RESULT:     -13.7      0.000      0.000
REMARK  Name = 9800765
REMARK  5 active torsions:
REMARK  status: ('A' for Active; 'I' for Inactive)
REMARK    1  A    between atoms: C_3  and  C_17
REMARK    2  A    between atoms: C_5  and  N_8
REMARK    3  A    between atoms: N_8  and  C_14
REMARK    4  A    between atoms: C_17  and  C_20
REMARK    5  A    between atoms: C_23  and  C_26
REMARK                            x       y       z     vdW  Elec       q    Type
REMARK                         _______ _______ _______ _____ _____    ______ ____
ROOT
ATOM      1  O   UNL     1      36.837 -22.062 -15.253  0.00  0.00    -0.337 OA
ATOM      2  N   UNL     1      36.118 -22.054 -16.442  0.00  0.00    -0.079 NA
ATOM      3  C   UNL     1      34.881 -22.425 -16.101  0.00  0.00    +0.106 C 
ATOM      4  C   UNL     1      34.762 -22.679 -14.724  0.00  0.00    +0.076 C 
ATOM      5  C   UNL     1      36.015 -22.435 -14.247  0.00  0.00    +0.252 C 
ENDROOT
BRANCH   3   6
ATOM      6  C   UNL     1      33.834 -22.526 -17.130  0.00  0.00    +0.066 C 
ATOM      7  C   UNL     1      32.394 -22.504 -16.561  0.00  0.00    +0.011 C 
BRANCH   6   9
ATOM      8  F   UNL     1      36.963 -20.003 -19.864  0.00  0.00    -0.204 F 
ATOM      9  C   UNL     1      34.124 -21.453 -18.185  0.00  0.00    -0.015 C 
ATOM     10  C   UNL     1      35.430 -21.220 -18.543  0.00  0.00    +0.026 C 
ATOM     11  C   UNL     1      33.065 -20.765 -18.730  0.00  0.00    -0.004 C 
ATOM     12  C   UNL     1      34.643 -19.527 -20.076  0.00  0.00    +0.027 C 
ATOM     13  C   UNL     1      35.694 -20.243 -19.503  0.00  0.00    +0.140 C 
ATOM     14  C   UNL     1      33.329 -19.788 -19.690  0.00  0.00    +0.002 C 
BRANCH  12  15
ATOM     15  C   UNL     1      34.912 -18.514 -21.074  0.00  0.00    +0.002 C 
ATOM     16  C   UNL     1      34.666 -18.781 -22.421  0.00  0.00    +0.000 C 
ATOM     17  C   UNL     1      35.414 -17.271 -20.689  0.00  0.00    +0.000 C 
ATOM     18  C   UNL     1      34.923 -17.804 -23.383  0.00  0.00    +0.000 C 
ATOM     19  C   UNL     1      35.671 -16.295 -21.652  0.00  0.00    +0.000 C 
ATOM     20  C   UNL     1      35.427 -16.561 -22.999  0.00  0.00    +0.000 C 
ENDBRANCH  12  15
ENDBRANCH   6   9
ENDBRANCH   3   6
BRANCH   5  21
ATOM     21  N   UNL     1      36.485 -22.521 -12.970  0.00  0.00    -0.147 NA
BRANCH  21  29
ATOM     22  O   UNL     1      39.489 -26.184 -13.852  0.00  0.00    -0.350 OA
ATOM     23  N   UNL     1      37.545 -24.549 -12.672  0.00  0.00    -0.277 N 
ATOM     24  N   UNL     1      35.598 -24.270 -11.556  0.00  0.00    -0.373 N 
ATOM     25  C   UNL     1      37.384 -26.001 -12.662  0.00  0.00    +0.125 C 
ATOM     26  C   UNL     1      38.924 -24.081 -12.783  0.00  0.00    +0.125 C 
ATOM     27  C   UNL     1      38.121 -26.598 -13.855  0.00  0.00    +0.164 C 
ATOM     28  C   UNL     1      39.593 -24.763 -13.970  0.00  0.00    +0.164 C 
ATOM     29  C   UNL     1      36.517 -23.708 -12.418  0.00  0.00    +0.182 C 
ATOM     30  H   UNL     1      35.741 -25.181 -11.209  0.00  0.00    +0.158 HD
ATOM     31  H   UNL     1      34.798 -23.762 -11.288  0.00  0.00    +0.158 HD
ENDBRANCH  21  29
ENDBRANCH   5  21
TORSDOF 5
ENDMDL
MODEL 2
REMARK VINA RESULT:     -13.4      0.903      1.556
REMARK  Name = 9800765
REMARK  5 active torsions:
REMARK  status: ('A' for Active; 'I' for Inactive)
REMARK    1  A    between atoms: C_3  and  C_17
REMARK    2  A    between atoms: C_5  and  N_8
REMARK    3  A    between atoms: N_8  and  C_14
REMARK    4  A    between atoms: C_17  and  C_20
REMARK    5  A    between atoms: C_23  and  C_26
REMARK                            x       y       z     vdW  Elec       q    Type
REMARK                         _______ _______ _______ _____ _____    ______ ____
ROOT
ATOM      1  O   UNL     1      37.012 -21.982 -15.031  0.00  0.00    -0.337 OA
ATOM      2  N   UNL     1      36.301 -22.028 -16.224  0.00  0.00    -0.079 NA
ATOM      3  C   UNL     1      35.089 -22.477 -15.887  0.00  0.00    +0.106 C 
ATOM      4  C   UNL     1      34.978 -22.728 -14.508  0.00  0.00    +0.076 C 
ATOM      5  C   UNL     1      36.210 -22.400 -14.026  0.00  0.00    +0.252 C 
ENDROOT
BRANCH   3   6
ATOM      6  C   UNL     1      34.057 -22.651 -16.921  0.00  0.00    +0.066 C 
ATOM      7  C   UNL     1      32.613 -22.697 -16.362  0.00  0.00    +0.011 C 
BRANCH   6   9
ATOM      8  F   UNL     1      32.373 -19.381 -20.099  0.00  0.00    -0.204 F 
ATOM      9  C   UNL     1      34.296 -21.583 -17.993  0.00  0.00    -0.015 C 
ATOM     10  C   UNL     1      33.207 -20.966 -18.560  0.00  0.00    +0.026 C 
ATOM     11  C   UNL     1      35.592 -21.284 -18.345  0.00  0.00    -0.004 C 
ATOM     12  C   UNL     1      34.726 -19.666 -19.916  0.00  0.00    +0.027 C 
ATOM     13  C   UNL     1      33.425 -19.993 -19.535  0.00  0.00    +0.140 C 
ATOM     14  C   UNL     1      35.810 -20.312 -19.320  0.00  0.00    +0.002 C 
BRANCH  12  15
ATOM     15  C   UNL     1      34.958 -18.657 -20.926  0.00  0.00    +0.002 C 
ATOM     16  C   UNL     1      35.387 -17.383 -20.552  0.00  0.00    +0.000 C 
ATOM     17  C   UNL     1      34.753 -18.957 -22.272  0.00  0.00    +0.000 C 
ATOM     18  C   UNL     1      35.612 -16.410 -21.525  0.00  0.00    +0.000 C 
ATOM     19  C   UNL     1      34.978 -17.983 -23.246  0.00  0.00    +0.000 C 
ATOM     20  C   UNL     1      35.406 -16.708 -22.873  0.00  0.00    +0.000 C 
ENDBRANCH  12  15
ENDBRANCH   6   9
ENDBRANCH   3   6
BRANCH   5  21
ATOM     21  N   UNL     1      36.676 -22.448 -12.746  0.00  0.00    -0.147 NA
BRANCH  21  29
ATOM     22  O   UNL     1      39.307 -26.299 -13.958  0.00  0.00    -0.350 OA
ATOM     23  N   UNL     1      37.659 -24.526 -12.548  0.00  0.00    -0.277 N 
ATOM     24  N   UNL     1      35.928 -24.107 -11.156  0.00  0.00    -0.373 N 
ATOM     25  C   UNL     1      37.425 -25.965 -12.465  0.00  0.00    +0.125 C 
ATOM     26  C   UNL     1      39.028 -24.142 -12.884  0.00  0.00    +0.125 C 
ATOM     27  C   UNL     1      37.935 -26.633 -13.736  0.00  0.00    +0.164 C 
ATOM     28  C   UNL     1      39.467 -24.890 -14.137  0.00  0.00    +0.164 C 
ATOM     29  C   UNL     1      36.730 -23.621 -12.167  0.00  0.00    +0.182 C 
ATOM     30  H   UNL     1      36.073 -25.016 -10.805  0.00  0.00    +0.158 HD
ATOM     31  H   UNL     1      35.208 -23.547 -10.785  0.00  0.00    +0.158 HD
ENDBRANCH  21  29
ENDBRANCH   5  21
TORSDOF 5
ENDMDL
MODEL 3
REMARK VINA RESULT:     -12.7      1.591      2.386
REMARK  Name = 9800765
REMARK  5 active torsions:
REMARK  status: ('A' for Active; 'I' for Inactive)
REMARK    1  A    between atoms: C_3  and  C_17
REMARK    2  A    between atoms: C_5  and  N_8
REMARK    3  A    between atoms: N_8  and  C_14
REMARK    4  A    between atoms: C_17  and  C_20
REMARK    5  A    between atoms: C_23  and  C_26
REMARK                            x       y       z     vdW  Elec       q    Type
REMARK                         _______ _______ _______ _____ _____    ______ ____
ROOT
ATOM      1  O   UNL     1      37.522 -20.866 -16.396  0.00  0.00    -0.337 OA
ATOM      2  N   UNL     1      36.673 -20.774 -17.492  0.00  0.00    -0.079 NA
ATOM      3  C   UNL     1      35.678 -21.626 -17.230  0.00  0.00    +0.106 C 
ATOM      4  C   UNL     1      35.845 -22.277 -15.996  0.00  0.00    +0.076 C 
ATOM      5  C   UNL     1      37.014 -21.761 -15.520  0.00  0.00    +0.252 C 
ENDROOT
BRANCH   3   6
ATOM      6  C   UNL     1      34.578 -21.789 -18.194  0.00  0.00    +0.066 C 
ATOM      7  C   UNL     1      33.187 -21.948 -17.533  0.00  0.00    +0.011 C 
BRANCH   6   9
ATOM      8  F   UNL     1      37.236 -18.715 -20.861  0.00  0.00    -0.204 F 
ATOM      9  C   UNL     1      34.681 -20.642 -19.205  0.00  0.00    -0.015 C 
ATOM     10  C   UNL     1      35.930 -20.201 -19.572  0.00  0.00    +0.026 C 
ATOM     11  C   UNL     1      33.520 -20.100 -19.705  0.00  0.00    -0.004 C 
ATOM     12  C   UNL     1      34.866 -18.586 -21.019  0.00  0.00    +0.027 C 
ATOM     13  C   UNL     1      36.024 -19.158 -20.493  0.00  0.00    +0.140 C 
ATOM     14  C   UNL     1      33.614 -19.057 -20.625  0.00  0.00    +0.002 C 
BRANCH  12  15
ATOM     15  C   UNL     1      34.959 -17.504 -21.976  0.00  0.00    +0.002 C 
ATOM     16  C   UNL     1      35.291 -16.219 -21.544  0.00  0.00    +0.000 C 
ATOM     17  C   UNL     1      34.717 -17.745 -23.328  0.00  0.00    +0.000 C 
ATOM     18  C   UNL     1      35.382 -15.176 -22.465  0.00  0.00    +0.000 C 
ATOM     19  C   UNL     1      34.808 -16.701 -24.249  0.00  0.00    +0.000 C 
ATOM     20  C   UNL     1      35.139 -15.416 -23.818  0.00  0.00    +0.000 C 
ENDBRANCH  12  15
ENDBRANCH   6   9
ENDBRANCH   3   6
BRANCH   5  21
ATOM     21  N   UNL     1      37.666 -22.033 -14.355  0.00  0.00    -0.147 NA
BRANCH  21  29
ATOM     22  O   UNL     1      36.313 -24.912 -10.735  0.00  0.00    -0.350 OA
ATOM     23  N   UNL     1      37.385 -23.981 -13.150  0.00  0.00    -0.277 N 
ATOM     24  N   UNL     1      38.955 -24.034 -14.776  0.00  0.00    -0.373 N 
ATOM     25  C   UNL     1      38.057 -25.049 -12.415  0.00  0.00    +0.125 C 
ATOM     26  C   UNL     1      35.952 -23.860 -12.891  0.00  0.00    +0.125 C 
ATOM     27  C   UNL     1      37.729 -24.924 -10.932  0.00  0.00    +0.164 C 
ATOM     28  C   UNL     1      35.717 -23.788 -11.388  0.00  0.00    +0.164 C 
ATOM     29  C   UNL     1      38.001 -23.278 -14.127  0.00  0.00    +0.182 C 
ATOM     30  H   UNL     1      39.113 -24.968 -14.504  0.00  0.00    +0.158 HD
ATOM     31  H   UNL     1      39.480 -23.641 -15.510  0.00  0.00    +0.158 HD
ENDBRANCH  21  29
ENDBRANCH   5  21
TORSDOF 5
ENDMDL
MODEL 4
REMARK VINA RESULT:     -12.5      1.452      2.013
REMARK  Name = 9800765
REMARK  5 active torsions:
REMARK  status: ('A' for Active; 'I' for Inactive)
REMARK    1  A    between atoms: C_3  and  C_17
REMARK    2  A    between atoms: C_5  and  N_8
REMARK    3  A    between atoms: N_8  and  C_14
REMARK    4  A    between atoms: C_17  and  C_20
REMARK    5  A    between atoms: C_23  and  C_26
REMARK                            x       y       z     vdW  Elec       q    Type
REMARK                         _______ _______ _______ _____ _____    ______ ____
ROOT
ATOM      1  O   UNL     1      34.159 -22.980 -13.402  0.00  0.00    -0.337 OA
ATOM      2  N   UNL     1      33.049 -22.957 -14.237  0.00  0.00    -0.079 NA
ATOM      3  C   UNL     1      33.543 -22.770 -15.464  0.00  0.00    +0.106 C 
ATOM      4  C   UNL     1      34.945 -22.669 -15.465  0.00  0.00    +0.076 C 
ATOM      5  C   UNL     1      35.273 -22.808 -14.149  0.00  0.00    +0.252 C 
ENDROOT
BRANCH   3   6
ATOM      6  C   UNL     1      32.633 -22.695 -16.618  0.00  0.00    +0.066 C 
ATOM      7  C   UNL     1      31.181 -22.310 -16.244  0.00  0.00    +0.011 C 
BRANCH   6   9
ATOM      8  F   UNL     1      36.567 -21.144 -19.016  0.00  0.00    -0.204 F 
ATOM      9  C   UNL     1      33.290 -21.785 -17.661  0.00  0.00    -0.015 C 
ATOM     10  C   UNL     1      34.646 -21.886 -17.860  0.00  0.00    +0.026 C 
ATOM     11  C   UNL     1      32.497 -20.903 -18.357  0.00  0.00    -0.004 C 
ATOM     12  C   UNL     1      34.469 -20.152 -19.532  0.00  0.00    +0.027 C 
ATOM     13  C   UNL     1      35.245 -21.058 -18.810  0.00  0.00    +0.140 C 
ATOM     14  C   UNL     1      33.095 -20.074 -19.306  0.00  0.00    +0.002 C 
BRANCH  12  15
ATOM     15  C   UNL     1      35.084 -19.292 -20.520  0.00  0.00    +0.002 C 
ATOM     16  C   UNL     1      34.441 -19.055 -21.735  0.00  0.00    +0.000 C 
ATOM     17  C   UNL     1      36.319 -18.699 -20.257  0.00  0.00    +0.000 C 
ATOM     18  C   UNL     1      35.033 -18.225 -22.686  0.00  0.00    +0.000 C 
ATOM     19  C   UNL     1      36.911 -17.869 -21.209  0.00  0.00    +0.000 C 
ATOM     20  C   UNL     1      36.269 -17.632 -22.425  0.00  0.00    +0.000 C 
ENDBRANCH  12  15
ENDBRANCH   6   9
ENDBRANCH   3   6
BRANCH   5  21
ATOM     21  N   UNL     1      36.502 -22.792 -13.560  0.00  0.00    -0.147 NA
BRANCH  21  29
ATOM     22  O   UNL     1      39.669 -26.408 -13.899  0.00  0.00    -0.350 OA
ATOM     23  N   UNL     1      38.224 -24.065 -14.419  0.00  0.00    -0.277 N 
ATOM     24  N   UNL     1      38.103 -21.930 -15.153  0.00  0.00    -0.373 N 
ATOM     25  C   UNL     1      39.656 -24.119 -14.701  0.00  0.00    +0.125 C 
ATOM     26  C   UNL     1      37.545 -25.358 -14.422  0.00  0.00    +0.125 C 
ATOM     27  C   UNL     1      40.314 -25.138 -13.778  0.00  0.00    +0.164 C 
ATOM     28  C   UNL     1      38.295 -26.323 -13.511  0.00  0.00    +0.164 C 
ATOM     29  C   UNL     1      37.548 -22.897 -14.341  0.00  0.00    +0.182 C 
ATOM     30  H   UNL     1      38.899 -22.139 -15.695  0.00  0.00    +0.158 HD
ATOM     31  H   UNL     1      37.706 -21.029 -15.190  0.00  0.00    +0.158 HD
ENDBRANCH  21  29
ENDBRANCH   5  21
TORSDOF 5
ENDMDL
MODEL 5
REMARK VINA RESULT:     -12.4      1.524      2.421
REMARK  Name = 9800765
REMARK  5 active torsions:
REMARK  status: ('A' for Active; 'I' for Inactive)
REMARK    1  A    between atoms: C_3  and  C_17
REMARK    2  A    between atoms: C_5  and  N_8
REMARK    3  A    between atoms: N_8  and  C_14
REMARK    4  A    between atoms: C_17  and  C_20
REMARK    5  A    between atoms: C_23  and  C_26
REMARK                            x       y       z     vdW  Elec       q    Type
REMARK                         _______ _______ _______ _____ _____    ______ ____
ROOT
ATOM      1  O   UNL     1      36.533 -22.883 -15.308  0.00  0.00    -0.337 OA
ATOM      2  N   UNL     1      35.567 -22.216 -16.051  0.00  0.00    -0.079 NA
ATOM      3  C   UNL     1      34.566 -23.091 -16.181  0.00  0.00    +0.106 C 
ATOM      4  C   UNL     1      34.842 -24.315 -15.547  0.00  0.00    +0.076 C 
ATOM      5  C   UNL     1      36.084 -24.125 -15.019  0.00  0.00    +0.252 C 
ENDROOT
BRANCH   3   6
ATOM      6  C   UNL     1      33.353 -22.714 -16.924  0.00  0.00    +0.066 C 
ATOM      7  C   UNL     1      32.171 -22.292 -16.017  0.00  0.00    +0.011 C 
BRANCH   6   9
ATOM      8  F   UNL     1      36.746 -20.546 -19.646  0.00  0.00    -0.204 F 
ATOM      9  C   UNL     1      33.762 -21.674 -17.971  0.00  0.00    -0.015 C 
ATOM     10  C   UNL     1      35.086 -21.589 -18.330  0.00  0.00    +0.026 C 
ATOM     11  C   UNL     1      32.788 -20.865 -18.510  0.00  0.00    -0.004 C 
ATOM     12  C   UNL     1      34.496 -19.806 -19.850  0.00  0.00    +0.027 C 
ATOM     13  C   UNL     1      35.458 -20.642 -19.284  0.00  0.00    +0.140 C 
ATOM     14  C   UNL     1      33.161 -19.918 -19.463  0.00  0.00    +0.002 C 
BRANCH  12  15
ATOM     15  C   UNL     1      34.877 -18.823 -20.841  0.00  0.00    +0.002 C 
ATOM     16  C   UNL     1      35.582 -17.682 -20.455  0.00  0.00    +0.000 C 
ATOM     17  C   UNL     1      34.541 -19.016 -22.181  0.00  0.00    +0.000 C 
ATOM     18  C   UNL     1      35.951 -16.735 -21.409  0.00  0.00    +0.000 C 
ATOM     19  C   UNL     1      34.911 -18.067 -23.135  0.00  0.00    +0.000 C 
ATOM     20  C   UNL     1      35.615 -16.926 -22.750  0.00  0.00    +0.000 C 
ENDBRANCH  12  15
ENDBRANCH   6   9
ENDBRANCH   3   6
BRANCH   5  21
ATOM     21  N   UNL     1      36.854 -24.985 -14.293  0.00  0.00    -0.147 NA
BRANCH  21  29
ATOM     22  O   UNL     1      36.803 -23.100  -9.859  0.00  0.00    -0.350 OA
ATOM     23  N   UNL     1      37.675 -24.149 -12.305  0.00  0.00    -0.277 N 
ATOM     24  N   UNL     1      39.126 -24.200 -14.038  0.00  0.00    -0.373 N 
ATOM     25  C   UNL     1      38.414 -23.061 -11.671  0.00  0.00    +0.125 C 
ATOM     26  C   UNL     1      36.891 -24.977 -11.392  0.00  0.00    +0.125 C 
ATOM     27  C   UNL     1      37.466 -22.249 -10.797  0.00  0.00    +0.164 C 
ATOM     28  C   UNL     1      36.010 -24.082 -10.531  0.00  0.00    +0.164 C 
ATOM     29  C   UNL     1      37.845 -24.475 -13.606  0.00  0.00    +0.182 C 
ATOM     30  H   UNL     1      39.784 -23.812 -13.416  0.00  0.00    +0.158 HD
ATOM     31  H   UNL     1      39.384 -24.391 -14.969  0.00  0.00    +0.158 HD
ENDBRANCH  21  29
ENDBRANCH   5  21
TORSDOF 5
ENDMDL
MODEL 6
REMARK VINA RESULT:     -11.9      3.878      7.100
REMARK  Name = 9800765
REMARK  5 active torsions:
REMARK  status: ('A' for Active; 'I' for Inactive)
REMARK    1  A    between atoms: C_3  and  C_17
REMARK    2  A    between atoms: C_5  and  N_8
REMARK    3  A    between atoms: N_8  and  C_14
REMARK    4  A    between atoms: C_17  and  C_20
REMARK    5  A    between atoms: C_23  and  C_26
REMARK                            x       y       z     vdW  Elec       q    Type
REMARK                         _______ _______ _______ _____ _____    ______ ____
ROOT
ATOM      1  O   UNL     1      36.089 -18.442 -19.882  0.00  0.00    -0.337 OA
ATOM      2  N   UNL     1      36.350 -17.690 -21.021  0.00  0.00    -0.079 NA
ATOM      3  C   UNL     1      35.402 -18.044 -21.894  0.00  0.00    +0.106 C 
ATOM      4  C   UNL     1      34.524 -19.007 -21.366  0.00  0.00    +0.076 C 
ATOM      5  C   UNL     1      35.003 -19.216 -20.107  0.00  0.00    +0.252 C 
ENDROOT
BRANCH   3   6
ATOM      6  C   UNL     1      35.372 -17.432 -23.232  0.00  0.00    +0.066 C 
ATOM      7  C   UNL     1      34.575 -18.254 -24.276  0.00  0.00    +0.011 C 
BRANCH   6   9
ATOM      8  F   UNL     1      34.973 -13.391 -20.561  0.00  0.00    -0.204 F 
ATOM      9  C   UNL     1      34.905 -15.983 -23.063  0.00  0.00    -0.015 C 
ATOM     10  C   UNL     1      35.158 -15.346 -21.872  0.00  0.00    +0.026 C 
ATOM     11  C   UNL     1      34.249 -15.377 -24.110  0.00  0.00    -0.004 C 
ATOM     12  C   UNL     1      34.066 -13.383 -22.760  0.00  0.00    +0.027 C 
ATOM     13  C   UNL     1      34.733 -14.027 -21.718  0.00  0.00    +0.140 C 
ATOM     14  C   UNL     1      33.824 -14.059 -23.956  0.00  0.00    +0.002 C 
BRANCH  12  15
ATOM     15  C   UNL     1      33.624 -12.014 -22.606  0.00  0.00    +0.002 C 
ATOM     16  C   UNL     1      34.195 -11.006 -23.385  0.00  0.00    +0.000 C 
ATOM     17  C   UNL     1      32.629 -11.701 -21.680  0.00  0.00    +0.000 C 
ATOM     18  C   UNL     1      33.769  -9.687 -23.238  0.00  0.00    +0.000 C 
ATOM     19  C   UNL     1      32.204 -10.381 -21.533  0.00  0.00    +0.000 C 
ATOM     20  C   UNL     1      32.774  -9.373 -22.311  0.00  0.00    +0.000 C 
ENDBRANCH  12  15
ENDBRANCH   6   9
ENDBRANCH   3   6
BRANCH   5  21
ATOM     21  N   UNL     1      34.539 -20.052 -19.136  0.00  0.00    -0.147 NA
BRANCH  21  29
ATOM     22  O   UNL     1      33.878 -23.028 -15.405  0.00  0.00    -0.350 OA
ATOM     23  N   UNL     1      35.004 -21.719 -17.610  0.00  0.00    -0.277 N 
ATOM     24  N   UNL     1      36.781 -20.852 -18.708  0.00  0.00    -0.373 N 
ATOM     25  C   UNL     1      35.849 -22.123 -16.489  0.00  0.00    +0.125 C 
ATOM     26  C   UNL     1      33.777 -22.495 -17.769  0.00  0.00    +0.125 C 
ATOM     27  C   UNL     1      35.010 -22.175 -15.218  0.00  0.00    +0.164 C 
ATOM     28  C   UNL     1      33.029 -22.531 -16.442  0.00  0.00    +0.164 C 
ATOM     29  C   UNL     1      35.412 -20.820 -18.533  0.00  0.00    +0.182 C 
ATOM     30  H   UNL     1      37.329 -21.482 -18.186  0.00  0.00    +0.158 HD
ATOM     31  H   UNL     1      37.210 -20.245 -19.354  0.00  0.00    +0.158 HD
ENDBRANCH  21  29
ENDBRANCH   5  21
TORSDOF 5
ENDMDL
MODEL 7
REMARK VINA RESULT:     -11.7      5.612     11.008
REMARK  Name = 9800765
REMARK  5 active torsions:
REMARK  status: ('A' for Active; 'I' for Inactive)
REMARK    1  A    between atoms: C_3  and  C_17
REMARK    2  A    between atoms: C_5  and  N_8
REMARK    3  A    between atoms: N_8  and  C_14
REMARK    4  A    between atoms: C_17  and  C_20
REMARK    5  A    between atoms: C_23  and  C_26
REMARK                            x       y       z     vdW  Elec       q    Type
REMARK                         _______ _______ _______ _____ _____    ______ ____
ROOT
ATOM      1  O   UNL     1      35.146 -15.132 -19.761  0.00  0.00    -0.337 OA
ATOM      2  N   UNL     1      35.398 -16.494 -19.871  0.00  0.00    -0.079 NA
ATOM      3  C   UNL     1      35.437 -16.734 -21.184  0.00  0.00    +0.106 C 
ATOM      4  C   UNL     1      35.219 -15.572 -21.945  0.00  0.00    +0.076 C 
ATOM      5  C   UNL     1      35.044 -14.604 -21.001  0.00  0.00    +0.252 C 
ENDROOT
BRANCH   3   6
ATOM      6  C   UNL     1      35.689 -18.098 -21.675  0.00  0.00    +0.066 C 
ATOM      7  C   UNL     1      37.090 -18.286 -22.307  0.00  0.00    +0.011 C 
BRANCH   6   9
ATOM      8  F   UNL     1      37.120 -21.022 -18.065  0.00  0.00    -0.204 F 
ATOM      9  C   UNL     1      35.367 -19.064 -20.530  0.00  0.00    -0.015 C 
ATOM     10  C   UNL     1      36.408 -19.606 -19.815  0.00  0.00    +0.026 C 
ATOM     11  C   UNL     1      34.049 -19.351 -20.263  0.00  0.00    -0.004 C 
ATOM     12  C   UNL     1      34.789 -20.797 -18.476  0.00  0.00    +0.027 C 
ATOM     13  C   UNL     1      36.115 -20.485 -18.772  0.00  0.00    +0.140 C 
ATOM     14  C   UNL     1      33.756 -20.230 -19.221  0.00  0.00    +0.002 C 
BRANCH  12  15
ATOM     15  C   UNL     1      34.479 -21.707 -17.394  0.00  0.00    +0.002 C 
ATOM     16  C   UNL     1      35.466 -22.049 -16.468  0.00  0.00    +0.000 C 
ATOM     17  C   UNL     1      33.197 -22.241 -17.276  0.00  0.00    +0.000 C 
ATOM     18  C   UNL     1      35.168 -22.925 -15.425  0.00  0.00    +0.000 C 
ATOM     19  C   UNL     1      32.899 -23.117 -16.232  0.00  0.00    +0.000 C 
ATOM     20  C   UNL     1      33.885 -23.460 -15.307  0.00  0.00    +0.000 C 
ENDBRANCH  12  15
ENDBRANCH   6   9
ENDBRANCH   3   6
BRANCH   5  21
ATOM     21  N   UNL     1      34.797 -13.274 -21.166  0.00  0.00    -0.147 NA
BRANCH  21  29
ATOM     22  O   UNL     1      32.788  -9.314 -23.038  0.00  0.00    -0.350 OA
ATOM     23  N   UNL     1      33.135 -11.823 -21.841  0.00  0.00    -0.277 N 
ATOM     24  N   UNL     1      32.523 -13.415 -20.357  0.00  0.00    -0.373 N 
ATOM     25  C   UNL     1      32.050 -10.948 -21.404  0.00  0.00    +0.125 C 
ATOM     26  C   UNL     1      33.601 -11.593 -23.206  0.00  0.00    +0.125 C 
ATOM     27  C   UNL     1      32.438  -9.497 -21.664  0.00  0.00    +0.164 C 
ATOM     28  C   UNL     1      33.920 -10.115 -23.387  0.00  0.00    +0.164 C 
ATOM     29  C   UNL     1      33.549 -12.880 -21.107  0.00  0.00    +0.182 C 
ATOM     30  H   UNL     1      31.622 -13.020 -20.402  0.00  0.00    +0.158 HD
ATOM     31  H   UNL     1      32.690 -14.191 -19.774  0.00  0.00    +0.158 HD
ENDBRANCH  21  29
ENDBRANCH   5  21
TORSDOF 5
ENDMDL
MODEL 8
REMARK VINA RESULT:     -11.6      3.520      5.990
REMARK  Name = 9800765
REMARK  5 active torsions:
REMARK  status: ('A' for Active; 'I' for Inactive)
REMARK    1  A    between atoms: C_3  and  C_17
REMARK    2  A    between atoms: C_5  and  N_8
REMARK    3  A    between atoms: N_8  and  C_14
REMARK    4  A    between atoms: C_17  and  C_20
REMARK    5  A    between atoms: C_23  and  C_26
REMARK                            x       y       z     vdW  Elec       q    Type
REMARK                         _______ _______ _______ _____ _____    ______ ____
ROOT
ATOM      1  O   UNL     1      33.980 -20.040 -19.848  0.00  0.00    -0.337 OA
ATOM      2  N   UNL     1      34.444 -18.886 -20.467  0.00  0.00    -0.079 NA
ATOM      3  C   UNL     1      35.774 -18.943 -20.352  0.00  0.00    +0.106 C 
ATOM      4  C   UNL     1      36.202 -20.099 -19.677  0.00  0.00    +0.076 C 
ATOM      5  C   UNL     1      35.037 -20.745 -19.387  0.00  0.00    +0.252 C 
ENDROOT
BRANCH   3   6
ATOM      6  C   UNL     1      36.605 -17.863 -20.908  0.00  0.00    +0.066 C 
ATOM      7  C   UNL     1      37.284 -18.226 -22.251  0.00  0.00    +0.011 C 
BRANCH   6   9
ATOM      8  F   UNL     1      34.311 -14.367 -23.386  0.00  0.00    -0.204 F 
ATOM      9  C   UNL     1      35.746 -16.595 -20.945  0.00  0.00    -0.015 C 
ATOM     10  C   UNL     1      35.420 -16.058 -22.167  0.00  0.00    +0.026 C 
ATOM     11  C   UNL     1      35.335 -16.045 -19.753  0.00  0.00    -0.004 C 
ATOM     12  C   UNL     1      34.205 -14.320 -21.011  0.00  0.00    +0.027 C 
ATOM     13  C   UNL     1      34.638 -14.904 -22.201  0.00  0.00    +0.140 C 
ATOM     14  C   UNL     1      34.553 -14.891 -19.787  0.00  0.00    +0.002 C 
BRANCH  12  15
ATOM     15  C   UNL     1      33.392 -13.123 -21.040  0.00  0.00    +0.002 C 
ATOM     16  C   UNL     1      32.409 -12.925 -20.070  0.00  0.00    +0.000 C 
ATOM     17  C   UNL     1      33.591 -12.169 -22.037  0.00  0.00    +0.000 C 
ATOM     18  C   UNL     1      31.625 -11.772 -20.097  0.00  0.00    +0.000 C 
ATOM     19  C   UNL     1      32.807 -11.015 -22.063  0.00  0.00    +0.000 C 
ATOM     20  C   UNL     1      31.823 -10.816 -21.094  0.00  0.00    +0.000 C 
ENDBRANCH  12  15
ENDBRANCH   6   9
ENDBRANCH   3   6
BRANCH   5  21
ATOM     21  N   UNL     1      34.846 -21.927 -18.735  0.00  0.00    -0.147 NA
BRANCH  21  29
ATOM     22  O   UNL     1      35.795 -23.240 -14.197  0.00  0.00    -0.350 OA
ATOM     23  N   UNL     1      34.544 -22.164 -16.460  0.00  0.00    -0.277 N 
ATOM     24  N   UNL     1      32.690 -21.691 -17.666  0.00  0.00    -0.373 N 
ATOM     25  C   UNL     1      33.744 -22.792 -15.411  0.00  0.00    +0.125 C 
ATOM     26  C   UNL     1      35.836 -21.644 -16.023  0.00  0.00    +0.125 C 
ATOM     27  C   UNL     1      34.590 -23.832 -14.687  0.00  0.00    +0.164 C 
ATOM     28  C   UNL     1      36.590 -22.734 -15.272  0.00  0.00    +0.164 C 
ATOM     29  C   UNL     1      34.050 -21.922 -17.695  0.00  0.00    +0.182 C 
ATOM     30  H   UNL     1      32.204 -21.717 -16.810  0.00  0.00    +0.158 HD
ATOM     31  H   UNL     1      32.204 -21.502 -18.501  0.00  0.00    +0.158 HD
ENDBRANCH  21  29
ENDBRANCH   5  21
TORSDOF 5
ENDMDL
MODEL 9
REMARK VINA RESULT:     -11.5      3.293      4.952
REMARK  Name = 9800765
REMARK  5 active torsions:
REMARK  status: ('A' for Active; 'I' for Inactive)
REMARK    1  A    between atoms: C_3  and  C_17
REMARK    2  A    between atoms: C_5  and  N_8
REMARK    3  A    between atoms: N_8  and  C_14
REMARK    4  A    between atoms: C_17  and  C_20
REMARK    5  A    between atoms: C_23  and  C_26
REMARK                            x       y       z     vdW  Elec       q    Type
REMARK                         _______ _______ _______ _____ _____    ______ ____
ROOT
ATOM      1  O   UNL     1      32.948 -20.907 -18.797  0.00  0.00    -0.337 OA
ATOM      2  N   UNL     1      33.849 -20.032 -19.391  0.00  0.00    -0.079 NA
ATOM      3  C   UNL     1      35.055 -20.469 -19.016  0.00  0.00    +0.106 C 
ATOM      4  C   UNL     1      34.977 -21.605 -18.192  0.00  0.00    +0.076 C 
ATOM      5  C   UNL     1      33.637 -21.832 -18.091  0.00  0.00    +0.252 C 
ENDROOT
BRANCH   3   6
ATOM      6  C   UNL     1      36.265 -19.766 -19.471  0.00  0.00    +0.066 C 
ATOM      7  C   UNL     1      37.370 -20.709 -20.007  0.00  0.00    +0.011 C 
BRANCH   6   9
ATOM      8  F   UNL     1      35.398 -15.098 -20.511  0.00  0.00    -0.204 F 
ATOM      9  C   UNL     1      35.820 -18.676 -20.451  0.00  0.00    -0.015 C 
ATOM     10  C   UNL     1      35.814 -17.370 -20.022  0.00  0.00    +0.026 C 
ATOM     11  C   UNL     1      35.445 -19.046 -21.721  0.00  0.00    -0.004 C 
ATOM     12  C   UNL     1      35.022 -16.719 -22.209  0.00  0.00    +0.027 C 
ATOM     13  C   UNL     1      35.410 -16.377 -20.914  0.00  0.00    +0.140 C 
ATOM     14  C   UNL     1      35.040 -18.054 -22.613  0.00  0.00    +0.002 C 
BRANCH  12  15
ATOM     15  C   UNL     1      34.603 -15.692 -23.139  0.00  0.00    +0.002 C 
ATOM     16  C   UNL     1      34.486 -15.989 -24.497  0.00  0.00    +0.000 C 
ATOM     17  C   UNL     1      34.316 -14.408 -22.678  0.00  0.00    +0.000 C 
ATOM     18  C   UNL     1      34.081 -15.000 -25.394  0.00  0.00    +0.000 C 
ATOM     19  C   UNL     1      33.911 -13.419 -23.575  0.00  0.00    +0.000 C 
ATOM     20  C   UNL     1      33.794 -13.715 -24.934  0.00  0.00    +0.000 C 
ENDBRANCH  12  15
ENDBRANCH   6   9
ENDBRANCH   3   6
BRANCH   5  21
ATOM     21  N   UNL     1      32.977 -22.810 -17.409  0.00  0.00    -0.147 NA
BRANCH  21  29
ATOM     22  O   UNL     1      33.210 -23.815 -12.702  0.00  0.00    -0.350 OA
ATOM     23  N   UNL     1      32.490 -22.675 -15.158  0.00  0.00    -0.277 N 
ATOM     24  N   UNL     1      30.952 -21.795 -16.562  0.00  0.00    -0.373 N 
ATOM     25  C   UNL     1      31.477 -22.897 -14.130  0.00  0.00    +0.125 C 
ATOM     26  C   UNL     1      33.856 -22.534 -14.658  0.00  0.00    +0.125 C 
ATOM     27  C   UNL     1      31.908 -24.057 -13.240  0.00  0.00    +0.164 C 
ATOM     28  C   UNL     1      34.182 -23.709 -13.745  0.00  0.00    +0.164 C 
ATOM     29  C   UNL     1      32.168 -22.437 -16.449  0.00  0.00    +0.182 C 
ATOM     30  H   UNL     1      30.437 -21.569 -15.754  0.00  0.00    +0.158 HD
ATOM     31  H   UNL     1      30.598 -21.563 -17.451  0.00  0.00    +0.158 HD
ENDBRANCH  21  29
ENDBRANCH   5  21
TORSDOF 5
ENDMDL
