MODEL 1
REMARK VINA RESULT:     -11.6      0.000      0.000
REMARK  Name = 44129624
REMARK  6 active torsions:
REMARK  status: ('A' for Active; 'I' for Inactive)
REMARK    1  A    between atoms: C_1  and  O_20
REMARK    2  A    between atoms: C_4  and  C_8
REMARK    3  A    between atoms: C_8  and  C_9
REMARK    4  A    between atoms: C_10  and  C_16
REMARK    5  A    between atoms: O_20  and  C_21
REMARK    6  A    between atoms: C_21  and  C_23
REMARK                            x       y       z     vdW  Elec       q    Type
REMARK                         _______ _______ _______ _____ _____    ______ ____
ROOT
ATOM      1  C   UNL     1      34.119 -21.244 -18.785  0.00  0.00    +0.138 C 
ATOM      2  C   UNL     1      33.447 -20.334 -19.598  0.00  0.00    +0.037 C 
ATOM      3  C   UNL     1      35.499 -21.136 -18.608  0.00  0.00    +0.037 C 
ATOM      4  C   UNL     1      35.532 -19.205 -20.059  0.00  0.00    +0.039 C 
ATOM      5  C   UNL     1      34.152 -19.314 -20.236  0.00  0.00    +0.006 C 
ATOM      6  C   UNL     1      36.205 -20.115 -19.245  0.00  0.00    +0.006 C 
ENDROOT
BRANCH   4   8
ATOM      7  O   UNL     1      37.444 -18.317 -21.072  0.00  0.00    -0.287 OA
ATOM      8  C   UNL     1      36.267 -18.140 -20.722  0.00  0.00    +0.196 C 
BRANCH   8   9
ATOM      9  C   UNL     1      35.659 -16.805 -21.011  0.00  0.00    +0.039 C 
ATOM     10  C   UNL     1      34.525 -14.315 -21.552  0.00  0.00    +0.001 C 
ATOM     11  C   UNL     1      35.272 -15.974 -19.961  0.00  0.00    +0.003 C 
ATOM     12  C   UNL     1      35.478 -16.393 -22.332  0.00  0.00    +0.003 C 
ATOM     13  C   UNL     1      34.705 -14.728 -20.232  0.00  0.00    +0.000 C 
ATOM     14  C   UNL     1      34.911 -15.148 -22.602  0.00  0.00    +0.000 C 
BRANCH  10  16
ATOM     15  S   UNL     1      33.565 -10.768 -22.982  0.00  0.00    -0.086 S 
ATOM     16  C   UNL     1      33.942 -13.032 -21.828  0.00  0.00    +0.007 C 
ATOM     17  C   UNL     1      32.858 -12.414 -21.140  0.00  0.00    +0.007 C 
ATOM     18  C   UNL     1      34.421 -12.245 -22.852  0.00  0.00    +0.035 C 
ATOM     19  C   UNL     1      32.550 -11.178 -21.666  0.00  0.00    +0.035 C 
ENDBRANCH  10  16
ENDBRANCH   8   9
ENDBRANCH   4   8
BRANCH   1  20
ATOM     20  O   UNL     1      33.426 -22.249 -18.157  0.00  0.00    -0.478 OA
BRANCH  20  21
ATOM     21  C   UNL     1      33.631 -22.396 -16.762  0.00  0.00    +0.184 C 
BRANCH  21  23
ATOM     22  N   UNL     1      31.188 -22.012 -16.580  0.00  0.00    +0.388 N 
ATOM     23  C   UNL     1      32.323 -22.823 -16.116  0.00  0.00    -0.017 C 
ATOM     24  C   UNL     1      32.307 -22.611 -14.610  0.00  0.00    -0.020 C 
ATOM     25  C   UNL     1      30.828 -22.503 -14.269  0.00  0.00    -0.025 C 
ATOM     26  C   UNL     1      30.127 -22.264 -15.598  0.00  0.00    -0.082 C 
ATOM     27  H   UNL     1      30.893 -22.306 -17.511  0.00  0.00    -0.084 HD
ATOM     28  H   UNL     1      31.423 -21.022 -16.649  0.00  0.00    -0.084 HD
ENDBRANCH  21  23
ENDBRANCH  20  21
ENDBRANCH   1  20
TORSDOF 6
ENDMDL
MODEL 2
REMARK VINA RESULT:     -11.2      4.109      6.446
REMARK  Name = 44129624
REMARK  6 active torsions:
REMARK  status: ('A' for Active; 'I' for Inactive)
REMARK    1  A    between atoms: C_1  and  O_20
REMARK    2  A    between atoms: C_4  and  C_8
REMARK    3  A    between atoms: C_8  and  C_9
REMARK    4  A    between atoms: C_10  and  C_16
REMARK    5  A    between atoms: O_20  and  C_21
REMARK    6  A    between atoms: C_21  and  C_23
REMARK                            x       y       z     vdW  Elec       q    Type
REMARK                         _______ _______ _______ _____ _____    ______ ____
ROOT
ATOM      1  C   UNL     1      36.111 -22.638 -13.564  0.00  0.00    +0.138 C 
ATOM      2  C   UNL     1      36.768 -22.095 -14.668  0.00  0.00    +0.037 C 
ATOM      3  C   UNL     1      34.822 -23.154 -13.704  0.00  0.00    +0.037 C 
ATOM      4  C   UNL     1      34.850 -22.584 -16.052  0.00  0.00    +0.039 C 
ATOM      5  C   UNL     1      36.139 -22.068 -15.911  0.00  0.00    +0.006 C 
ATOM      6  C   UNL     1      34.193 -23.127 -14.948  0.00  0.00    +0.006 C 
ENDROOT
BRANCH   4   8
ATOM      7  O   UNL     1      33.423 -23.472 -17.677  0.00  0.00    -0.287 OA
ATOM      8  C   UNL     1      34.195 -22.559 -17.350  0.00  0.00    +0.196 C 
BRANCH   8   9
ATOM      9  C   UNL     1      34.411 -21.456 -18.335  0.00  0.00    +0.039 C 
ATOM     10  C   UNL     1      34.814 -19.399 -20.176  0.00  0.00    +0.001 C 
ATOM     11  C   UNL     1      35.706 -21.106 -18.716  0.00  0.00    +0.003 C 
ATOM     12  C   UNL     1      33.317 -20.778 -18.874  0.00  0.00    +0.003 C 
ATOM     13  C   UNL     1      35.907 -20.077 -19.636  0.00  0.00    +0.000 C 
ATOM     14  C   UNL     1      33.519 -19.749 -19.794  0.00  0.00    +0.000 C 
BRANCH  10  16
ATOM     15  S   UNL     1      35.568 -15.994 -22.016  0.00  0.00    -0.086 S 
ATOM     16  C   UNL     1      35.023 -18.341 -21.123  0.00  0.00    +0.007 C 
ATOM     17  C   UNL     1      34.908 -18.421 -22.541  0.00  0.00    +0.007 C 
ATOM     18  C   UNL     1      35.377 -17.078 -20.703  0.00  0.00    +0.035 C 
ATOM     19  C   UNL     1      35.178 -17.215 -23.151  0.00  0.00    +0.035 C 
ENDBRANCH  10  16
ENDBRANCH   8   9
ENDBRANCH   4   8
BRANCH   1  20
ATOM     20  O   UNL     1      36.730 -22.664 -12.339  0.00  0.00    -0.478 OA
BRANCH  20  21
ATOM     21  C   UNL     1      36.652 -23.876 -11.607  0.00  0.00    +0.184 C 
BRANCH  21  23
ATOM     22  N   UNL     1      38.983 -23.974 -12.448  0.00  0.00    +0.388 N 
ATOM     23  C   UNL     1      37.825 -24.761 -11.998  0.00  0.00    -0.017 C 
ATOM     24  C   UNL     1      37.526 -25.651 -13.194  0.00  0.00    -0.020 C 
ATOM     25  C   UNL     1      38.897 -25.959 -13.777  0.00  0.00    -0.025 C 
ATOM     26  C   UNL     1      39.837 -24.940 -13.149  0.00  0.00    -0.082 C 
ATOM     27  H   UNL     1      39.475 -23.571 -11.651  0.00  0.00    -0.084 HD
ATOM     28  H   UNL     1      38.711 -23.194 -13.046  0.00  0.00    -0.084 HD
ENDBRANCH  21  23
ENDBRANCH  20  21
ENDBRANCH   1  20
TORSDOF 6
ENDMDL
MODEL 3
REMARK VINA RESULT:     -10.8      4.174      9.047
REMARK  Name = 44129624
REMARK  6 active torsions:
REMARK  status: ('A' for Active; 'I' for Inactive)
REMARK    1  A    between atoms: C_1  and  O_20
REMARK    2  A    between atoms: C_4  and  C_8
REMARK    3  A    between atoms: C_8  and  C_9
REMARK    4  A    between atoms: C_10  and  C_16
REMARK    5  A    between atoms: O_20  and  C_21
REMARK    6  A    between atoms: C_21  and  C_23
REMARK                            x       y       z     vdW  Elec       q    Type
REMARK                         _______ _______ _______ _____ _____    ______ ____
ROOT
ATOM      1  C   UNL     1      34.920 -14.254 -21.635  0.00  0.00    +0.138 C 
ATOM      2  C   UNL     1      34.959 -14.904 -22.868  0.00  0.00    +0.037 C 
ATOM      3  C   UNL     1      35.014 -14.992 -20.454  0.00  0.00    +0.037 C 
ATOM      4  C   UNL     1      35.188 -17.029 -21.742  0.00  0.00    +0.039 C 
ATOM      5  C   UNL     1      35.093 -16.290 -22.922  0.00  0.00    +0.006 C 
ATOM      6  C   UNL     1      35.149 -16.379 -20.509  0.00  0.00    +0.006 C 
ENDROOT
BRANCH   4   8
ATOM      7  O   UNL     1      35.683 -19.026 -22.853  0.00  0.00    -0.287 OA
ATOM      8  C   UNL     1      35.330 -18.475 -21.799  0.00  0.00    +0.196 C 
BRANCH   8   9
ATOM      9  C   UNL     1      35.067 -19.353 -20.620  0.00  0.00    +0.039 C 
ATOM     10  C   UNL     1      34.575 -20.993 -18.417  0.00  0.00    +0.001 C 
ATOM     11  C   UNL     1      36.133 -19.858 -19.875  0.00  0.00    +0.003 C 
ATOM     12  C   UNL     1      33.755 -19.669 -20.264  0.00  0.00    +0.003 C 
ATOM     13  C   UNL     1      35.886 -20.678 -18.773  0.00  0.00    +0.000 C 
ATOM     14  C   UNL     1      33.509 -20.489 -19.163  0.00  0.00    +0.000 C 
BRANCH  10  16
ATOM     15  S   UNL     1      34.782 -23.149 -15.122  0.00  0.00    -0.086 S 
ATOM     16  C   UNL     1      34.323 -21.836 -17.283  0.00  0.00    +0.007 C 
ATOM     17  C   UNL     1      33.091 -22.459 -16.930  0.00  0.00    +0.007 C 
ATOM     18  C   UNL     1      35.326 -22.128 -16.385  0.00  0.00    +0.035 C 
ATOM     19  C   UNL     1      33.200 -23.203 -15.776  0.00  0.00    +0.035 C 
ENDBRANCH  10  16
ENDBRANCH   8   9
ENDBRANCH   4   8
BRANCH   1  20
ATOM     20  O   UNL     1      34.787 -12.889 -21.580  0.00  0.00    -0.478 OA
BRANCH  20  21
ATOM     21  C   UNL     1      33.856 -12.299 -22.473  0.00  0.00    +0.184 C 
BRANCH  21  23
ATOM     22  N   UNL     1      32.394 -10.474 -21.647  0.00  0.00    +0.388 N 
ATOM     23  C   UNL     1      32.601 -11.929 -21.698  0.00  0.00    -0.017 C 
ATOM     24  C   UNL     1      32.672 -12.319 -20.230  0.00  0.00    -0.020 C 
ATOM     25  C   UNL     1      31.689 -11.378 -19.551  0.00  0.00    -0.025 C 
ATOM     26  C   UNL     1      31.422 -10.276 -20.566  0.00  0.00    -0.082 C 
ATOM     27  H   UNL     1      32.020 -10.133 -22.533  0.00  0.00    -0.084 HD
ATOM     28  H   UNL     1      33.263  -9.966 -21.484  0.00  0.00    -0.084 HD
ENDBRANCH  21  23
ENDBRANCH  20  21
ENDBRANCH   1  20
TORSDOF 6
ENDMDL
MODEL 4
REMARK VINA RESULT:     -10.7      4.733      9.867
REMARK  Name = 44129624
REMARK  6 active torsions:
REMARK  status: ('A' for Active; 'I' for Inactive)
REMARK    1  A    between atoms: C_1  and  O_20
REMARK    2  A    between atoms: C_4  and  C_8
REMARK    3  A    between atoms: C_8  and  C_9
REMARK    4  A    between atoms: C_10  and  C_16
REMARK    5  A    between atoms: O_20  and  C_21
REMARK    6  A    between atoms: C_21  and  C_23
REMARK                            x       y       z     vdW  Elec       q    Type
REMARK                         _______ _______ _______ _____ _____    ______ ____
ROOT
ATOM      1  C   UNL     1      35.856 -18.307 -20.651  0.00  0.00    +0.138 C 
ATOM      2  C   UNL     1      34.509 -18.663 -20.603  0.00  0.00    +0.037 C 
ATOM      3  C   UNL     1      36.808 -19.091 -19.999  0.00  0.00    +0.037 C 
ATOM      4  C   UNL     1      35.064 -20.586 -19.251  0.00  0.00    +0.039 C 
ATOM      5  C   UNL     1      34.112 -19.802 -19.903  0.00  0.00    +0.006 C 
ATOM      6  C   UNL     1      36.412 -20.230 -19.299  0.00  0.00    +0.006 C 
ENDROOT
BRANCH   4   8
ATOM      7  O   UNL     1      33.937 -22.627 -19.073  0.00  0.00    -0.287 OA
ATOM      8  C   UNL     1      34.651 -21.775 -18.523  0.00  0.00    +0.196 C 
BRANCH   8   9
ATOM      9  C   UNL     1      35.055 -22.030 -17.107  0.00  0.00    +0.039 C 
ATOM     10  C   UNL     1      35.809 -22.504 -14.464  0.00  0.00    +0.001 C 
ATOM     11  C   UNL     1      34.171 -22.663 -16.234  0.00  0.00    +0.003 C 
ATOM     12  C   UNL     1      36.315 -21.632 -16.659  0.00  0.00    +0.003 C 
ATOM     13  C   UNL     1      34.549 -22.901 -14.912  0.00  0.00    +0.000 C 
ATOM     14  C   UNL     1      36.692 -21.870 -15.338  0.00  0.00    +0.000 C 
BRANCH  10  16
ATOM     15  S   UNL     1      36.055 -23.623 -10.691  0.00  0.00    -0.086 S 
ATOM     16  C   UNL     1      36.196 -22.751 -13.103  0.00  0.00    +0.007 C 
ATOM     17  C   UNL     1      37.396 -22.330 -12.461  0.00  0.00    +0.007 C 
ATOM     18  C   UNL     1      35.377 -23.463 -12.255  0.00  0.00    +0.035 C 
ATOM     19  C   UNL     1      37.448 -22.737 -11.145  0.00  0.00    +0.035 C 
ENDBRANCH  10  16
ENDBRANCH   8   9
ENDBRANCH   4   8
BRANCH   1  20
ATOM     20  O   UNL     1      36.247 -17.186 -21.339  0.00  0.00    -0.478 OA
BRANCH  20  21
ATOM     21  C   UNL     1      35.420 -16.040 -21.220  0.00  0.00    +0.184 C 
BRANCH  21  23
ATOM     22  N   UNL     1      34.178 -14.424 -22.633  0.00  0.00    +0.388 N 
ATOM     23  C   UNL     1      35.289 -15.386 -22.587  0.00  0.00    -0.017 C 
ATOM     24  C   UNL     1      34.936 -16.375 -23.687  0.00  0.00    -0.020 C 
ATOM     25  C   UNL     1      34.277 -15.517 -24.756  0.00  0.00    -0.025 C 
ATOM     26  C   UNL     1      33.937 -14.204 -24.064  0.00  0.00    -0.082 C 
ATOM     27  H   UNL     1      34.439 -13.551 -22.174  0.00  0.00    -0.084 HD
ATOM     28  H   UNL     1      33.348 -14.768 -22.150  0.00  0.00    -0.084 HD
ENDBRANCH  21  23
ENDBRANCH  20  21
ENDBRANCH   1  20
TORSDOF 6
ENDMDL
MODEL 5
REMARK VINA RESULT:     -10.7      4.042      5.702
REMARK  Name = 44129624
REMARK  6 active torsions:
REMARK  status: ('A' for Active; 'I' for Inactive)
REMARK    1  A    between atoms: C_1  and  O_20
REMARK    2  A    between atoms: C_4  and  C_8
REMARK    3  A    between atoms: C_8  and  C_9
REMARK    4  A    between atoms: C_10  and  C_16
REMARK    5  A    between atoms: O_20  and  C_21
REMARK    6  A    between atoms: C_21  and  C_23
REMARK                            x       y       z     vdW  Elec       q    Type
REMARK                         _______ _______ _______ _____ _____    ______ ____
ROOT
ATOM      1  C   UNL     1      36.751 -21.875 -14.960  0.00  0.00    +0.138 C 
ATOM      2  C   UNL     1      37.351 -21.254 -16.054  0.00  0.00    +0.037 C 
ATOM      3  C   UNL     1      35.476 -22.428 -15.084  0.00  0.00    +0.037 C 
ATOM      4  C   UNL     1      35.402 -21.737 -17.397  0.00  0.00    +0.039 C 
ATOM      5  C   UNL     1      36.677 -21.184 -17.273  0.00  0.00    +0.006 C 
ATOM      6  C   UNL     1      34.802 -22.359 -16.303  0.00  0.00    +0.006 C 
ENDROOT
BRANCH   4   8
ATOM      7  O   UNL     1      33.999 -22.616 -19.048  0.00  0.00    -0.287 OA
ATOM      8  C   UNL     1      34.701 -21.667 -18.669  0.00  0.00    +0.196 C 
BRANCH   8   9
ATOM      9  C   UNL     1      34.785 -20.475 -19.567  0.00  0.00    +0.039 C 
ATOM     10  C   UNL     1      34.944 -18.250 -21.241  0.00  0.00    +0.001 C 
ATOM     11  C   UNL     1      33.626 -19.946 -20.133  0.00  0.00    +0.003 C 
ATOM     12  C   UNL     1      36.024 -19.892 -19.838  0.00  0.00    +0.003 C 
ATOM     13  C   UNL     1      33.706 -18.833 -20.971  0.00  0.00    +0.000 C 
ATOM     14  C   UNL     1      36.103 -18.780 -20.675  0.00  0.00    +0.000 C 
BRANCH  10  16
ATOM     15  S   UNL     1      34.948 -15.721 -24.267  0.00  0.00    -0.086 S 
ATOM     16  C   UNL     1      35.023 -17.104 -22.103  0.00  0.00    +0.007 C 
ATOM     17  C   UNL     1      35.327 -15.764 -21.726  0.00  0.00    +0.007 C 
ATOM     18  C   UNL     1      34.795 -17.222 -23.456  0.00  0.00    +0.035 C 
ATOM     19  C   UNL     1      35.320 -14.909 -22.806  0.00  0.00    +0.035 C 
ENDBRANCH  10  16
ENDBRANCH   8   9
ENDBRANCH   4   8
BRANCH   1  20
ATOM     20  O   UNL     1      37.414 -21.944 -13.760  0.00  0.00    -0.478 OA
BRANCH  20  21
ATOM     21  C   UNL     1      37.577 -23.232 -13.190  0.00  0.00    +0.184 C 
BRANCH  21  23
ATOM     22  N   UNL     1      39.236 -23.933 -14.895  0.00  0.00    +0.388 N 
ATOM     23  C   UNL     1      38.994 -23.712 -13.461  0.00  0.00    -0.017 C 
ATOM     24  C   UNL     1      39.289 -25.072 -12.847  0.00  0.00    -0.020 C 
ATOM     25  C   UNL     1      40.430 -25.618 -13.692  0.00  0.00    -0.025 C 
ATOM     26  C   UNL     1      40.453 -24.751 -14.943  0.00  0.00    -0.082 C 
ATOM     27  H   UNL     1      39.381 -23.045 -15.376  0.00  0.00    -0.084 HD
ATOM     28  H   UNL     1      38.447 -24.386 -15.354  0.00  0.00    -0.084 HD
ENDBRANCH  21  23
ENDBRANCH  20  21
ENDBRANCH   1  20
TORSDOF 6
ENDMDL
MODEL 6
REMARK VINA RESULT:     -10.6      4.812      9.980
REMARK  Name = 44129624
REMARK  6 active torsions:
REMARK  status: ('A' for Active; 'I' for Inactive)
REMARK    1  A    between atoms: C_1  and  O_20
REMARK    2  A    between atoms: C_4  and  C_8
REMARK    3  A    between atoms: C_8  and  C_9
REMARK    4  A    between atoms: C_10  and  C_16
REMARK    5  A    between atoms: O_20  and  C_21
REMARK    6  A    between atoms: C_21  and  C_23
REMARK                            x       y       z     vdW  Elec       q    Type
REMARK                         _______ _______ _______ _____ _____    ______ ____
ROOT
ATOM      1  C   UNL     1      35.080 -19.336 -20.780  0.00  0.00    +0.138 C 
ATOM      2  C   UNL     1      33.705 -19.369 -20.552  0.00  0.00    +0.037 C 
ATOM      3  C   UNL     1      35.939 -20.093 -19.983  0.00  0.00    +0.037 C 
ATOM      4  C   UNL     1      34.045 -20.917 -18.729  0.00  0.00    +0.039 C 
ATOM      5  C   UNL     1      33.187 -20.159 -19.527  0.00  0.00    +0.006 C 
ATOM      6  C   UNL     1      35.420 -20.884 -18.958  0.00  0.00    +0.006 C 
ENDROOT
BRANCH   4   8
ATOM      7  O   UNL     1      32.303 -22.051 -17.658  0.00  0.00    -0.287 OA
ATOM      8  C   UNL     1      33.504 -21.744 -17.662  0.00  0.00    +0.196 C 
BRANCH   8   9
ATOM      9  C   UNL     1      34.347 -22.255 -16.539  0.00  0.00    +0.039 C 
ATOM     10  C   UNL     1      35.919 -23.210 -14.442  0.00  0.00    +0.001 C 
ATOM     11  C   UNL     1      35.686 -21.877 -16.444  0.00  0.00    +0.003 C 
ATOM     12  C   UNL     1      33.794 -23.111 -15.586  0.00  0.00    +0.003 C 
ATOM     13  C   UNL     1      36.472 -22.355 -15.395  0.00  0.00    +0.000 C 
ATOM     14  C   UNL     1      34.580 -23.588 -14.538  0.00  0.00    +0.000 C 
BRANCH  10  16
ATOM     15  S   UNL     1      38.141 -23.663 -11.216  0.00  0.00    -0.086 S 
ATOM     16  C   UNL     1      36.729 -23.699 -13.363  0.00  0.00    +0.007 C 
ATOM     17  C   UNL     1      37.144 -25.044 -13.140  0.00  0.00    +0.007 C 
ATOM     18  C   UNL     1      37.202 -22.844 -12.391  0.00  0.00    +0.035 C 
ATOM     19  C   UNL     1      37.918 -25.166 -12.006  0.00  0.00    +0.035 C 
ENDBRANCH  10  16
ENDBRANCH   8   9
ENDBRANCH   4   8
BRANCH   1  20
ATOM     20  O   UNL     1      35.591 -18.557 -21.789  0.00  0.00    -0.478 OA
BRANCH  20  21
ATOM     21  C   UNL     1      36.212 -17.340 -21.408  0.00  0.00    +0.184 C 
BRANCH  21  23
ATOM     22  N   UNL     1      35.656 -15.260 -22.639  0.00  0.00    +0.388 N 
ATOM     23  C   UNL     1      35.220 -16.203 -21.599  0.00  0.00    -0.017 C 
ATOM     24  C   UNL     1      35.083 -15.322 -20.367  0.00  0.00    -0.020 C 
ATOM     25  C   UNL     1      34.584 -13.994 -20.918  0.00  0.00    -0.025 C 
ATOM     26  C   UNL     1      34.840 -14.061 -22.417  0.00  0.00    -0.082 C 
ATOM     27  H   UNL     1      35.485 -15.645 -23.568  0.00  0.00    -0.084 HD
ATOM     28  H   UNL     1      36.655 -15.062 -22.587  0.00  0.00    -0.084 HD
ENDBRANCH  21  23
ENDBRANCH  20  21
ENDBRANCH   1  20
TORSDOF 6
ENDMDL
MODEL 7
REMARK VINA RESULT:     -10.5      4.249      9.792
REMARK  Name = 44129624
REMARK  6 active torsions:
REMARK  status: ('A' for Active; 'I' for Inactive)
REMARK    1  A    between atoms: C_1  and  O_20
REMARK    2  A    between atoms: C_4  and  C_8
REMARK    3  A    between atoms: C_8  and  C_9
REMARK    4  A    between atoms: C_10  and  C_16
REMARK    5  A    between atoms: O_20  and  C_21
REMARK    6  A    between atoms: C_21  and  C_23
REMARK                            x       y       z     vdW  Elec       q    Type
REMARK                         _______ _______ _______ _____ _____    ______ ____
ROOT
ATOM      1  C   UNL     1      34.777 -14.142 -22.027  0.00  0.00    +0.138 C 
ATOM      2  C   UNL     1      34.957 -14.852 -20.841  0.00  0.00    +0.037 C 
ATOM      3  C   UNL     1      34.741 -14.818 -23.247  0.00  0.00    +0.037 C 
ATOM      4  C   UNL     1      35.066 -16.916 -22.092  0.00  0.00    +0.039 C 
ATOM      5  C   UNL     1      35.102 -16.238 -20.873  0.00  0.00    +0.006 C 
ATOM      6  C   UNL     1      34.885 -16.205 -23.278  0.00  0.00    +0.006 C 
ENDROOT
BRANCH   4   8
ATOM      7  O   UNL     1      35.532 -18.933 -23.178  0.00  0.00    -0.287 OA
ATOM      8  C   UNL     1      35.214 -18.362 -22.125  0.00  0.00    +0.196 C 
BRANCH   8   9
ATOM      9  C   UNL     1      34.997 -19.217 -20.919  0.00  0.00    +0.039 C 
ATOM     10  C   UNL     1      34.591 -20.815 -18.669  0.00  0.00    +0.001 C 
ATOM     11  C   UNL     1      33.700 -19.533 -20.514  0.00  0.00    +0.003 C 
ATOM     12  C   UNL     1      36.090 -19.700 -20.199  0.00  0.00    +0.003 C 
ATOM     13  C   UNL     1      33.498 -20.333 -19.388  0.00  0.00    +0.000 C 
ATOM     14  C   UNL     1      35.887 -20.498 -19.074  0.00  0.00    +0.000 C 
BRANCH  10  16
ATOM     15  S   UNL     1      34.901 -22.867 -15.316  0.00  0.00    -0.086 S 
ATOM     16  C   UNL     1      34.380 -21.639 -17.512  0.00  0.00    +0.007 C 
ATOM     17  C   UNL     1      33.181 -22.313 -17.142  0.00  0.00    +0.007 C 
ATOM     18  C   UNL     1      35.396 -21.855 -16.606  0.00  0.00    +0.035 C 
ATOM     19  C   UNL     1      33.325 -23.018 -15.968  0.00  0.00    +0.035 C 
ENDBRANCH  10  16
ENDBRANCH   8   9
ENDBRANCH   4   8
BRANCH   1  20
ATOM     20  O   UNL     1      34.635 -12.777 -21.996  0.00  0.00    -0.478 OA
BRANCH  20  21
ATOM     21  C   UNL     1      34.216 -12.149 -23.196  0.00  0.00    +0.184 C 
BRANCH  21  23
ATOM     22  N   UNL     1      32.792 -10.418 -22.133  0.00  0.00    +0.388 N 
ATOM     23  C   UNL     1      34.005 -10.667 -22.927  0.00  0.00    -0.017 C 
ATOM     24  C   UNL     1      33.761  -9.861 -24.193  0.00  0.00    -0.020 C 
ATOM     25  C   UNL     1      33.004  -8.634 -23.709  0.00  0.00    -0.025 C 
ATOM     26  C   UNL     1      32.523  -8.987 -22.309  0.00  0.00    -0.082 C 
ATOM     27  H   UNL     1      32.956 -10.635 -21.150  0.00  0.00    -0.084 HD
ATOM     28  H   UNL     1      32.009 -10.999 -22.432  0.00  0.00    -0.084 HD
ENDBRANCH  21  23
ENDBRANCH  20  21
ENDBRANCH   1  20
TORSDOF 6
ENDMDL
MODEL 8
REMARK VINA RESULT:     -10.5      3.703      5.520
REMARK  Name = 44129624
REMARK  6 active torsions:
REMARK  status: ('A' for Active; 'I' for Inactive)
REMARK    1  A    between atoms: C_1  and  O_20
REMARK    2  A    between atoms: C_4  and  C_8
REMARK    3  A    between atoms: C_8  and  C_9
REMARK    4  A    between atoms: C_10  and  C_16
REMARK    5  A    between atoms: O_20  and  C_21
REMARK    6  A    between atoms: C_21  and  C_23
REMARK                            x       y       z     vdW  Elec       q    Type
REMARK                         _______ _______ _______ _____ _____    ______ ____
ROOT
ATOM      1  C   UNL     1      37.049 -22.165 -14.790  0.00  0.00    +0.138 C 
ATOM      2  C   UNL     1      37.469 -21.517 -15.951  0.00  0.00    +0.037 C 
ATOM      3  C   UNL     1      35.757 -22.684 -14.709  0.00  0.00    +0.037 C 
ATOM      4  C   UNL     1      35.306 -21.907 -16.951  0.00  0.00    +0.039 C 
ATOM      5  C   UNL     1      36.598 -21.388 -17.032  0.00  0.00    +0.006 C 
ATOM      6  C   UNL     1      34.886 -22.555 -15.790  0.00  0.00    +0.006 C 
ENDROOT
BRANCH   4   8
ATOM      7  O   UNL     1      33.463 -22.576 -18.226  0.00  0.00    -0.287 OA
ATOM      8  C   UNL     1      34.398 -21.775 -18.080  0.00  0.00    +0.196 C 
BRANCH   8   9
ATOM      9  C   UNL     1      34.539 -20.692 -19.099  0.00  0.00    +0.039 C 
ATOM     10  C   UNL     1      34.802 -18.670 -21.003  0.00  0.00    +0.001 C 
ATOM     11  C   UNL     1      35.807 -20.247 -19.473  0.00  0.00    +0.003 C 
ATOM     12  C   UNL     1      33.403 -20.124 -19.676  0.00  0.00    +0.003 C 
ATOM     13  C   UNL     1      35.938 -19.236 -20.425  0.00  0.00    +0.000 C 
ATOM     14  C   UNL     1      33.534 -19.113 -20.628  0.00  0.00    +0.000 C 
BRANCH  10  16
ATOM     15  S   UNL     1      35.404 -15.297 -22.956  0.00  0.00    -0.086 S 
ATOM     16  C   UNL     1      34.940 -17.630 -21.983  0.00  0.00    +0.007 C 
ATOM     17  C   UNL     1      34.731 -17.739 -23.388  0.00  0.00    +0.007 C 
ATOM     18  C   UNL     1      35.309 -16.355 -21.613  0.00  0.00    +0.035 C 
ATOM     19  C   UNL     1      34.950 -16.544 -24.039  0.00  0.00    +0.035 C 
ENDBRANCH  10  16
ENDBRANCH   8   9
ENDBRANCH   4   8
BRANCH   1  20
ATOM     20  O   UNL     1      37.906 -22.292 -13.725  0.00  0.00    -0.478 OA
BRANCH  20  21
ATOM     21  C   UNL     1      38.283 -23.609 -13.358  0.00  0.00    +0.184 C 
BRANCH  21  23
ATOM     22  N   UNL     1      36.428 -24.569 -12.020  0.00  0.00    +0.388 N 
ATOM     23  C   UNL     1      37.739 -23.905 -11.969  0.00  0.00    -0.017 C 
ATOM     24  C   UNL     1      37.459 -22.649 -11.160  0.00  0.00    -0.020 C 
ATOM     25  C   UNL     1      36.416 -23.089 -10.144  0.00  0.00    -0.025 C 
ATOM     26  C   UNL     1      35.882 -24.415 -10.667  0.00  0.00    -0.082 C 
ATOM     27  H   UNL     1      36.534 -25.556 -12.255  0.00  0.00    -0.084 HD
ATOM     28  H   UNL     1      35.819 -24.166 -12.731  0.00  0.00    -0.084 HD
ENDBRANCH  21  23
ENDBRANCH  20  21
ENDBRANCH   1  20
TORSDOF 6
ENDMDL
MODEL 9
REMARK VINA RESULT:     -10.2      4.322      9.580
REMARK  Name = 44129624
REMARK  6 active torsions:
REMARK  status: ('A' for Active; 'I' for Inactive)
REMARK    1  A    between atoms: C_1  and  O_20
REMARK    2  A    between atoms: C_4  and  C_8
REMARK    3  A    between atoms: C_8  and  C_9
REMARK    4  A    between atoms: C_10  and  C_16
REMARK    5  A    between atoms: O_20  and  C_21
REMARK    6  A    between atoms: C_21  and  C_23
REMARK                            x       y       z     vdW  Elec       q    Type
REMARK                         _______ _______ _______ _____ _____    ______ ____
ROOT
ATOM      1  C   UNL     1      35.277 -18.396 -21.268  0.00  0.00    +0.138 C 
ATOM      2  C   UNL     1      34.250 -19.192 -20.763  0.00  0.00    +0.037 C 
ATOM      3  C   UNL     1      36.563 -18.494 -20.736  0.00  0.00    +0.037 C 
ATOM      4  C   UNL     1      35.793 -20.187 -19.194  0.00  0.00    +0.039 C 
ATOM      5  C   UNL     1      34.507 -20.088 -19.726  0.00  0.00    +0.006 C 
ATOM      6  C   UNL     1      36.820 -19.391 -19.699  0.00  0.00    +0.006 C 
ENDROOT
BRANCH   4   8
ATOM      7  O   UNL     1      37.224 -21.484 -17.875  0.00  0.00    -0.287 OA
ATOM      8  C   UNL     1      36.062 -21.124 -18.114  0.00  0.00    +0.196 C 
BRANCH   8   9
ATOM      9  C   UNL     1      34.978 -21.689 -17.254  0.00  0.00    +0.039 C 
ATOM     10  C   UNL     1      32.955 -22.743 -15.650  0.00  0.00    +0.001 C 
ATOM     11  C   UNL     1      35.271 -22.128 -15.963  0.00  0.00    +0.003 C 
ATOM     12  C   UNL     1      33.675 -21.777 -17.744  0.00  0.00    +0.003 C 
ATOM     13  C   UNL     1      34.258 -22.655 -15.161  0.00  0.00    +0.000 C 
ATOM     14  C   UNL     1      32.663 -22.305 -16.941  0.00  0.00    +0.000 C 
BRANCH  10  16
ATOM     15  S   UNL     1      29.685 -24.397 -14.193  0.00  0.00    -0.086 S 
ATOM     16  C   UNL     1      31.914 -23.285 -14.822  0.00  0.00    +0.007 C 
ATOM     17  C   UNL     1      31.895 -23.353 -13.399  0.00  0.00    +0.007 C 
ATOM     18  C   UNL     1      30.773 -23.817 -15.381  0.00  0.00    +0.035 C 
ATOM     19  C   UNL     1      30.740 -23.936 -12.925  0.00  0.00    +0.035 C 
ENDBRANCH  10  16
ENDBRANCH   8   9
ENDBRANCH   4   8
BRANCH   1  20
ATOM     20  O   UNL     1      35.024 -17.513 -22.289  0.00  0.00    -0.478 OA
BRANCH  20  21
ATOM     21  C   UNL     1      35.518 -16.193 -22.132  0.00  0.00    +0.184 C 
BRANCH  21  23
ATOM     22  N   UNL     1      34.119 -14.379 -23.083  0.00  0.00    +0.388 N 
ATOM     23  C   UNL     1      35.154 -15.384 -23.367  0.00  0.00    -0.017 C 
ATOM     24  C   UNL     1      34.525 -16.226 -24.466  0.00  0.00    -0.020 C 
ATOM     25  C   UNL     1      33.718 -15.227 -25.281  0.00  0.00    -0.025 C 
ATOM     26  C   UNL     1      33.609 -13.989 -24.402  0.00  0.00    -0.082 C 
ATOM     27  H   UNL     1      34.522 -13.575 -22.601  0.00  0.00    -0.084 HD
ATOM     28  H   UNL     1      33.384 -14.742 -22.476  0.00  0.00    -0.084 HD
ENDBRANCH  21  23
ENDBRANCH  20  21
ENDBRANCH   1  20
TORSDOF 6
ENDMDL
