MODEL 1
REMARK VINA RESULT:     -13.7      0.000      0.000
REMARK  Name = 6105620
REMARK  4 active torsions:
REMARK  status: ('A' for Active; 'I' for Inactive)
REMARK    1  A    between atoms: N_2  and  C_7
REMARK    2  A    between atoms: N_3  and  C_21
REMARK    3  A    between atoms: C_9  and  C_29
REMARK    4  A    between atoms: C_30  and  C_31
REMARK                            x       y       z     vdW  Elec       q    Type
REMARK                         _______ _______ _______ _____ _____    ______ ____
ROOT
ATOM      1  N   UNL     1      35.840 -21.968 -16.669  0.00  0.00    -0.086 NA
ATOM      2  N   UNL     1      34.430 -21.979 -17.043  0.00  0.00    -0.132 N 
ATOM      3  N   UNL     1      36.483 -21.118 -17.613  0.00  0.00    -0.240 N 
ATOM      4  N   UNL     1      34.277 -21.245 -18.212  0.00  0.00    -0.146 NA
ATOM      5  C   UNL     1      35.482 -20.777 -18.496  0.00  0.00    +0.162 C 
ATOM      6  H   UNL     1      37.427 -20.838 -17.632  0.00  0.00    +0.170 HD
ENDROOT
BRANCH   2  11
ATOM      7  O   UNL     1      33.467 -23.996 -12.454  0.00  0.00    -0.220 OA
ATOM      8  O   UNL     1      28.743 -23.476 -14.561  0.00  0.00    -0.220 OA
ATOM      9  N   UNL     1      31.204 -24.240 -12.313  0.00  0.00    -0.062 NA
ATOM     10  N   UNL     1      30.070 -24.116 -12.819  0.00  0.00    -0.062 NA
ATOM     11  C   UNL     1      33.288 -22.377 -16.317  0.00  0.00    +0.089 C 
ATOM     12  C   UNL     1      33.409 -22.915 -15.023  0.00  0.00    +0.030 C 
ATOM     13  C   UNL     1      32.002 -22.244 -16.871  0.00  0.00    +0.019 C 
ATOM     14  C   UNL     1      32.272 -23.306 -14.312  0.00  0.00    +0.097 C 
ATOM     15  C   UNL     1      31.016 -23.168 -14.872  0.00  0.00    +0.096 C 
ATOM     16  C   UNL     1      30.870 -22.636 -16.156  0.00  0.00    +0.014 C 
ATOM     17  C   UNL     1      32.356 -23.871 -12.961  0.00  0.00    +0.174 C 
ATOM     18  C   UNL     1      29.863 -23.597 -14.073  0.00  0.00    +0.174 C 
ENDBRANCH   2  11
BRANCH   1  21
ATOM     19  S   UNL     1      37.822 -22.007 -14.871  0.00  0.00    -0.074 S 
ATOM     20  N   UNL     1      36.167 -23.954 -15.454  0.00  0.00    -0.310 N 
ATOM     21  C   UNL     1      36.470 -22.690 -15.769  0.00  0.00    +0.222 C 
ATOM     22  C   UNL     1      36.979 -24.459 -14.490  0.00  0.00    +0.052 C 
ATOM     23  C   UNL     1      37.953 -23.566 -14.028  0.00  0.00    +0.041 C 
ATOM     24  C   UNL     1      36.895 -25.741 -13.968  0.00  0.00    +0.015 C 
ATOM     25  C   UNL     1      38.857 -23.931 -13.045  0.00  0.00    +0.007 C 
ATOM     26  C   UNL     1      37.801 -26.121 -12.976  0.00  0.00    +0.001 C 
ATOM     27  C   UNL     1      38.776 -25.222 -12.518  0.00  0.00    +0.001 C 
ATOM     28  H   UNL     1      35.435 -24.462 -15.874  0.00  0.00    +0.149 HD
ENDBRANCH   1  21
BRANCH   5  29
ATOM     29  C   UNL     1      35.706 -19.950 -19.691  0.00  0.00    +0.037 C 
ATOM     30  C   UNL     1      34.790 -19.104 -20.135  0.00  0.00    +0.003 C 
BRANCH  30  31
ATOM     31  C   UNL     1      34.964 -18.263 -21.332  0.00  0.00    +0.000 C 
ATOM     32  C   UNL     1      35.515 -16.998 -21.198  0.00  0.00    +0.000 C 
ATOM     33  C   UNL     1      34.574 -18.751 -22.567  0.00  0.00    +0.000 C 
ATOM     34  C   UNL     1      35.680 -16.201 -22.331  0.00  0.00    +0.000 C 
ATOM     35  C   UNL     1      34.739 -17.955 -23.701  0.00  0.00    +0.000 C 
ATOM     36  C   UNL     1      35.292 -16.680 -23.583  0.00  0.00    +0.000 C 
ENDBRANCH  30  31
ENDBRANCH   5  29
TORSDOF 4
ENDMDL
MODEL 2
REMARK VINA RESULT:     -13.4      2.405      5.480
REMARK  Name = 6105620
REMARK  4 active torsions:
REMARK  status: ('A' for Active; 'I' for Inactive)
REMARK    1  A    between atoms: N_2  and  C_7
REMARK    2  A    between atoms: N_3  and  C_21
REMARK    3  A    between atoms: C_9  and  C_29
REMARK    4  A    between atoms: C_30  and  C_31
REMARK                            x       y       z     vdW  Elec       q    Type
REMARK                         _______ _______ _______ _____ _____    ______ ____
ROOT
ATOM      1  N   UNL     1      33.866 -22.161 -16.850  0.00  0.00    -0.086 NA
ATOM      2  N   UNL     1      35.240 -21.939 -16.410  0.00  0.00    -0.132 N 
ATOM      3  N   UNL     1      33.777 -21.579 -18.147  0.00  0.00    -0.240 N 
ATOM      4  N   UNL     1      35.893 -21.175 -17.369  0.00  0.00    -0.146 NA
ATOM      5  C   UNL     1      35.010 -20.996 -18.340  0.00  0.00    +0.162 C 
ATOM      6  H   UNL     1      33.010 -21.591 -18.764  0.00  0.00    +0.170 HD
ENDROOT
BRANCH   2  11
ATOM      7  O   UNL     1      37.057 -26.598 -15.388  0.00  0.00    -0.220 OA
ATOM      8  O   UNL     1      38.616 -23.772 -11.312  0.00  0.00    -0.220 OA
ATOM      9  N   UNL     1      38.143 -26.448 -13.388  0.00  0.00    -0.062 NA
ATOM     10  N   UNL     1      38.517 -25.770 -12.409  0.00  0.00    -0.062 NA
ATOM     11  C   UNL     1      35.985 -22.545 -15.378  0.00  0.00    +0.089 C 
ATOM     12  C   UNL     1      36.316 -23.911 -15.435  0.00  0.00    +0.030 C 
ATOM     13  C   UNL     1      36.415 -21.796 -14.267  0.00  0.00    +0.019 C 
ATOM     14  C   UNL     1      37.055 -24.502 -14.406  0.00  0.00    +0.097 C 
ATOM     15  C   UNL     1      37.468 -23.751 -13.323  0.00  0.00    +0.096 C 
ATOM     16  C   UNL     1      37.153 -22.392 -13.243  0.00  0.00    +0.014 C 
ATOM     17  C   UNL     1      37.419 -25.922 -14.429  0.00  0.00    +0.174 C 
ATOM     18  C   UNL     1      38.241 -24.431 -12.278  0.00  0.00    +0.174 C 
ENDBRANCH   2  11
BRANCH   1  21
ATOM     19  S   UNL     1      33.100 -23.498 -14.662  0.00  0.00    -0.074 S 
ATOM     20  N   UNL     1      31.565 -22.538 -16.557  0.00  0.00    -0.310 N 
ATOM     21  C   UNL     1      32.843 -22.642 -16.179  0.00  0.00    +0.222 C 
ATOM     22  C   UNL     1      30.713 -23.124 -15.677  0.00  0.00    +0.052 C 
ATOM     23  C   UNL     1      31.337 -23.709 -14.569  0.00  0.00    +0.041 C 
ATOM     24  C   UNL     1      29.333 -23.169 -15.813  0.00  0.00    +0.015 C 
ATOM     25  C   UNL     1      30.605 -24.346 -13.582  0.00  0.00    +0.007 C 
ATOM     26  C   UNL     1      28.584 -23.809 -14.823  0.00  0.00    +0.001 C 
ATOM     27  C   UNL     1      29.216 -24.394 -13.716  0.00  0.00    +0.001 C 
ATOM     28  H   UNL     1      31.273 -22.086 -17.382  0.00  0.00    +0.149 HD
ENDBRANCH   1  21
BRANCH   5  29
ATOM     29  C   UNL     1      35.356 -20.213 -19.535  0.00  0.00    +0.037 C 
ATOM     30  C   UNL     1      34.589 -19.226 -19.967  0.00  0.00    +0.003 C 
BRANCH  30  31
ATOM     31  C   UNL     1      34.888 -18.420 -21.164  0.00  0.00    +0.000 C 
ATOM     32  C   UNL     1      35.510 -17.190 -21.016  0.00  0.00    +0.000 C 
ATOM     33  C   UNL     1      34.542 -18.907 -22.414  0.00  0.00    +0.000 C 
ATOM     34  C   UNL     1      35.793 -16.427 -22.149  0.00  0.00    +0.000 C 
ATOM     35  C   UNL     1      34.825 -18.144 -23.547  0.00  0.00    +0.000 C 
ATOM     36  C   UNL     1      35.451 -16.904 -23.415  0.00  0.00    +0.000 C 
ENDBRANCH  30  31
ENDBRANCH   5  29
TORSDOF 4
ENDMDL
MODEL 3
REMARK VINA RESULT:     -13.0      2.092      5.319
REMARK  Name = 6105620
REMARK  4 active torsions:
REMARK  status: ('A' for Active; 'I' for Inactive)
REMARK    1  A    between atoms: N_2  and  C_7
REMARK    2  A    between atoms: N_3  and  C_21
REMARK    3  A    between atoms: C_9  and  C_29
REMARK    4  A    between atoms: C_30  and  C_31
REMARK                            x       y       z     vdW  Elec       q    Type
REMARK                         _______ _______ _______ _____ _____    ______ ____
ROOT
ATOM      1  N   UNL     1      33.904 -22.010 -17.089  0.00  0.00    -0.086 NA
ATOM      2  N   UNL     1      35.246 -21.682 -16.621  0.00  0.00    -0.132 N 
ATOM      3  N   UNL     1      33.811 -21.472 -18.404  0.00  0.00    -0.240 N 
ATOM      4  N   UNL     1      35.872 -20.901 -17.585  0.00  0.00    -0.146 NA
ATOM      5  C   UNL     1      35.006 -20.811 -18.582  0.00  0.00    +0.162 C 
ATOM      6  H   UNL     1      33.064 -21.553 -19.040  0.00  0.00    +0.170 HD
ENDROOT
BRANCH   2  11
ATOM      7  O   UNL     1      34.307 -23.433 -11.920  0.00  0.00    -0.220 OA
ATOM      8  O   UNL     1      39.462 -23.923 -12.385  0.00  0.00    -0.220 OA
ATOM      9  N   UNL     1      36.321 -24.041 -11.038  0.00  0.00    -0.062 NA
ATOM     10  N   UNL     1      37.558 -24.159 -11.149  0.00  0.00    -0.062 NA
ATOM     11  C   UNL     1      36.002 -22.206 -15.552  0.00  0.00    +0.089 C 
ATOM     12  C   UNL     1      35.379 -22.601 -14.355  0.00  0.00    +0.030 C 
ATOM     13  C   UNL     1      37.398 -22.345 -15.660  0.00  0.00    +0.019 C 
ATOM     14  C   UNL     1      36.137 -23.120 -13.302  0.00  0.00    +0.097 C 
ATOM     15  C   UNL     1      37.507 -23.250 -13.425  0.00  0.00    +0.096 C 
ATOM     16  C   UNL     1      38.150 -22.864 -14.605  0.00  0.00    +0.014 C 
ATOM     17  C   UNL     1      35.524 -23.543 -12.039  0.00  0.00    +0.174 C 
ATOM     18  C   UNL     1      38.244 -23.801 -12.284  0.00  0.00    +0.174 C 
ENDBRANCH   2  11
BRANCH   1  21
ATOM     19  S   UNL     1      33.159 -23.932 -15.382  0.00  0.00    -0.074 S 
ATOM     20  N   UNL     1      31.634 -22.107 -16.484  0.00  0.00    -0.310 N 
ATOM     21  C   UNL     1      32.898 -22.542 -16.431  0.00  0.00    +0.222 C 
ATOM     22  C   UNL     1      30.799 -22.840 -15.704  0.00  0.00    +0.052 C 
ATOM     23  C   UNL     1      31.421 -23.886 -15.013  0.00  0.00    +0.041 C 
ATOM     24  C   UNL     1      29.437 -22.616 -15.566  0.00  0.00    +0.015 C 
ATOM     25  C   UNL     1      30.704 -24.725 -14.176  0.00  0.00    +0.007 C 
ATOM     26  C   UNL     1      28.703 -23.455 -14.724  0.00  0.00    +0.001 C 
ATOM     27  C   UNL     1      29.332 -24.503 -14.035  0.00  0.00    +0.001 C 
ATOM     28  H   UNL     1      31.342 -21.340 -17.028  0.00  0.00    +0.149 HD
ENDBRANCH   1  21
BRANCH   5  29
ATOM     29  C   UNL     1      35.330 -20.038 -19.791  0.00  0.00    +0.037 C 
ATOM     30  C   UNL     1      34.581 -19.024 -20.192  0.00  0.00    +0.003 C 
BRANCH  30  31
ATOM     31  C   UNL     1      34.860 -18.228 -21.400  0.00  0.00    +0.000 C 
ATOM     32  C   UNL     1      34.513 -18.736 -22.642  0.00  0.00    +0.000 C 
ATOM     33  C   UNL     1      35.463 -16.988 -21.272  0.00  0.00    +0.000 C 
ATOM     34  C   UNL     1      34.776 -17.982 -23.786  0.00  0.00    +0.000 C 
ATOM     35  C   UNL     1      35.726 -16.234 -22.415  0.00  0.00    +0.000 C 
ATOM     36  C   UNL     1      35.383 -16.731 -23.673  0.00  0.00    +0.000 C 
ENDBRANCH  30  31
ENDBRANCH   5  29
TORSDOF 4
ENDMDL
MODEL 4
REMARK VINA RESULT:     -12.8      2.565      5.525
REMARK  Name = 6105620
REMARK  4 active torsions:
REMARK  status: ('A' for Active; 'I' for Inactive)
REMARK    1  A    between atoms: N_2  and  C_7
REMARK    2  A    between atoms: N_3  and  C_21
REMARK    3  A    between atoms: C_9  and  C_29
REMARK    4  A    between atoms: C_30  and  C_31
REMARK                            x       y       z     vdW  Elec       q    Type
REMARK                         _______ _______ _______ _____ _____    ______ ____
ROOT
ATOM      1  N   UNL     1      33.849 -22.420 -16.515  0.00  0.00    -0.086 NA
ATOM      2  N   UNL     1      35.211 -22.371 -15.993  0.00  0.00    -0.132 N 
ATOM      3  N   UNL     1      33.896 -21.757 -17.775  0.00  0.00    -0.240 N 
ATOM      4  N   UNL     1      35.993 -21.627 -16.865  0.00  0.00    -0.146 NA
ATOM      5  C   UNL     1      35.192 -21.299 -17.867  0.00  0.00    +0.162 C 
ATOM      6  H   UNL     1      33.169 -21.650 -18.431  0.00  0.00    +0.170 HD
ENDROOT
BRANCH   2  11
ATOM      7  O   UNL     1      37.770 -21.340 -11.698  0.00  0.00    -0.220 OA
ATOM      8  O   UNL     1      37.700 -26.536 -11.845  0.00  0.00    -0.220 OA
ATOM      9  N   UNL     1      38.333 -23.350 -10.779  0.00  0.00    -0.062 NA
ATOM     10  N   UNL     1      38.317 -24.597 -10.814  0.00  0.00    -0.062 NA
ATOM     11  C   UNL     1      35.828 -23.113 -14.964  0.00  0.00    +0.089 C 
ATOM     12  C   UNL     1      36.466 -22.463 -13.892  0.00  0.00    +0.030 C 
ATOM     13  C   UNL     1      35.820 -24.519 -14.987  0.00  0.00    +0.019 C 
ATOM     14  C   UNL     1      37.075 -23.206 -12.877  0.00  0.00    +0.097 C 
ATOM     15  C   UNL     1      37.057 -24.587 -12.916  0.00  0.00    +0.096 C 
ATOM     16  C   UNL     1      36.429 -25.256 -13.971  0.00  0.00    +0.014 C 
ATOM     17  C   UNL     1      37.750 -22.567 -11.744  0.00  0.00    +0.174 C 
ATOM     18  C   UNL     1      37.713 -25.309 -11.821  0.00  0.00    +0.174 C 
ENDBRANCH   2  11
BRANCH   1  21
ATOM     19  S   UNL     1      32.814 -23.632 -14.366  0.00  0.00    -0.074 S 
ATOM     20  N   UNL     1      31.514 -22.681 -16.434  0.00  0.00    -0.310 N 
ATOM     21  C   UNL     1      32.745 -22.827 -15.931  0.00  0.00    +0.222 C 
ATOM     22  C   UNL     1      30.555 -23.193 -15.620  0.00  0.00    +0.052 C 
ATOM     23  C   UNL     1      31.042 -23.760 -14.438  0.00  0.00    +0.041 C 
ATOM     24  C   UNL     1      29.194 -23.181 -15.888  0.00  0.00    +0.015 C 
ATOM     25  C   UNL     1      30.189 -24.324 -13.504  0.00  0.00    +0.007 C 
ATOM     26  C   UNL     1      28.324 -23.747 -14.954  0.00  0.00    +0.001 C 
ATOM     27  C   UNL     1      28.818 -24.315 -13.770  0.00  0.00    +0.001 C 
ATOM     28  H   UNL     1      31.324 -22.250 -17.299  0.00  0.00    +0.149 HD
ENDBRANCH   1  21
BRANCH   5  29
ATOM     29  C   UNL     1      35.685 -20.488 -18.990  0.00  0.00    +0.037 C 
ATOM     30  C   UNL     1      34.872 -19.746 -19.724  0.00  0.00    +0.003 C 
BRANCH  30  31
ATOM     31  C   UNL     1      35.317 -18.926 -20.864  0.00  0.00    +0.000 C 
ATOM     32  C   UNL     1      36.532 -18.263 -20.790  0.00  0.00    +0.000 C 
ATOM     33  C   UNL     1      34.514 -18.833 -21.988  0.00  0.00    +0.000 C 
ATOM     34  C   UNL     1      36.954 -17.487 -21.869  0.00  0.00    +0.000 C 
ATOM     35  C   UNL     1      34.935 -18.057 -23.068  0.00  0.00    +0.000 C 
ATOM     36  C   UNL     1      36.155 -17.384 -23.009  0.00  0.00    +0.000 C 
ENDBRANCH  30  31
ENDBRANCH   5  29
TORSDOF 4
ENDMDL
