MODEL 1
REMARK VINA RESULT:     -11.6      0.000      0.000
REMARK  Name = 11406590
REMARK  3 active torsions:
REMARK  status: ('A' for Active; 'I' for Inactive)
REMARK    1  A    between atoms: N_2  and  C_16
REMARK    2  A    between atoms: C_12  and  O_21
REMARK    3  A    between atoms: O_21  and  C_24
REMARK                            x       y       z     vdW  Elec       q    Type
REMARK                         _______ _______ _______ _____ _____    ______ ____
ROOT
ATOM      1  O   UNL     1      33.830 -13.861 -25.739  0.00  0.00    -0.266 OA
ATOM      2  N   UNL     1      35.790 -17.442 -19.951  0.00  0.00    -0.270 N 
ATOM      3  N   UNL     1      35.145 -16.288 -21.890  0.00  0.00    -0.322 NA
ATOM      4  N   UNL     1      34.481 -15.094 -23.875  0.00  0.00    -0.225 N 
ATOM      5  N   UNL     1      35.207 -15.179 -19.754  0.00  0.00    -0.170 NA
ATOM      6  C   UNL     1      35.359 -16.243 -20.560  0.00  0.00    +0.146 C 
ATOM      7  C   UNL     1      34.732 -15.135 -22.470  0.00  0.00    +0.204 C 
ATOM      8  C   UNL     1      34.541 -13.975 -21.733  0.00  0.00    +0.068 C 
ATOM      9  C   UNL     1      34.795 -14.056 -20.373  0.00  0.00    +0.116 C 
ATOM     10  C   UNL     1      34.098 -12.748 -22.370  0.00  0.00    +0.048 C 
ATOM     11  C   UNL     1      34.054 -13.937 -24.530  0.00  0.00    +0.289 C 
ATOM     12  C   UNL     1      33.865 -12.717 -23.687  0.00  0.00    +0.199 C 
ATOM     13  C   UNL     1      34.690 -16.329 -24.626  0.00  0.00    +0.123 C 
ATOM     14  H   UNL     1      35.957 -17.443 -18.981  0.00  0.00    +0.159 HD
ENDROOT
BRANCH   2  16
ATOM     15  O   UNL     1      35.306 -20.948 -19.051  0.00  0.00    -0.354 OA
ATOM     16  C   UNL     1      35.997 -18.670 -20.692  0.00  0.00    +0.084 C 
ATOM     17  C   UNL     1      37.047 -19.538 -19.998  0.00  0.00    +0.052 C 
ATOM     18  C   UNL     1      34.672 -19.422 -20.832  0.00  0.00    +0.052 C 
ATOM     19  C   UNL     1      36.495 -20.221 -18.749  0.00  0.00    +0.144 C 
ATOM     20  C   UNL     1      34.264 -20.099 -19.528  0.00  0.00    +0.144 C 
ENDBRANCH   2  16
BRANCH  12  21
ATOM     21  O   UNL     1      33.443 -11.575 -24.337  0.00  0.00    -0.447 OA
BRANCH  21  24
ATOM     22  F   UNL     1      32.544  -9.905 -22.342  0.00  0.00    -0.201 F 
ATOM     23  F   UNL     1      36.128  -6.928 -23.178  0.00  0.00    -0.204 F 
ATOM     24  C   UNL     1      34.111 -10.418 -24.048  0.00  0.00    +0.173 C 
ATOM     25  C   UNL     1      33.644  -9.583 -23.036  0.00  0.00    +0.177 C 
ATOM     26  C   UNL     1      35.254 -10.081 -24.767  0.00  0.00    +0.042 C 
ATOM     27  C   UNL     1      34.326  -8.402 -22.742  0.00  0.00    +0.062 C 
ATOM     28  C   UNL     1      35.936  -8.901 -24.473  0.00  0.00    +0.033 C 
ATOM     29  C   UNL     1      35.472  -8.062 -23.460  0.00  0.00    +0.143 C 
ENDBRANCH  21  24
ENDBRANCH  12  21
TORSDOF 3
ENDMDL
MODEL 2
REMARK VINA RESULT:     -11.1      5.552      8.811
REMARK  Name = 11406590
REMARK  3 active torsions:
REMARK  status: ('A' for Active; 'I' for Inactive)
REMARK    1  A    between atoms: N_2  and  C_16
REMARK    2  A    between atoms: C_12  and  O_21
REMARK    3  A    between atoms: O_21  and  C_24
REMARK                            x       y       z     vdW  Elec       q    Type
REMARK                         _______ _______ _______ _____ _____    ______ ____
ROOT
ATOM      1  O   UNL     1      32.795 -21.428 -19.546  0.00  0.00    -0.266 OA
ATOM      2  N   UNL     1      37.092 -22.484 -14.015  0.00  0.00    -0.270 N 
ATOM      3  N   UNL     1      35.639 -22.151 -15.828  0.00  0.00    -0.322 NA
ATOM      4  N   UNL     1      34.155 -21.804 -17.695  0.00  0.00    -0.225 N 
ATOM      5  N   UNL     1      37.922 -21.391 -15.916  0.00  0.00    -0.170 NA
ATOM      6  C   UNL     1      36.875 -21.983 -15.318  0.00  0.00    +0.146 C 
ATOM      7  C   UNL     1      35.436 -21.669 -17.078  0.00  0.00    +0.204 C 
ATOM      8  C   UNL     1      36.446 -21.038 -17.790  0.00  0.00    +0.068 C 
ATOM      9  C   UNL     1      37.674 -20.928 -17.157  0.00  0.00    +0.116 C 
ATOM     10  C   UNL     1      36.212 -20.528 -19.128  0.00  0.00    +0.048 C 
ATOM     11  C   UNL     1      33.885 -21.328 -18.980  0.00  0.00    +0.289 C 
ATOM     12  C   UNL     1      35.010 -20.658 -19.701  0.00  0.00    +0.199 C 
ATOM     13  C   UNL     1      33.110 -22.471 -16.923  0.00  0.00    +0.123 C 
ATOM     14  H   UNL     1      37.984 -22.379 -13.613  0.00  0.00    +0.159 HD
ENDROOT
BRANCH   2  16
ATOM     15  O   UNL     1      37.245 -25.010 -11.382  0.00  0.00    -0.354 OA
ATOM     16  C   UNL     1      36.057 -23.145 -13.245  0.00  0.00    +0.084 C 
ATOM     17  C   UNL     1      36.093 -24.654 -13.495  0.00  0.00    +0.052 C 
ATOM     18  C   UNL     1      36.235 -22.833 -11.758  0.00  0.00    +0.052 C 
ATOM     19  C   UNL     1      37.256 -25.328 -12.772  0.00  0.00    +0.144 C 
ATOM     20  C   UNL     1      37.397 -23.611 -11.150  0.00  0.00    +0.144 C 
ENDBRANCH   2  16
BRANCH  12  21
ATOM     21  O   UNL     1      34.740 -20.189 -20.970  0.00  0.00    -0.447 OA
BRANCH  21  24
ATOM     22  F   UNL     1      35.083 -19.260 -23.538  0.00  0.00    -0.201 F 
ATOM     23  F   UNL     1      35.698 -14.863 -21.897  0.00  0.00    -0.204 F 
ATOM     24  C   UNL     1      34.978 -18.863 -21.201  0.00  0.00    +0.173 C 
ATOM     25  C   UNL     1      35.150 -18.408 -22.506  0.00  0.00    +0.177 C 
ATOM     26  C   UNL     1      35.049 -17.976 -20.131  0.00  0.00    +0.042 C 
ATOM     27  C   UNL     1      35.393 -17.054 -22.741  0.00  0.00    +0.062 C 
ATOM     28  C   UNL     1      35.292 -16.623 -20.366  0.00  0.00    +0.033 C 
ATOM     29  C   UNL     1      35.464 -16.162 -21.671  0.00  0.00    +0.143 C 
ENDBRANCH  21  24
ENDBRANCH  12  21
TORSDOF 3
ENDMDL
MODEL 3
REMARK VINA RESULT:     -10.5      3.616      8.639
REMARK  Name = 11406590
REMARK  3 active torsions:
REMARK  status: ('A' for Active; 'I' for Inactive)
REMARK    1  A    between atoms: N_2  and  C_16
REMARK    2  A    between atoms: C_12  and  O_21
REMARK    3  A    between atoms: O_21  and  C_24
REMARK                            x       y       z     vdW  Elec       q    Type
REMARK                         _______ _______ _______ _____ _____    ______ ____
ROOT
ATOM      1  O   UNL     1      34.874 -16.040 -25.258  0.00  0.00    -0.266 OA
ATOM      2  N   UNL     1      32.788 -10.433 -21.466  0.00  0.00    -0.270 N 
ATOM      3  N   UNL     1      33.468 -12.273 -22.755  0.00  0.00    -0.322 NA
ATOM      4  N   UNL     1      34.170 -14.166 -24.070  0.00  0.00    -0.225 N 
ATOM      5  N   UNL     1      33.736 -12.272 -20.363  0.00  0.00    -0.170 NA
ATOM      6  C   UNL     1      33.359 -11.723 -21.529  0.00  0.00    +0.146 C 
ATOM      7  C   UNL     1      34.017 -13.510 -22.811  0.00  0.00    +0.204 C 
ATOM      8  C   UNL     1      34.442 -14.172 -21.668  0.00  0.00    +0.068 C 
ATOM      9  C   UNL     1      34.275 -13.503 -20.466  0.00  0.00    +0.116 C 
ATOM     10  C   UNL     1      35.028 -15.498 -21.745  0.00  0.00    +0.048 C 
ATOM     11  C   UNL     1      34.727 -15.441 -24.192  0.00  0.00    +0.289 C 
ATOM     12  C   UNL     1      35.167 -16.107 -22.928  0.00  0.00    +0.199 C 
ATOM     13  C   UNL     1      33.715 -13.446 -25.256  0.00  0.00    +0.123 C 
ATOM     14  H   UNL     1      32.693 -10.004 -20.586  0.00  0.00    +0.159 HD
ENDROOT
BRANCH   2  16
ATOM     15  O   UNL     1      33.174  -6.951 -22.498  0.00  0.00    -0.354 OA
ATOM     16  C   UNL     1      32.336  -9.715 -22.641  0.00  0.00    +0.084 C 
ATOM     17  C   UNL     1      31.389  -8.584 -22.239  0.00  0.00    +0.052 C 
ATOM     18  C   UNL     1      33.541  -9.172 -23.413  0.00  0.00    +0.052 C 
ATOM     19  C   UNL     1      32.134  -7.399 -21.630  0.00  0.00    +0.144 C 
ATOM     20  C   UNL     1      34.157  -7.960 -22.723  0.00  0.00    +0.144 C 
ENDBRANCH   2  16
BRANCH  12  21
ATOM     21  O   UNL     1      35.718 -17.366 -23.051  0.00  0.00    -0.447 OA
BRANCH  21  24
ATOM     22  F   UNL     1      38.003 -17.777 -21.572  0.00  0.00    -0.201 F 
ATOM     23  F   UNL     1      35.607 -20.567 -18.592  0.00  0.00    -0.204 F 
ATOM     24  C   UNL     1      35.691 -18.163 -21.942  0.00  0.00    +0.173 C 
ATOM     25  C   UNL     1      36.855 -18.362 -21.203  0.00  0.00    +0.177 C 
ATOM     26  C   UNL     1      34.500 -18.771 -21.556  0.00  0.00    +0.042 C 
ATOM     27  C   UNL     1      36.826 -19.175 -20.070  0.00  0.00    +0.062 C 
ATOM     28  C   UNL     1      34.471 -19.585 -20.423  0.00  0.00    +0.033 C 
ATOM     29  C   UNL     1      35.634 -19.786 -19.680  0.00  0.00    +0.143 C 
ENDBRANCH  21  24
ENDBRANCH  12  21
TORSDOF 3
ENDMDL
MODEL 4
REMARK VINA RESULT:     -10.4      3.863      8.933
REMARK  Name = 11406590
REMARK  3 active torsions:
REMARK  status: ('A' for Active; 'I' for Inactive)
REMARK    1  A    between atoms: N_2  and  C_16
REMARK    2  A    between atoms: C_12  and  O_21
REMARK    3  A    between atoms: O_21  and  C_24
REMARK                            x       y       z     vdW  Elec       q    Type
REMARK                         _______ _______ _______ _____ _____    ______ ____
ROOT
ATOM      1  O   UNL     1      34.942 -18.012 -24.192  0.00  0.00    -0.266 OA
ATOM      2  N   UNL     1      34.001 -11.328 -22.045  0.00  0.00    -0.270 N 
ATOM      3  N   UNL     1      34.303 -13.532 -22.792  0.00  0.00    -0.322 NA
ATOM      4  N   UNL     1      34.616 -15.798 -23.550  0.00  0.00    -0.225 N 
ATOM      5  N   UNL     1      34.727 -12.935 -20.499  0.00  0.00    -0.170 NA
ATOM      6  C   UNL     1      34.361 -12.664 -21.763  0.00  0.00    +0.146 C 
ATOM      7  C   UNL     1      34.650 -14.813 -22.517  0.00  0.00    +0.204 C 
ATOM      8  C   UNL     1      35.044 -15.205 -21.246  0.00  0.00    +0.068 C 
ATOM      9  C   UNL     1      35.062 -14.220 -20.272  0.00  0.00    +0.116 C 
ATOM     10  C   UNL     1      35.412 -16.581 -20.968  0.00  0.00    +0.048 C 
ATOM     11  C   UNL     1      34.961 -17.133 -23.328  0.00  0.00    +0.289 C 
ATOM     12  C   UNL     1      35.377 -17.500 -21.940  0.00  0.00    +0.199 C 
ATOM     13  C   UNL     1      34.199 -15.358 -24.878  0.00  0.00    +0.123 C 
ATOM     14  H   UNL     1      34.032 -10.669 -21.315  0.00  0.00    +0.159 HD
ENDROOT
BRANCH   2  16
ATOM     15  O   UNL     1      34.504  -8.186 -23.837  0.00  0.00    -0.354 OA
ATOM     16  C   UNL     1      33.587 -10.887 -23.362  0.00  0.00    +0.084 C 
ATOM     17  C   UNL     1      32.668  -9.670 -23.249  0.00  0.00    +0.052 C 
ATOM     18  C   UNL     1      34.818 -10.565 -24.213  0.00  0.00    +0.052 C 
ATOM     19  C   UNL     1      33.440  -8.396 -22.912  0.00  0.00    +0.144 C 
ATOM     20  C   UNL     1      35.460  -9.244 -23.805  0.00  0.00    +0.144 C 
ENDBRANCH   2  16
BRANCH  12  21
ATOM     21  O   UNL     1      35.719 -18.819 -21.724  0.00  0.00    -0.447 OA
BRANCH  21  24
ATOM     22  F   UNL     1      37.104 -20.254 -19.827  0.00  0.00    -0.201 F 
ATOM     23  F   UNL     1      33.039 -21.447 -17.717  0.00  0.00    -0.204 F 
ATOM     24  C   UNL     1      35.052 -19.473 -20.727  0.00  0.00    +0.173 C 
ATOM     25  C   UNL     1      35.767 -20.195 -19.774  0.00  0.00    +0.177 C 
ATOM     26  C   UNL     1      33.663 -19.414 -20.669  0.00  0.00    +0.042 C 
ATOM     27  C   UNL     1      35.085 -20.863 -18.756  0.00  0.00    +0.062 C 
ATOM     28  C   UNL     1      32.981 -20.082 -19.651  0.00  0.00    +0.033 C 
ATOM     29  C   UNL     1      33.693 -20.805 -18.695  0.00  0.00    +0.143 C 
ENDBRANCH  21  24
ENDBRANCH  12  21
TORSDOF 3
ENDMDL
MODEL 5
REMARK VINA RESULT:      -9.9      3.876      9.043
REMARK  Name = 11406590
REMARK  3 active torsions:
REMARK  status: ('A' for Active; 'I' for Inactive)
REMARK    1  A    between atoms: N_2  and  C_16
REMARK    2  A    between atoms: C_12  and  O_21
REMARK    3  A    between atoms: O_21  and  C_24
REMARK                            x       y       z     vdW  Elec       q    Type
REMARK                         _______ _______ _______ _____ _____    ______ ____
ROOT
ATOM      1  O   UNL     1      35.838 -16.785 -19.860  0.00  0.00    -0.266 OA
ATOM      2  N   UNL     1      33.525 -11.182 -23.523  0.00  0.00    -0.270 N 
ATOM      3  N   UNL     1      34.294 -13.017 -22.277  0.00  0.00    -0.322 NA
ATOM      4  N   UNL     1      35.082 -14.906 -21.007  0.00  0.00    -0.225 N 
ATOM      5  N   UNL     1      33.720 -13.254 -24.603  0.00  0.00    -0.170 NA
ATOM      6  C   UNL     1      33.863 -12.552 -23.467  0.00  0.00    +0.146 C 
ATOM      7  C   UNL     1      34.616 -14.332 -22.228  0.00  0.00    +0.204 C 
ATOM      8  C   UNL     1      34.508 -15.152 -23.343  0.00  0.00    +0.068 C 
ATOM      9  C   UNL     1      34.053 -14.556 -24.508  0.00  0.00    +0.116 C 
ATOM     10  C   UNL     1      34.858 -16.558 -23.273  0.00  0.00    +0.048 C 
ATOM     11  C   UNL     1      35.430 -16.254 -20.894  0.00  0.00    +0.289 C 
ATOM     12  C   UNL     1      35.294 -17.090 -22.126  0.00  0.00    +0.199 C 
ATOM     13  C   UNL     1      35.186 -14.021 -19.851  0.00  0.00    +0.123 C 
ATOM     14  H   UNL     1      33.207 -10.810 -24.377  0.00  0.00    +0.159 HD
ENDROOT
BRANCH   2  16
ATOM     15  O   UNL     1      31.428  -8.421 -22.375  0.00  0.00    -0.354 OA
ATOM     16  C   UNL     1      33.626 -10.300 -22.377  0.00  0.00    +0.084 C 
ATOM     17  C   UNL     1      33.777  -8.849 -22.837  0.00  0.00    +0.052 C 
ATOM     18  C   UNL     1      32.393 -10.465 -21.485  0.00  0.00    +0.052 C 
ATOM     19  C   UNL     1      32.461  -8.267 -23.345  0.00  0.00    +0.144 C 
ATOM     20  C   UNL     1      31.163  -9.793 -22.086  0.00  0.00    +0.144 C 
ENDBRANCH   2  16
BRANCH  12  21
ATOM     21  O   UNL     1      35.639 -18.422 -22.011  0.00  0.00    -0.447 OA
BRANCH  21  24
ATOM     22  F   UNL     1      37.108 -19.772 -20.115  0.00  0.00    -0.201 F 
ATOM     23  F   UNL     1      33.121 -21.302 -18.074  0.00  0.00    -0.204 F 
ATOM     24  C   UNL     1      35.013 -19.139 -21.031  0.00  0.00    +0.173 C 
ATOM     25  C   UNL     1      35.769 -19.817 -20.078  0.00  0.00    +0.177 C 
ATOM     26  C   UNL     1      33.622 -19.187 -20.991  0.00  0.00    +0.042 C 
ATOM     27  C   UNL     1      35.129 -20.549 -19.078  0.00  0.00    +0.062 C 
ATOM     28  C   UNL     1      32.982 -19.919 -19.991  0.00  0.00    +0.033 C 
ATOM     29  C   UNL     1      33.736 -20.599 -19.034  0.00  0.00    +0.143 C 
ENDBRANCH  21  24
ENDBRANCH  12  21
TORSDOF 3
ENDMDL
MODEL 6
REMARK VINA RESULT:      -9.8      3.477      5.225
REMARK  Name = 11406590
REMARK  3 active torsions:
REMARK  status: ('A' for Active; 'I' for Inactive)
REMARK    1  A    between atoms: N_2  and  C_16
REMARK    2  A    between atoms: C_12  and  O_21
REMARK    3  A    between atoms: O_21  and  C_24
REMARK                            x       y       z     vdW  Elec       q    Type
REMARK                         _______ _______ _______ _____ _____    ______ ____
ROOT
ATOM      1  O   UNL     1      33.611  -7.824 -24.051  0.00  0.00    -0.266 OA
ATOM      2  N   UNL     1      34.143 -14.550 -21.897  0.00  0.00    -0.270 N 
ATOM      3  N   UNL     1      33.994 -12.328 -22.637  0.00  0.00    -0.322 NA
ATOM      4  N   UNL     1      33.835 -10.045 -23.390  0.00  0.00    -0.225 N 
ATOM      5  N   UNL     1      32.555 -13.149 -20.891  0.00  0.00    -0.170 NA
ATOM      6  C   UNL     1      33.533 -13.280 -21.802  0.00  0.00    +0.146 C 
ATOM      7  C   UNL     1      33.406 -11.111 -22.543  0.00  0.00    +0.204 C 
ATOM      8  C   UNL     1      32.386 -10.863 -21.636  0.00  0.00    +0.068 C 
ATOM      9  C   UNL     1      32.000 -11.923 -20.832  0.00  0.00    +0.116 C 
ATOM     10  C   UNL     1      31.766  -9.553 -21.548  0.00  0.00    +0.048 C 
ATOM     11  C   UNL     1      33.267  -8.770 -23.340  0.00  0.00    +0.289 C 
ATOM     12  C   UNL     1      32.173  -8.558 -22.344  0.00  0.00    +0.199 C 
ATOM     13  C   UNL     1      34.909 -10.335 -24.335  0.00  0.00    +0.123 C 
ATOM     14  H   UNL     1      33.830 -15.268 -21.301  0.00  0.00    +0.159 HD
ENDROOT
BRANCH   2  16
ATOM     15  O   UNL     1      34.615 -17.270 -24.289  0.00  0.00    -0.354 OA
ATOM     16  C   UNL     1      35.209 -14.842 -22.835  0.00  0.00    +0.084 C 
ATOM     17  C   UNL     1      35.856 -16.187 -22.499  0.00  0.00    +0.052 C 
ATOM     18  C   UNL     1      34.661 -14.841 -24.263  0.00  0.00    +0.052 C 
ATOM     19  C   UNL     1      34.980 -17.366 -22.914  0.00  0.00    +0.144 C 
ATOM     20  C   UNL     1      33.849 -16.097 -24.561  0.00  0.00    +0.144 C 
ENDBRANCH   2  16
BRANCH  12  21
ATOM     21  O   UNL     1      31.614  -7.297 -22.297  0.00  0.00    -0.447 OA
BRANCH  21  24
ATOM     22  F   UNL     1      31.458  -4.553 -22.435  0.00  0.00    -0.201 F 
ATOM     23  F   UNL     1      32.822  -4.217 -17.915  0.00  0.00    -0.204 F 
ATOM     24  C   UNL     1      31.915  -6.530 -21.207  0.00  0.00    +0.173 C 
ATOM     25  C   UNL     1      31.831  -5.142 -21.292  0.00  0.00    +0.177 C 
ATOM     26  C   UNL     1      32.303  -7.140 -20.017  0.00  0.00    +0.042 C 
ATOM     27  C   UNL     1      32.138  -4.360 -20.178  0.00  0.00    +0.062 C 
ATOM     28  C   UNL     1      32.609  -6.358 -18.904  0.00  0.00    +0.033 C 
ATOM     29  C   UNL     1      32.527  -4.969 -18.984  0.00  0.00    +0.143 C 
ENDBRANCH  21  24
ENDBRANCH  12  21
TORSDOF 3
ENDMDL
MODEL 7
REMARK VINA RESULT:      -9.6     11.697     14.200
REMARK  Name = 11406590
REMARK  3 active torsions:
REMARK  status: ('A' for Active; 'I' for Inactive)
REMARK    1  A    between atoms: N_2  and  C_16
REMARK    2  A    between atoms: C_12  and  O_21
REMARK    3  A    between atoms: O_21  and  C_24
REMARK                            x       y       z     vdW  Elec       q    Type
REMARK                         _______ _______ _______ _____ _____    ______ ____
ROOT
ATOM      1  O   UNL     1      34.918 -23.944 -11.385  0.00  0.00    -0.266 OA
ATOM      2  N   UNL     1      30.457 -22.899 -16.786  0.00  0.00    -0.270 N 
ATOM      3  N   UNL     1      31.907 -23.263 -14.977  0.00  0.00    -0.322 NA
ATOM      4  N   UNL     1      33.403 -23.633 -13.124  0.00  0.00    -0.225 N 
ATOM      5  N   UNL     1      32.677 -22.169 -16.978  0.00  0.00    -0.170 NA
ATOM      6  C   UNL     1      31.744 -22.770 -16.221  0.00  0.00    +0.146 C 
ATOM      7  C   UNL     1      33.144 -23.137 -14.438  0.00  0.00    +0.204 C 
ATOM      8  C   UNL     1      34.183 -22.533 -15.131  0.00  0.00    +0.068 C 
ATOM      9  C   UNL     1      33.891 -22.065 -16.402  0.00  0.00    +0.116 C 
ATOM     10  C   UNL     1      35.502 -22.406 -14.540  0.00  0.00    +0.048 C 
ATOM     11  C   UNL     1      34.656 -23.532 -12.516  0.00  0.00    +0.289 C 
ATOM     12  C   UNL     1      35.738 -22.872 -13.308  0.00  0.00    +0.199 C 
ATOM     13  C   UNL     1      32.291 -24.264 -12.419  0.00  0.00    +0.123 C 
ATOM     14  H   UNL     1      30.304 -22.548 -17.693  0.00  0.00    +0.159 HD
ENDROOT
BRANCH   2  16
ATOM     15  O   UNL     1      27.387 -21.536 -15.351  0.00  0.00    -0.354 OA
ATOM     16  C   UNL     1      29.352 -23.525 -16.089  0.00  0.00    +0.084 C 
ATOM     17  C   UNL     1      29.234 -22.965 -14.671  0.00  0.00    +0.052 C 
ATOM     18  C   UNL     1      28.054 -23.310 -16.871  0.00  0.00    +0.052 C 
ATOM     19  C   UNL     1      28.631 -21.563 -14.654  0.00  0.00    +0.144 C 
ATOM     20  C   UNL     1      27.535 -21.883 -16.727  0.00  0.00    +0.144 C 
ENDBRANCH   2  16
BRANCH  12  21
ATOM     21  O   UNL     1      36.975 -22.774 -12.704  0.00  0.00    -0.447 OA
BRANCH  21  24
ATOM     22  F   UNL     1      37.890 -24.963 -11.308  0.00  0.00    -0.201 F 
ATOM     23  F   UNL     1      40.989 -25.907 -14.758  0.00  0.00    -0.204 F 
ATOM     24  C   UNL     1      37.974 -23.555 -13.215  0.00  0.00    +0.173 C 
ATOM     25  C   UNL     1      38.427 -24.659 -12.497  0.00  0.00    +0.177 C 
ATOM     26  C   UNL     1      38.534 -23.241 -14.450  0.00  0.00    +0.042 C 
ATOM     27  C   UNL     1      39.447 -25.455 -13.019  0.00  0.00    +0.062 C 
ATOM     28  C   UNL     1      39.554 -24.036 -14.972  0.00  0.00    +0.033 C 
ATOM     29  C   UNL     1      40.010 -25.143 -14.257  0.00  0.00    +0.143 C 
ENDBRANCH  21  24
ENDBRANCH  12  21
TORSDOF 3
ENDMDL
MODEL 8
REMARK VINA RESULT:      -9.3      4.144      8.944
REMARK  Name = 11406590
REMARK  3 active torsions:
REMARK  status: ('A' for Active; 'I' for Inactive)
REMARK    1  A    between atoms: N_2  and  C_16
REMARK    2  A    between atoms: C_12  and  O_21
REMARK    3  A    between atoms: O_21  and  C_24
REMARK                            x       y       z     vdW  Elec       q    Type
REMARK                         _______ _______ _______ _____ _____    ______ ____
ROOT
ATOM      1  O   UNL     1      33.640 -14.427 -19.705  0.00  0.00    -0.266 OA
ATOM      2  N   UNL     1      32.422  -8.324 -23.086  0.00  0.00    -0.270 N 
ATOM      3  N   UNL     1      32.801 -10.335 -21.938  0.00  0.00    -0.322 NA
ATOM      4  N   UNL     1      33.196 -12.403 -20.766  0.00  0.00    -0.225 N 
ATOM      5  N   UNL     1      33.872  -9.895 -24.048  0.00  0.00    -0.170 NA
ATOM      6  C   UNL     1      33.064  -9.580 -23.023  0.00  0.00    +0.146 C 
ATOM      7  C   UNL     1      33.419 -11.540 -21.881  0.00  0.00    +0.204 C 
ATOM      8  C   UNL     1      34.275 -11.968 -22.886  0.00  0.00    +0.068 C 
ATOM      9  C   UNL     1      34.465 -11.101 -23.949  0.00  0.00    +0.116 C 
ATOM     10  C   UNL     1      34.930 -13.261 -22.809  0.00  0.00    +0.048 C 
ATOM     11  C   UNL     1      33.805 -13.655 -20.651  0.00  0.00    +0.289 C 
ATOM     12  C   UNL     1      34.717 -14.066 -21.761  0.00  0.00    +0.199 C 
ATOM     13  C   UNL     1      32.291 -11.928 -19.724  0.00  0.00    +0.123 C 
ATOM     14  H   UNL     1      32.593  -7.747 -23.865  0.00  0.00    +0.159 HD
ENDROOT
BRANCH   2  16
ATOM     15  O   UNL     1      32.653  -5.537 -20.737  0.00  0.00    -0.354 OA
ATOM     16  C   UNL     1      31.521  -7.849 -22.055  0.00  0.00    +0.084 C 
ATOM     17  C   UNL     1      32.197  -7.926 -20.685  0.00  0.00    +0.052 C 
ATOM     18  C   UNL     1      31.082  -6.417 -22.368  0.00  0.00    +0.052 C 
ATOM     19  C   UNL     1      33.228  -6.818 -20.489  0.00  0.00    +0.144 C 
ATOM     20  C   UNL     1      32.188  -5.408 -22.079  0.00  0.00    +0.144 C 
ENDBRANCH   2  16
BRANCH  12  21
ATOM     21  O   UNL     1      35.317 -15.303 -21.645  0.00  0.00    -0.447 OA
BRANCH  21  24
ATOM     22  F   UNL     1      35.439 -17.976 -21.001  0.00  0.00    -0.201 F 
ATOM     23  F   UNL     1      33.855 -19.118 -25.312  0.00  0.00    -0.204 F 
ATOM     24  C   UNL     1      34.953 -16.253 -22.557  0.00  0.00    +0.173 C 
ATOM     25  C   UNL     1      35.020 -17.602 -22.217  0.00  0.00    +0.177 C 
ATOM     26  C   UNL     1      34.518 -15.867 -23.822  0.00  0.00    +0.042 C 
ATOM     27  C   UNL     1      34.648 -18.571 -23.149  0.00  0.00    +0.062 C 
ATOM     28  C   UNL     1      34.146 -16.836 -24.754  0.00  0.00    +0.033 C 
ATOM     29  C   UNL     1      34.211 -18.188 -24.417  0.00  0.00    +0.143 C 
ENDBRANCH  21  24
ENDBRANCH  12  21
TORSDOF 3
ENDMDL
MODEL 9
REMARK VINA RESULT:      -9.2      6.608     11.935
REMARK  Name = 11406590
REMARK  3 active torsions:
REMARK  status: ('A' for Active; 'I' for Inactive)
REMARK    1  A    between atoms: N_2  and  C_16
REMARK    2  A    between atoms: C_12  and  O_21
REMARK    3  A    between atoms: O_21  and  C_24
REMARK                            x       y       z     vdW  Elec       q    Type
REMARK                         _______ _______ _______ _____ _____    ______ ____
ROOT
ATOM      1  O   UNL     1      36.463 -22.520 -15.630  0.00  0.00    -0.266 OA
ATOM      2  N   UNL     1      34.270 -18.915 -21.319  0.00  0.00    -0.270 N 
ATOM      3  N   UNL     1      35.033 -20.097 -19.441  0.00  0.00    -0.322 NA
ATOM      4  N   UNL     1      35.807 -21.314 -17.510  0.00  0.00    -0.225 N 
ATOM      5  N   UNL     1      32.700 -20.091 -20.035  0.00  0.00    -0.170 NA
ATOM      6  C   UNL     1      33.985 -19.742 -20.210  0.00  0.00    +0.146 C 
ATOM      7  C   UNL     1      34.755 -20.891 -18.378  0.00  0.00    +0.204 C 
ATOM      8  C   UNL     1      33.462 -21.312 -18.101  0.00  0.00    +0.068 C 
ATOM      9  C   UNL     1      32.471 -20.881 -18.967  0.00  0.00    +0.116 C 
ATOM     10  C   UNL     1      33.182 -22.162 -16.958  0.00  0.00    +0.048 C 
ATOM     11  C   UNL     1      35.583 -22.132 -16.400  0.00  0.00    +0.289 C 
ATOM     12  C   UNL     1      34.172 -22.556 -16.149  0.00  0.00    +0.199 C 
ATOM     13  C   UNL     1      37.156 -20.855 -17.825  0.00  0.00    +0.123 C 
ATOM     14  H   UNL     1      33.527 -18.638 -21.902  0.00  0.00    +0.159 HD
ENDROOT
BRANCH   2  16
ATOM     15  O   UNL     1      35.562 -15.642 -22.296  0.00  0.00    -0.354 OA
ATOM     16  C   UNL     1      35.608 -18.457 -21.634  0.00  0.00    +0.084 C 
ATOM     17  C   UNL     1      35.667 -17.944 -23.074  0.00  0.00    +0.052 C 
ATOM     18  C   UNL     1      36.029 -17.365 -20.648  0.00  0.00    +0.052 C 
ATOM     19  C   UNL     1      35.012 -16.574 -23.224  0.00  0.00    +0.144 C 
ATOM     20  C   UNL     1      35.341 -16.037 -20.943  0.00  0.00    +0.144 C 
ENDBRANCH   2  16
BRANCH  12  21
ATOM     21  O   UNL     1      33.954 -23.363 -15.052  0.00  0.00    -0.447 OA
BRANCH  21  24
ATOM     22  F   UNL     1      33.302 -24.218 -12.518  0.00  0.00    -0.201 F 
ATOM     23  F   UNL     1      28.724 -24.363 -13.713  0.00  0.00    -0.204 F 
ATOM     24  C   UNL     1      32.652 -23.612 -14.718  0.00  0.00    +0.173 C 
ATOM     25  C   UNL     1      32.337 -24.045 -13.432  0.00  0.00    +0.177 C 
ATOM     26  C   UNL     1      31.649 -23.433 -15.666  0.00  0.00    +0.042 C 
ATOM     27  C   UNL     1      31.008 -24.299 -13.092  0.00  0.00    +0.062 C 
ATOM     28  C   UNL     1      30.320 -23.687 -15.326  0.00  0.00    +0.033 C 
ATOM     29  C   UNL     1      30.000 -24.119 -14.039  0.00  0.00    +0.143 C 
ENDBRANCH  21  24
ENDBRANCH  12  21
TORSDOF 3
ENDMDL
