MODEL 1
REMARK VINA RESULT:     -12.8      0.000      0.000
REMARK  Name = 16750097
REMARK  3 active torsions:
REMARK  status: ('A' for Active; 'I' for Inactive)
REMARK    1  A    between atoms: N_3  and  C_10
REMARK    2  A    between atoms: N_3  and  C_23
REMARK    3  A    between atoms: C_23  and  C_24
REMARK                            x       y       z     vdW  Elec       q    Type
REMARK                         _______ _______ _______ _____ _____    ______ ____
ROOT
ATOM      1  O   UNL     1      34.185 -15.347 -25.758  0.00  0.00    -0.209 OA
ATOM      2  N   UNL     1      35.661 -18.429 -21.767  0.00  0.00    -0.305 N 
ATOM      3  N   UNL     1      35.777 -17.163 -19.944  0.00  0.00    -0.305 N 
ATOM      4  N   UNL     1      34.411 -13.114 -22.441  0.00  0.00    -0.275 N 
ATOM      5  N   UNL     1      33.962 -13.293 -24.771  0.00  0.00    -0.302 NA
ATOM      6  N   UNL     1      33.777 -11.257 -23.627  0.00  0.00    -0.320 N 
ATOM      7  C   UNL     1      35.313 -17.166 -22.175  0.00  0.00    +0.061 C 
ATOM      8  C   UNL     1      35.392 -16.395 -21.019  0.00  0.00    +0.061 C 
ATOM      9  C   UNL     1      35.930 -18.376 -20.427  0.00  0.00    +0.208 C 
ATOM     10  C   UNL     1      34.719 -14.472 -22.322  0.00  0.00    +0.064 C 
ATOM     11  C   UNL     1      34.649 -15.283 -23.466  0.00  0.00    +0.110 C 
ATOM     12  C   UNL     1      34.946 -16.654 -23.420  0.00  0.00    +0.030 C 
ATOM     13  C   UNL     1      35.092 -15.024 -21.086  0.00  0.00    +0.031 C 
ATOM     14  C   UNL     1      34.249 -14.646 -24.753  0.00  0.00    +0.208 C 
ATOM     15  C   UNL     1      34.048 -12.601 -23.665  0.00  0.00    +0.248 C 
ATOM     16  H   UNL     1      35.710 -19.230 -22.336  0.00  0.00    +0.150 HD
ATOM     17  H   UNL     1      35.910 -16.868 -19.015  0.00  0.00    +0.150 HD
ATOM     18  H   UNL     1      34.452 -12.527 -21.652  0.00  0.00    +0.156 HD
ATOM     19  H   UNL     1      33.851 -10.763 -22.779  0.00  0.00    +0.146 HD
ATOM     20  H   UNL     1      33.508 -10.785 -24.449  0.00  0.00    +0.146 HD
ENDROOT
BRANCH   9  21
ATOM     21  N   UNL     1      36.300 -19.515 -19.802  0.00  0.00    -0.263 NA
ATOM     22  H   UNL     1      37.250 -19.621 -19.567  0.00  0.00    +0.127 HD
BRANCH  21  23
ATOM     23  C   UNL     1      35.392 -20.593 -19.452  0.00  0.00    +0.098 C 
BRANCH  23  24
ATOM     24  C   UNL     1      35.692 -21.107 -18.071  0.00  0.00    -0.006 C 
ATOM     25  C   UNL     1      34.704 -21.690 -17.263  0.00  0.00    -0.003 C 
ATOM     26  C   UNL     1      35.050 -22.154 -15.971  0.00  0.00    -0.000 C 
ATOM     27  C   UNL     1      37.004 -20.983 -17.613  0.00  0.00    -0.003 C 
ATOM     28  C   UNL     1      33.378 -21.823 -17.707  0.00  0.00    -0.000 C 
ATOM     29  C   UNL     1      36.376 -22.021 -15.526  0.00  0.00    -0.000 C 
ATOM     30  C   UNL     1      37.346 -21.439 -16.344  0.00  0.00    -0.000 C 
ATOM     31  C   UNL     1      34.061 -22.737 -15.162  0.00  0.00    -0.000 C 
ATOM     32  C   UNL     1      32.408 -22.404 -16.889  0.00  0.00    -0.000 C 
ATOM     33  C   UNL     1      32.749 -22.861 -15.620  0.00  0.00    -0.000 C 
ENDBRANCH  23  24
ENDBRANCH  21  23
ENDBRANCH   9  21
TORSDOF 3
ENDMDL
MODEL 2
REMARK VINA RESULT:     -12.7      0.827      2.027
REMARK  Name = 16750097
REMARK  3 active torsions:
REMARK  status: ('A' for Active; 'I' for Inactive)
REMARK    1  A    between atoms: N_3  and  C_10
REMARK    2  A    between atoms: N_3  and  C_23
REMARK    3  A    between atoms: C_23  and  C_24
REMARK                            x       y       z     vdW  Elec       q    Type
REMARK                         _______ _______ _______ _____ _____    ______ ____
ROOT
ATOM      1  O   UNL     1      34.171 -15.478 -25.547  0.00  0.00    -0.209 OA
ATOM      2  N   UNL     1      35.476 -19.008 -21.880  0.00  0.00    -0.305 N 
ATOM      3  N   UNL     1      35.818 -17.911 -19.979  0.00  0.00    -0.305 N 
ATOM      4  N   UNL     1      34.801 -13.552 -22.092  0.00  0.00    -0.275 N 
ATOM      5  N   UNL     1      34.227 -13.496 -24.401  0.00  0.00    -0.302 NA
ATOM      6  N   UNL     1      34.325 -11.549 -23.102  0.00  0.00    -0.320 N 
ATOM      7  C   UNL     1      35.253 -17.687 -22.175  0.00  0.00    +0.061 C 
ATOM      8  C   UNL     1      35.472 -17.023 -20.972  0.00  0.00    +0.061 C 
ATOM      9  C   UNL     1      35.811 -19.091 -20.558  0.00  0.00    +0.208 C 
ATOM     10  C   UNL     1      34.960 -14.941 -22.091  0.00  0.00    +0.064 C 
ATOM     11  C   UNL     1      34.746 -15.646 -23.285  0.00  0.00    +0.110 C 
ATOM     12  C   UNL     1      34.889 -17.040 -23.357  0.00  0.00    +0.030 C 
ATOM     13  C   UNL     1      35.325 -15.627 -20.920  0.00  0.00    +0.031 C 
ATOM     14  C   UNL     1      34.361 -14.869 -24.498  0.00  0.00    +0.208 C 
ATOM     15  C   UNL     1      34.442 -12.908 -23.253  0.00  0.00    +0.248 C 
ATOM     16  H   UNL     1      35.408 -19.762 -22.509  0.00  0.00    +0.150 HD
ATOM     17  H   UNL     1      36.027 -17.706 -19.039  0.00  0.00    +0.150 HD
ATOM     18  H   UNL     1      34.945 -13.038 -21.266  0.00  0.00    +0.156 HD
ATOM     19  H   UNL     1      34.494 -11.135 -22.225  0.00  0.00    +0.146 HD
ATOM     20  H   UNL     1      34.073 -10.988 -23.871  0.00  0.00    +0.146 HD
ENDROOT
BRANCH   9  21
ATOM     21  N   UNL     1      36.079 -20.309 -20.039  0.00  0.00    -0.263 NA
ATOM     22  H   UNL     1      35.909 -21.096 -20.606  0.00  0.00    +0.127 HD
BRANCH  21  23
ATOM     23  C   UNL     1      36.601 -20.539 -18.704  0.00  0.00    +0.098 C 
BRANCH  23  24
ATOM     24  C   UNL     1      35.588 -21.260 -17.859  0.00  0.00    -0.006 C 
ATOM     25  C   UNL     1      35.896 -21.747 -16.579  0.00  0.00    -0.003 C 
ATOM     26  C   UNL     1      34.898 -22.418 -15.833  0.00  0.00    -0.000 C 
ATOM     27  C   UNL     1      34.312 -21.434 -18.397  0.00  0.00    -0.003 C 
ATOM     28  C   UNL     1      37.175 -21.582 -16.021  0.00  0.00    -0.000 C 
ATOM     29  C   UNL     1      33.619 -22.584 -16.391  0.00  0.00    -0.000 C 
ATOM     30  C   UNL     1      33.330 -22.093 -17.665  0.00  0.00    -0.000 C 
ATOM     31  C   UNL     1      35.207 -22.904 -14.553  0.00  0.00    -0.000 C 
ATOM     32  C   UNL     1      37.464 -22.073 -14.747  0.00  0.00    -0.000 C 
ATOM     33  C   UNL     1      36.481 -22.732 -14.014  0.00  0.00    -0.000 C 
ENDBRANCH  23  24
ENDBRANCH  21  23
ENDBRANCH   9  21
TORSDOF 3
ENDMDL
MODEL 3
REMARK VINA RESULT:     -12.4      1.372      2.714
REMARK  Name = 16750097
REMARK  3 active torsions:
REMARK  status: ('A' for Active; 'I' for Inactive)
REMARK    1  A    between atoms: N_3  and  C_10
REMARK    2  A    between atoms: N_3  and  C_23
REMARK    3  A    between atoms: C_23  and  C_24
REMARK                            x       y       z     vdW  Elec       q    Type
REMARK                         _______ _______ _______ _____ _____    ______ ____
ROOT
ATOM      1  O   UNL     1      33.874 -12.150 -21.443  0.00  0.00    -0.209 OA
ATOM      2  N   UNL     1      35.736 -16.798 -19.849  0.00  0.00    -0.305 N 
ATOM      3  N   UNL     1      35.973 -18.082 -21.647  0.00  0.00    -0.305 N 
ATOM      4  N   UNL     1      34.321 -14.510 -24.648  0.00  0.00    -0.275 N 
ATOM      5  N   UNL     1      33.687 -12.416 -23.709  0.00  0.00    -0.302 NA
ATOM      6  N   UNL     1      33.549 -12.834 -26.010  0.00  0.00    -0.320 N 
ATOM      7  C   UNL     1      35.328 -16.026 -20.907  0.00  0.00    +0.061 C 
ATOM      8  C   UNL     1      35.486 -16.849 -22.017  0.00  0.00    +0.061 C 
ATOM      9  C   UNL     1      36.111 -18.017 -20.341  0.00  0.00    +0.208 C 
ATOM     10  C   UNL     1      34.667 -15.045 -23.403  0.00  0.00    +0.064 C 
ATOM     11  C   UNL     1      34.523 -14.244 -22.260  0.00  0.00    +0.110 C 
ATOM     12  C   UNL     1      34.850 -14.716 -20.980  0.00  0.00    +0.030 C 
ATOM     13  C   UNL     1      35.152 -16.358 -23.291  0.00  0.00    +0.031 C 
ATOM     14  C   UNL     1      34.003 -12.858 -22.437  0.00  0.00    +0.208 C 
ATOM     15  C   UNL     1      33.848 -13.220 -24.728  0.00  0.00    +0.248 C 
ATOM     16  H   UNL     1      35.756 -16.524 -18.904  0.00  0.00    +0.150 HD
ATOM     17  H   UNL     1      36.173 -18.847 -22.233  0.00  0.00    +0.150 HD
ATOM     18  H   UNL     1      34.414 -15.053 -25.463  0.00  0.00    +0.156 HD
ATOM     19  H   UNL     1      33.682 -13.462 -26.757  0.00  0.00    +0.146 HD
ATOM     20  H   UNL     1      33.202 -11.929 -26.184  0.00  0.00    +0.146 HD
ENDROOT
BRANCH   9  21
ATOM     21  N   UNL     1      36.553 -18.951 -19.472  0.00  0.00    -0.263 NA
ATOM     22  H   UNL     1      36.963 -18.639 -18.633  0.00  0.00    +0.127 HD
BRANCH  21  23
ATOM     23  C   UNL     1      36.464 -20.384 -19.687  0.00  0.00    +0.098 C 
BRANCH  23  24
ATOM     24  C   UNL     1      35.512 -21.008 -18.705  0.00  0.00    -0.006 C 
ATOM     25  C   UNL     1      35.921 -21.410 -17.424  0.00  0.00    -0.003 C 
ATOM     26  C   UNL     1      34.976 -21.991 -16.545  0.00  0.00    -0.000 C 
ATOM     27  C   UNL     1      34.188 -21.176 -19.114  0.00  0.00    -0.003 C 
ATOM     28  C   UNL     1      37.249 -21.249 -16.994  0.00  0.00    -0.000 C 
ATOM     29  C   UNL     1      33.648 -22.153 -16.974  0.00  0.00    -0.000 C 
ATOM     30  C   UNL     1      33.258 -21.746 -18.251  0.00  0.00    -0.000 C 
ATOM     31  C   UNL     1      35.385 -22.394 -15.264  0.00  0.00    -0.000 C 
ATOM     32  C   UNL     1      37.638 -21.656 -15.718  0.00  0.00    -0.000 C 
ATOM     33  C   UNL     1      36.708 -22.226 -14.854  0.00  0.00    -0.000 C 
ENDBRANCH  23  24
ENDBRANCH  21  23
ENDBRANCH   9  21
TORSDOF 3
ENDMDL
MODEL 4
REMARK VINA RESULT:     -12.4      1.184      1.822
REMARK  Name = 16750097
REMARK  3 active torsions:
REMARK  status: ('A' for Active; 'I' for Inactive)
REMARK    1  A    between atoms: N_3  and  C_10
REMARK    2  A    between atoms: N_3  and  C_23
REMARK    3  A    between atoms: C_23  and  C_24
REMARK                            x       y       z     vdW  Elec       q    Type
REMARK                         _______ _______ _______ _____ _____    ______ ____
ROOT
ATOM      1  O   UNL     1      34.176 -12.391 -21.339  0.00  0.00    -0.209 OA
ATOM      2  N   UNL     1      35.733 -17.203 -19.915  0.00  0.00    -0.305 N 
ATOM      3  N   UNL     1      35.775 -18.467 -21.741  0.00  0.00    -0.305 N 
ATOM      4  N   UNL     1      34.270 -14.716 -24.599  0.00  0.00    -0.275 N 
ATOM      5  N   UNL     1      33.855 -12.598 -23.597  0.00  0.00    -0.302 NA
ATOM      6  N   UNL     1      33.570 -12.958 -25.894  0.00  0.00    -0.320 N 
ATOM      7  C   UNL     1      35.336 -16.381 -20.938  0.00  0.00    +0.061 C 
ATOM      8  C   UNL     1      35.372 -17.192 -22.068  0.00  0.00    +0.061 C 
ATOM      9  C   UNL     1      35.983 -18.438 -20.444  0.00  0.00    +0.208 C 
ATOM     10  C   UNL     1      34.633 -15.302 -23.382  0.00  0.00    +0.064 C 
ATOM     11  C   UNL     1      34.612 -14.514 -22.221  0.00  0.00    +0.110 C 
ATOM     12  C   UNL     1      34.963 -15.036 -20.967  0.00  0.00    +0.030 C 
ATOM     13  C   UNL     1      35.016 -16.652 -23.314  0.00  0.00    +0.031 C 
ATOM     14  C   UNL     1      34.198 -13.087 -22.350  0.00  0.00    +0.208 C 
ATOM     15  C   UNL     1      33.900 -13.392 -24.635  0.00  0.00    +0.248 C 
ATOM     16  H   UNL     1      35.822 -16.950 -18.968  0.00  0.00    +0.150 HD
ATOM     17  H   UNL     1      35.883 -19.234 -22.348  0.00  0.00    +0.150 HD
ATOM     18  H   UNL     1      34.279 -15.250 -25.426  0.00  0.00    +0.156 HD
ATOM     19  H   UNL     1      33.614 -13.580 -26.656  0.00  0.00    +0.146 HD
ATOM     20  H   UNL     1      33.289 -12.025 -26.036  0.00  0.00    +0.146 HD
ENDROOT
BRANCH   9  21
ATOM     21  N   UNL     1      36.390 -19.422 -19.612  0.00  0.00    -0.263 NA
ATOM     22  H   UNL     1      37.235 -19.289 -19.124  0.00  0.00    +0.127 HD
BRANCH  21  23
ATOM     23  C   UNL     1      35.668 -20.661 -19.387  0.00  0.00    +0.098 C 
BRANCH  23  24
ATOM     24  C   UNL     1      35.879 -21.146 -17.980  0.00  0.00    -0.006 C 
ATOM     25  C   UNL     1      34.841 -21.715 -17.225  0.00  0.00    -0.003 C 
ATOM     26  C   UNL     1      35.104 -22.152 -15.904  0.00  0.00    -0.000 C 
ATOM     27  C   UNL     1      37.159 -21.010 -17.441  0.00  0.00    -0.003 C 
ATOM     28  C   UNL     1      33.547 -21.859 -17.750  0.00  0.00    -0.000 C 
ATOM     29  C   UNL     1      36.399 -22.007 -15.378  0.00  0.00    -0.000 C 
ATOM     30  C   UNL     1      37.419 -21.440 -16.143  0.00  0.00    -0.000 C 
ATOM     31  C   UNL     1      34.066 -22.721 -15.149  0.00  0.00    -0.000 C 
ATOM     32  C   UNL     1      32.527 -22.426 -16.985  0.00  0.00    -0.000 C 
ATOM     33  C   UNL     1      32.786 -22.857 -15.687  0.00  0.00    -0.000 C 
ENDBRANCH  23  24
ENDBRANCH  21  23
ENDBRANCH   9  21
TORSDOF 3
ENDMDL
MODEL 5
REMARK VINA RESULT:     -12.3      3.353      9.356
REMARK  Name = 16750097
REMARK  3 active torsions:
REMARK  status: ('A' for Active; 'I' for Inactive)
REMARK    1  A    between atoms: N_3  and  C_10
REMARK    2  A    between atoms: N_3  and  C_23
REMARK    3  A    between atoms: C_23  and  C_24
REMARK                            x       y       z     vdW  Elec       q    Type
REMARK                         _______ _______ _______ _____ _____    ______ ____
ROOT
ATOM      1  O   UNL     1      32.418 -23.022 -16.396  0.00  0.00    -0.209 OA
ATOM      2  N   UNL     1      34.143 -19.924 -20.274  0.00  0.00    -0.305 N 
ATOM      3  N   UNL     1      36.299 -19.528 -19.912  0.00  0.00    -0.305 N 
ATOM      4  N   UNL     1      36.306 -22.274 -15.794  0.00  0.00    -0.275 N 
ATOM      5  N   UNL     1      34.286 -23.328 -15.108  0.00  0.00    -0.302 NA
ATOM      6  N   UNL     1      36.275 -23.551 -13.890  0.00  0.00    -0.320 N 
ATOM      7  C   UNL     1      34.452 -20.601 -19.122  0.00  0.00    +0.061 C 
ATOM      8  C   UNL     1      35.803 -20.339 -18.918  0.00  0.00    +0.061 C 
ATOM      9  C   UNL     1      35.279 -19.299 -20.708  0.00  0.00    +0.208 C 
ATOM     10  C   UNL     1      35.709 -21.699 -16.920  0.00  0.00    +0.064 C 
ATOM     11  C   UNL     1      34.348 -21.942 -17.161  0.00  0.00    +0.110 C 
ATOM     12  C   UNL     1      33.684 -21.397 -18.270  0.00  0.00    +0.030 C 
ATOM     13  C   UNL     1      36.450 -20.893 -17.800  0.00  0.00    +0.031 C 
ATOM     14  C   UNL     1      33.609 -22.804 -16.194  0.00  0.00    +0.208 C 
ATOM     15  C   UNL     1      35.556 -23.059 -14.950  0.00  0.00    +0.248 C 
ATOM     16  H   UNL     1      33.262 -19.894 -20.711  0.00  0.00    +0.150 HD
ATOM     17  H   UNL     1      37.220 -19.192 -20.007  0.00  0.00    +0.150 HD
ATOM     18  H   UNL     1      37.259 -22.117 -15.607  0.00  0.00    +0.156 HD
ATOM     19  H   UNL     1      37.230 -23.330 -13.798  0.00  0.00    +0.146 HD
ATOM     20  H   UNL     1      35.836 -24.126 -13.222  0.00  0.00    +0.146 HD
ENDROOT
BRANCH   9  21
ATOM     21  N   UNL     1      35.213 -18.562 -21.838  0.00  0.00    -0.263 NA
ATOM     22  H   UNL     1      34.526 -18.803 -22.502  0.00  0.00    +0.127 HD
BRANCH  21  23
ATOM     23  C   UNL     1      36.083 -17.440 -22.142  0.00  0.00    +0.098 C 
BRANCH  23  24
ATOM     24  C   UNL     1      35.392 -16.140 -21.839  0.00  0.00    -0.006 C 
ATOM     25  C   UNL     1      34.793 -15.363 -22.843  0.00  0.00    -0.003 C 
ATOM     26  C   UNL     1      34.158 -14.147 -22.492  0.00  0.00    -0.000 C 
ATOM     27  C   UNL     1      35.367 -15.724 -20.507  0.00  0.00    -0.003 C 
ATOM     28  C   UNL     1      34.809 -15.765 -24.188  0.00  0.00    -0.000 C 
ATOM     29  C   UNL     1      34.143 -13.744 -21.146  0.00  0.00    -0.000 C 
ATOM     30  C   UNL     1      34.744 -14.529 -20.161  0.00  0.00    -0.000 C 
ATOM     31  C   UNL     1      33.559 -13.371 -23.496  0.00  0.00    -0.000 C 
ATOM     32  C   UNL     1      34.208 -14.980 -25.173  0.00  0.00    -0.000 C 
ATOM     33  C   UNL     1      33.584 -13.785 -24.827  0.00  0.00    -0.000 C 
ENDBRANCH  23  24
ENDBRANCH  21  23
ENDBRANCH   9  21
TORSDOF 3
ENDMDL
MODEL 6
REMARK VINA RESULT:     -12.1      3.220      5.625
REMARK  Name = 16750097
REMARK  3 active torsions:
REMARK  status: ('A' for Active; 'I' for Inactive)
REMARK    1  A    between atoms: N_3  and  C_10
REMARK    2  A    between atoms: N_3  and  C_23
REMARK    3  A    between atoms: C_23  and  C_24
REMARK                            x       y       z     vdW  Elec       q    Type
REMARK                         _______ _______ _______ _____ _____    ______ ____
ROOT
ATOM      1  O   UNL     1      38.126 -18.402 -20.657  0.00  0.00    -0.209 OA
ATOM      2  N   UNL     1      35.675 -21.675 -17.357  0.00  0.00    -0.305 N 
ATOM      3  N   UNL     1      33.544 -21.784 -17.974  0.00  0.00    -0.305 N 
ATOM      4  N   UNL     1      34.272 -18.637 -21.724  0.00  0.00    -0.275 N 
ATOM      5  N   UNL     1      36.452 -17.751 -22.078  0.00  0.00    -0.302 NA
ATOM      6  N   UNL     1      34.643 -17.175 -23.451  0.00  0.00    -0.320 N 
ATOM      7  C   UNL     1      35.566 -20.849 -18.447  0.00  0.00    +0.061 C 
ATOM      8  C   UNL     1      34.227 -20.935 -18.814  0.00  0.00    +0.061 C 
ATOM      9  C   UNL     1      34.441 -22.210 -17.113  0.00  0.00    +0.208 C 
ATOM     10  C   UNL     1      34.680 -19.391 -20.619  0.00  0.00    +0.064 C 
ATOM     11  C   UNL     1      36.023 -19.332 -20.219  0.00  0.00    +0.110 C 
ATOM     12  C   UNL     1      36.501 -20.061 -19.120  0.00  0.00    +0.030 C 
ATOM     13  C   UNL     1      33.768 -20.197 -19.917  0.00  0.00    +0.031 C 
ATOM     14  C   UNL     1      36.948 -18.460 -20.999  0.00  0.00    +0.208 C 
ATOM     15  C   UNL     1      35.187 -17.857 -22.392  0.00  0.00    +0.248 C 
ATOM     16  H   UNL     1      36.495 -21.852 -16.842  0.00  0.00    +0.150 HD
ATOM     17  H   UNL     1      32.589 -22.021 -18.010  0.00  0.00    +0.150 HD
ATOM     18  H   UNL     1      33.335 -18.664 -22.022  0.00  0.00    +0.156 HD
ATOM     19  H   UNL     1      33.687 -17.276 -23.662  0.00  0.00    +0.146 HD
ATOM     20  H   UNL     1      35.209 -16.585 -24.000  0.00  0.00    +0.146 HD
ENDROOT
BRANCH   9  21
ATOM     21  N   UNL     1      34.306 -23.062 -16.074  0.00  0.00    -0.263 NA
ATOM     22  H   UNL     1      33.824 -23.906 -16.234  0.00  0.00    +0.127 HD
BRANCH  21  23
ATOM     23  C   UNL     1      34.822 -22.821 -14.739  0.00  0.00    +0.098 C 
BRANCH  23  24
ATOM     24  C   UNL     1      35.831 -23.871 -14.365  0.00  0.00    -0.006 C 
ATOM     25  C   UNL     1      36.744 -23.687 -13.315  0.00  0.00    -0.003 C 
ATOM     26  C   UNL     1      37.669 -24.714 -13.013  0.00  0.00    -0.000 C 
ATOM     27  C   UNL     1      35.830 -25.053 -15.108  0.00  0.00    -0.003 C 
ATOM     28  C   UNL     1      36.760 -22.504 -12.557  0.00  0.00    -0.000 C 
ATOM     29  C   UNL     1      37.654 -25.896 -13.772  0.00  0.00    -0.000 C 
ATOM     30  C   UNL     1      36.739 -26.063 -14.812  0.00  0.00    -0.000 C 
ATOM     31  C   UNL     1      38.582 -24.530 -11.963  0.00  0.00    -0.000 C 
ATOM     32  C   UNL     1      37.675 -22.338 -11.517  0.00  0.00    -0.000 C 
ATOM     33  C   UNL     1      38.584 -23.349 -11.220  0.00  0.00    -0.000 C 
ENDBRANCH  23  24
ENDBRANCH  21  23
ENDBRANCH   9  21
TORSDOF 3
ENDMDL
MODEL 7
REMARK VINA RESULT:     -11.9      4.458      9.691
REMARK  Name = 16750097
REMARK  3 active torsions:
REMARK  status: ('A' for Active; 'I' for Inactive)
REMARK    1  A    between atoms: N_3  and  C_10
REMARK    2  A    between atoms: N_3  and  C_23
REMARK    3  A    between atoms: C_23  and  C_24
REMARK                            x       y       z     vdW  Elec       q    Type
REMARK                         _______ _______ _______ _____ _____    ______ ____
ROOT
ATOM      1  O   UNL     1      34.226 -17.263 -25.140  0.00  0.00    -0.209 OA
ATOM      2  N   UNL     1      33.907 -12.077 -24.356  0.00  0.00    -0.305 N 
ATOM      3  N   UNL     1      34.564 -11.668 -22.274  0.00  0.00    -0.305 N 
ATOM      4  N   UNL     1      35.401 -16.466 -21.396  0.00  0.00    -0.275 N 
ATOM      5  N   UNL     1      34.992 -18.044 -23.129  0.00  0.00    -0.302 NA
ATOM      6  N   UNL     1      35.777 -18.697 -21.020  0.00  0.00    -0.320 N 
ATOM      7  C   UNL     1      34.224 -13.301 -23.825  0.00  0.00    +0.061 C 
ATOM      8  C   UNL     1      34.632 -13.019 -22.525  0.00  0.00    +0.061 C 
ATOM      9  C   UNL     1      34.126 -11.133 -23.392  0.00  0.00    +0.208 C 
ATOM     10  C   UNL     1      35.011 -15.384 -22.190  0.00  0.00    +0.064 C 
ATOM     11  C   UNL     1      34.594 -15.628 -23.507  0.00  0.00    +0.110 C 
ATOM     12  C   UNL     1      34.189 -14.590 -24.359  0.00  0.00    +0.030 C 
ATOM     13  C   UNL     1      35.034 -14.072 -21.687  0.00  0.00    +0.031 C 
ATOM     14  C   UNL     1      34.589 -17.039 -23.989  0.00  0.00    +0.208 C 
ATOM     15  C   UNL     1      35.369 -17.740 -21.915  0.00  0.00    +0.248 C 
ATOM     16  H   UNL     1      33.580 -11.907 -25.269  0.00  0.00    +0.150 HD
ATOM     17  H   UNL     1      34.794 -11.202 -21.437  0.00  0.00    +0.150 HD
ATOM     18  H   UNL     1      35.698 -16.318 -20.469  0.00  0.00    +0.156 HD
ATOM     19  H   UNL     1      36.054 -18.436 -20.113  0.00  0.00    +0.146 HD
ATOM     20  H   UNL     1      35.793 -19.645 -21.287  0.00  0.00    +0.146 HD
ENDROOT
BRANCH   9  21
ATOM     21  N   UNL     1      33.878  -9.840 -23.692  0.00  0.00    -0.263 NA
ATOM     22  H   UNL     1      34.577  -9.338 -24.171  0.00  0.00    +0.127 HD
BRANCH  21  23
ATOM     23  C   UNL     1      32.651  -9.138 -23.358  0.00  0.00    +0.098 C 
BRANCH  23  24
ATOM     24  C   UNL     1      32.743  -8.539 -21.982  0.00  0.00    -0.006 C 
ATOM     25  C   UNL     1      32.184  -9.167 -20.858  0.00  0.00    -0.003 C 
ATOM     26  C   UNL     1      32.305  -8.551 -19.589  0.00  0.00    -0.000 C 
ATOM     27  C   UNL     1      33.413  -7.321 -21.858  0.00  0.00    -0.003 C 
ATOM     28  C   UNL     1      31.506 -10.392 -20.964  0.00  0.00    -0.000 C 
ATOM     29  C   UNL     1      32.982  -7.325 -19.483  0.00  0.00    -0.000 C 
ATOM     30  C   UNL     1      33.532  -6.716 -20.611  0.00  0.00    -0.000 C 
ATOM     31  C   UNL     1      31.745  -9.179 -18.465  0.00  0.00    -0.000 C 
ATOM     32  C   UNL     1      30.955 -11.002 -19.836  0.00  0.00    -0.000 C 
ATOM     33  C   UNL     1      31.075 -10.396 -18.589  0.00  0.00    -0.000 C 
ENDBRANCH  23  24
ENDBRANCH  21  23
ENDBRANCH   9  21
TORSDOF 3
ENDMDL
MODEL 8
REMARK VINA RESULT:     -11.8      3.756      9.801
REMARK  Name = 16750097
REMARK  3 active torsions:
REMARK  status: ('A' for Active; 'I' for Inactive)
REMARK    1  A    between atoms: N_3  and  C_10
REMARK    2  A    between atoms: N_3  and  C_23
REMARK    3  A    between atoms: C_23  and  C_24
REMARK                            x       y       z     vdW  Elec       q    Type
REMARK                         _______ _______ _______ _____ _____    ______ ____
ROOT
ATOM      1  O   UNL     1      33.160 -23.593 -15.223  0.00  0.00    -0.209 OA
ATOM      2  N   UNL     1      34.768 -20.664 -19.278  0.00  0.00    -0.305 N 
ATOM      3  N   UNL     1      36.873 -20.069 -18.888  0.00  0.00    -0.305 N 
ATOM      4  N   UNL     1      36.955 -22.491 -14.572  0.00  0.00    -0.275 N 
ATOM      5  N   UNL     1      35.002 -23.650 -13.863  0.00  0.00    -0.302 NA
ATOM      6  N   UNL     1      36.960 -23.621 -12.577  0.00  0.00    -0.320 N 
ATOM      7  C   UNL     1      35.090 -21.226 -18.069  0.00  0.00    +0.061 C 
ATOM      8  C   UNL     1      36.408 -20.841 -17.848  0.00  0.00    +0.061 C 
ATOM      9  C   UNL     1      35.865 -19.983 -19.727  0.00  0.00    +0.208 C 
ATOM     10  C   UNL     1      36.353 -22.052 -15.755  0.00  0.00    +0.064 C 
ATOM     11  C   UNL     1      35.025 -22.421 -16.014  0.00  0.00    +0.110 C 
ATOM     12  C   UNL     1      34.358 -22.016 -17.180  0.00  0.00    +0.030 C 
ATOM     13  C   UNL     1      37.059 -21.257 -16.674  0.00  0.00    +0.031 C 
ATOM     14  C   UNL     1      34.323 -23.265 -15.005  0.00  0.00    +0.208 C 
ATOM     15  C   UNL     1      36.241 -23.269 -13.691  0.00  0.00    +0.248 C 
ATOM     16  H   UNL     1      33.903 -20.737 -19.741  0.00  0.00    +0.150 HD
ATOM     17  H   UNL     1      37.767 -19.668 -18.983  0.00  0.00    +0.150 HD
ATOM     18  H   UNL     1      37.887 -22.244 -14.371  0.00  0.00    +0.156 HD
ATOM     19  H   UNL     1      37.891 -23.317 -12.476  0.00  0.00    +0.146 HD
ATOM     20  H   UNL     1      36.545 -24.177 -11.879  0.00  0.00    +0.146 HD
ENDROOT
BRANCH   9  21
ATOM     21  N   UNL     1      35.780 -19.341 -20.912  0.00  0.00    -0.263 NA
ATOM     22  H   UNL     1      35.698 -19.890 -21.726  0.00  0.00    +0.127 HD
BRANCH  21  23
ATOM     23  C   UNL     1      35.801 -17.898 -21.070  0.00  0.00    +0.098 C 
BRANCH  23  24
ATOM     24  C   UNL     1      35.185 -17.502 -22.384  0.00  0.00    -0.006 C 
ATOM     25  C   UNL     1      34.891 -16.165 -22.696  0.00  0.00    -0.003 C 
ATOM     26  C   UNL     1      34.311 -15.858 -23.950  0.00  0.00    -0.000 C 
ATOM     27  C   UNL     1      34.909 -18.522 -23.295  0.00  0.00    -0.003 C 
ATOM     28  C   UNL     1      35.161 -15.125 -21.791  0.00  0.00    -0.000 C 
ATOM     29  C   UNL     1      34.041 -16.898 -24.855  0.00  0.00    -0.000 C 
ATOM     30  C   UNL     1      34.340 -18.221 -24.528  0.00  0.00    -0.000 C 
ATOM     31  C   UNL     1      34.018 -14.521 -24.262  0.00  0.00    -0.000 C 
ATOM     32  C   UNL     1      34.862 -13.802 -22.118  0.00  0.00    -0.000 C 
ATOM     33  C   UNL     1      34.292 -13.500 -23.352  0.00  0.00    -0.000 C 
ENDBRANCH  23  24
ENDBRANCH  21  23
ENDBRANCH   9  21
TORSDOF 3
ENDMDL
MODEL 9
REMARK VINA RESULT:     -11.8      2.960      4.698
REMARK  Name = 16750097
REMARK  3 active torsions:
REMARK  status: ('A' for Active; 'I' for Inactive)
REMARK    1  A    between atoms: N_3  and  C_10
REMARK    2  A    between atoms: N_3  and  C_23
REMARK    3  A    between atoms: C_23  and  C_24
REMARK                            x       y       z     vdW  Elec       q    Type
REMARK                         _______ _______ _______ _____ _____    ______ ____
ROOT
ATOM      1  O   UNL     1      31.563 -11.157 -18.763  0.00  0.00    -0.209 OA
ATOM      2  N   UNL     1      34.393 -14.831 -21.232  0.00  0.00    -0.305 N 
ATOM      3  N   UNL     1      34.993 -14.007 -23.207  0.00  0.00    -0.305 N 
ATOM      4  N   UNL     1      32.673  -9.723 -22.334  0.00  0.00    -0.275 N 
ATOM      5  N   UNL     1      31.533  -9.429 -20.267  0.00  0.00    -0.302 NA
ATOM      6  N   UNL     1      31.587  -7.751 -21.900  0.00  0.00    -0.320 N 
ATOM      7  C   UNL     1      33.858 -13.569 -21.281  0.00  0.00    +0.061 C 
ATOM      8  C   UNL     1      34.247 -13.076 -22.522  0.00  0.00    +0.061 C 
ATOM      9  C   UNL     1      35.061 -15.047 -22.406  0.00  0.00    +0.208 C 
ATOM     10  C   UNL     1      33.086 -11.018 -22.006  0.00  0.00    +0.064 C 
ATOM     11  C   UNL     1      32.714 -11.550 -20.762  0.00  0.00    +0.110 C 
ATOM     12  C   UNL     1      33.091 -12.842 -20.368  0.00  0.00    +0.030 C 
ATOM     13  C   UNL     1      33.859 -11.779 -22.899  0.00  0.00    +0.031 C 
ATOM     14  C   UNL     1      31.893 -10.700 -19.854  0.00  0.00    +0.208 C 
ATOM     15  C   UNL     1      31.917  -9.001 -21.441  0.00  0.00    +0.248 C 
ATOM     16  H   UNL     1      34.311 -15.469 -20.487  0.00  0.00    +0.150 HD
ATOM     17  H   UNL     1      35.390 -13.915 -24.103  0.00  0.00    +0.150 HD
ATOM     18  H   UNL     1      32.923  -9.330 -23.201  0.00  0.00    +0.156 HD
ATOM     19  H   UNL     1      31.892  -7.457 -22.789  0.00  0.00    +0.146 HD
ATOM     20  H   UNL     1      31.046  -7.148 -21.341  0.00  0.00    +0.146 HD
ENDROOT
BRANCH   9  21
ATOM     21  N   UNL     1      35.674 -16.237 -22.585  0.00  0.00    -0.263 NA
ATOM     22  H   UNL     1      36.633 -16.230 -22.808  0.00  0.00    +0.127 HD
BRANCH  21  23
ATOM     23  C   UNL     1      35.016 -17.527 -22.470  0.00  0.00    +0.098 C 
BRANCH  23  24
ATOM     24  C   UNL     1      35.656 -18.351 -21.387  0.00  0.00    -0.006 C 
ATOM     25  C   UNL     1      34.910 -19.216 -20.571  0.00  0.00    -0.003 C 
ATOM     26  C   UNL     1      35.572 -19.965 -19.568  0.00  0.00    -0.000 C 
ATOM     27  C   UNL     1      37.035 -18.223 -21.215  0.00  0.00    -0.003 C 
ATOM     28  C   UNL     1      33.522 -19.357 -20.728  0.00  0.00    -0.000 C 
ATOM     29  C   UNL     1      36.960 -19.823 -19.410  0.00  0.00    -0.000 C 
ATOM     30  C   UNL     1      37.686 -18.958 -20.230  0.00  0.00    -0.000 C 
ATOM     31  C   UNL     1      34.826 -20.831 -18.753  0.00  0.00    -0.000 C 
ATOM     32  C   UNL     1      32.796 -20.222 -19.908  0.00  0.00    -0.000 C 
ATOM     33  C   UNL     1      33.447 -20.958 -18.923  0.00  0.00    -0.000 C 
ENDBRANCH  23  24
ENDBRANCH  21  23
ENDBRANCH   9  21
TORSDOF 3
ENDMDL
