MODEL 1
REMARK VINA RESULT:     -10.7      0.000      0.000
REMARK  Name = 24894149
REMARK  3 active torsions:
REMARK  status: ('A' for Active; 'I' for Inactive)
REMARK    1  A    between atoms: C_15  and  C_23
REMARK    2  A    between atoms: C_28  and  C_29
REMARK    3  A    between atoms: C_29  and  N_30
REMARK                            x       y       z     vdW  Elec       q    Type
REMARK                         _______ _______ _______ _____ _____    ______ ____
ROOT
ATOM      1  F   UNL     1      35.008 -16.604 -25.288  0.00  0.00    -0.204 F 
ATOM      2  O   UNL     1      37.348 -21.516 -17.376  0.00  0.00    -0.270 OA
ATOM      3  N   UNL     1      35.777 -20.738 -18.925  0.00  0.00    -0.276 N 
ATOM      4  N   UNL     1      34.874 -16.975 -20.486  0.00  0.00    -0.318 N 
ATOM      5  N   UNL     1      34.925 -19.053 -21.885  0.00  0.00    -0.242 NA
ATOM      6  N   UNL     1      34.718 -18.953 -24.177  0.00  0.00    -0.343 N 
ATOM      7  C   UNL     1      35.090 -18.411 -20.572  0.00  0.00    +0.145 C 
ATOM      8  C   UNL     1      36.532 -18.702 -20.087  0.00  0.00    +0.063 C 
ATOM      9  C   UNL     1      34.082 -19.084 -19.610  0.00  0.00    +0.063 C 
ATOM     10  C   UNL     1      36.781 -20.188 -19.834  0.00  0.00    +0.097 C 
ATOM     11  C   UNL     1      34.388 -20.562 -19.361  0.00  0.00    +0.097 C 
ATOM     12  C   UNL     1      34.918 -16.224 -21.646  0.00  0.00    +0.051 C 
ATOM     13  C   UNL     1      34.862 -18.328 -22.960  0.00  0.00    +0.125 C 
ATOM     14  C   UNL     1      34.928 -16.835 -22.906  0.00  0.00    +0.071 C 
ATOM     15  C   UNL     1      36.185 -21.366 -17.746  0.00  0.00    +0.249 C 
ATOM     16  C   UNL     1      34.926 -14.823 -21.571  0.00  0.00    +0.015 C 
ATOM     17  C   UNL     1      34.980 -16.051 -24.067  0.00  0.00    +0.144 C 
ATOM     18  C   UNL     1      34.972 -14.045 -22.727  0.00  0.00    +0.004 C 
ATOM     19  C   UNL     1      35.004 -14.659 -23.974  0.00  0.00    +0.030 C 
ATOM     20  H   UNL     1      34.700 -16.547 -19.618  0.00  0.00    +0.148 HD
ATOM     21  H   UNL     1      34.674 -19.936 -24.225  0.00  0.00    +0.144 HD
ATOM     22  H   UNL     1      34.659 -18.418 -25.003  0.00  0.00    +0.144 HD
ENDROOT
BRANCH  15  23
ATOM     23  C   UNL     1      35.149 -21.905 -16.856  0.00  0.00    +0.054 C 
ATOM     24  C   UNL     1      35.453 -22.188 -15.524  0.00  0.00    +0.004 C 
ATOM     25  C   UNL     1      33.861 -22.132 -17.341  0.00  0.00    +0.004 C 
ATOM     26  C   UNL     1      34.469 -22.700 -14.678  0.00  0.00    -0.006 C 
ATOM     27  C   UNL     1      32.877 -22.642 -16.495  0.00  0.00    -0.006 C 
ATOM     28  C   UNL     1      33.181 -22.926 -15.163  0.00  0.00    -0.044 C 
BRANCH  28  29
ATOM     29  C   UNL     1      32.128 -23.473 -14.260  0.00  0.00    -0.059 C 
BRANCH  29  30
ATOM     30  N   UNL     1      32.657 -24.463 -13.321  0.00  0.00    +0.383 N 
ATOM     31  H   UNL     1      33.034 -25.256 -13.839  0.00  0.00    -0.089 HD
ATOM     32  H   UNL     1      31.908 -24.783 -12.707  0.00  0.00    -0.089 HD
ATOM     33  H   UNL     1      33.397 -24.040 -12.761  0.00  0.00    -0.089 HD
ENDBRANCH  29  30
ENDBRANCH  28  29
ENDBRANCH  15  23
TORSDOF 3
ENDMDL
MODEL 2
REMARK VINA RESULT:     -10.2      4.916      8.127
REMARK  Name = 24894149
REMARK  3 active torsions:
REMARK  status: ('A' for Active; 'I' for Inactive)
REMARK    1  A    between atoms: C_15  and  C_23
REMARK    2  A    between atoms: C_28  and  C_29
REMARK    3  A    between atoms: C_29  and  N_30
REMARK                            x       y       z     vdW  Elec       q    Type
REMARK                         _______ _______ _______ _____ _____    ______ ____
ROOT
ATOM      1  F   UNL     1      31.465  -7.496 -22.507  0.00  0.00    -0.204 F 
ATOM      2  O   UNL     1      34.123 -16.336 -25.153  0.00  0.00    -0.270 OA
ATOM      3  N   UNL     1      33.821 -14.677 -23.531  0.00  0.00    -0.276 N 
ATOM      4  N   UNL     1      35.003 -10.688 -23.219  0.00  0.00    -0.318 N 
ATOM      5  N   UNL     1      32.734 -11.492 -22.528  0.00  0.00    -0.242 NA
ATOM      6  N   UNL     1      31.079 -10.013 -21.912  0.00  0.00    -0.343 N 
ATOM      7  C   UNL     1      34.063 -11.789 -23.084  0.00  0.00    +0.145 C 
ATOM      8  C   UNL     1      33.856 -12.409 -24.489  0.00  0.00    +0.063 C 
ATOM      9  C   UNL     1      34.718 -12.839 -22.154  0.00  0.00    +0.063 C 
ATOM     10  C   UNL     1      33.139 -13.757 -24.439  0.00  0.00    +0.097 C 
ATOM     11  C   UNL     1      33.986 -14.182 -22.160  0.00  0.00    +0.097 C 
ATOM     12  C   UNL     1      34.520  -9.393 -23.208  0.00  0.00    +0.051 C 
ATOM     13  C   UNL     1      32.331 -10.263 -22.425  0.00  0.00    +0.125 C 
ATOM     14  C   UNL     1      33.198  -9.116 -22.836  0.00  0.00    +0.071 C 
ATOM     15  C   UNL     1      34.259 -15.916 -24.005  0.00  0.00    +0.249 C 
ATOM     16  C   UNL     1      35.367  -8.327 -23.547  0.00  0.00    +0.015 C 
ATOM     17  C   UNL     1      32.729  -7.794 -22.840  0.00  0.00    +0.144 C 
ATOM     18  C   UNL     1      34.901  -7.013 -23.543  0.00  0.00    +0.004 C 
ATOM     19  C   UNL     1      33.581  -6.748 -23.195  0.00  0.00    +0.030 C 
ATOM     20  H   UNL     1      35.967 -10.862 -23.316  0.00  0.00    +0.148 HD
ATOM     21  H   UNL     1      30.500 -10.761 -21.639  0.00  0.00    +0.144 HD
ATOM     22  H   UNL     1      30.761  -9.085 -21.818  0.00  0.00    +0.144 HD
ENDROOT
BRANCH  15  23
ATOM     23  C   UNL     1      34.942 -16.814 -23.066  0.00  0.00    +0.054 C 
ATOM     24  C   UNL     1      35.977 -16.329 -22.266  0.00  0.00    +0.004 C 
ATOM     25  C   UNL     1      34.555 -18.151 -22.971  0.00  0.00    +0.004 C 
ATOM     26  C   UNL     1      36.626 -17.183 -21.373  0.00  0.00    -0.006 C 
ATOM     27  C   UNL     1      35.203 -19.003 -22.078  0.00  0.00    -0.006 C 
ATOM     28  C   UNL     1      36.238 -18.519 -21.278  0.00  0.00    -0.044 C 
BRANCH  28  29
ATOM     29  C   UNL     1      36.931 -19.432 -20.324  0.00  0.00    -0.059 C 
BRANCH  29  30
ATOM     30  N   UNL     1      36.077 -19.818 -19.200  0.00  0.00    +0.383 N 
ATOM     31  H   UNL     1      36.591 -20.445 -18.582  0.00  0.00    -0.089 HD
ATOM     32  H   UNL     1      35.246 -20.293 -19.553  0.00  0.00    -0.089 HD
ATOM     33  H   UNL     1      35.797 -18.984 -18.683  0.00  0.00    -0.089 HD
ENDBRANCH  29  30
ENDBRANCH  28  29
ENDBRANCH  15  23
TORSDOF 3
ENDMDL
MODEL 3
REMARK VINA RESULT:      -9.8      4.025      9.542
REMARK  Name = 24894149
REMARK  3 active torsions:
REMARK  status: ('A' for Active; 'I' for Inactive)
REMARK    1  A    between atoms: C_15  and  C_23
REMARK    2  A    between atoms: C_28  and  C_29
REMARK    3  A    between atoms: C_29  and  N_30
REMARK                            x       y       z     vdW  Elec       q    Type
REMARK                         _______ _______ _______ _____ _____    ______ ____
ROOT
ATOM      1  F   UNL     1      37.825 -20.792 -19.836  0.00  0.00    -0.204 F 
ATOM      2  O   UNL     1      33.705 -14.136 -25.397  0.00  0.00    -0.270 OA
ATOM      3  N   UNL     1      34.770 -14.793 -23.420  0.00  0.00    -0.276 N 
ATOM      4  N   UNL     1      34.104 -17.842 -20.652  0.00  0.00    -0.318 N 
ATOM      5  N   UNL     1      36.393 -17.188 -21.430  0.00  0.00    -0.242 NA
ATOM      6  N   UNL     1      38.251 -18.415 -20.840  0.00  0.00    -0.343 N 
ATOM      7  C   UNL     1      34.936 -16.992 -21.487  0.00  0.00    +0.145 C 
ATOM      8  C   UNL     1      34.494 -17.196 -22.958  0.00  0.00    +0.063 C 
ATOM      9  C   UNL     1      34.661 -15.528 -21.069  0.00  0.00    +0.063 C 
ATOM     10  C   UNL     1      35.071 -16.140 -23.900  0.00  0.00    +0.097 C 
ATOM     11  C   UNL     1      35.229 -14.506 -22.056  0.00  0.00    +0.097 C 
ATOM     12  C   UNL     1      34.635 -19.020 -20.160  0.00  0.00    +0.051 C 
ATOM     13  C   UNL     1      36.885 -18.251 -20.871  0.00  0.00    +0.125 C 
ATOM     14  C   UNL     1      36.007 -19.290 -20.250  0.00  0.00    +0.071 C 
ATOM     15  C   UNL     1      34.091 -13.900 -24.252  0.00  0.00    +0.249 C 
ATOM     16  C   UNL     1      33.799 -19.957 -19.534  0.00  0.00    +0.015 C 
ATOM     17  C   UNL     1      36.521 -20.495 -19.750  0.00  0.00    +0.144 C 
ATOM     18  C   UNL     1      34.313 -21.152 -19.032  0.00  0.00    +0.004 C 
ATOM     19  C   UNL     1      35.672 -21.422 -19.145  0.00  0.00    +0.030 C 
ATOM     20  H   UNL     1      33.178 -17.584 -20.440  0.00  0.00    +0.148 HD
ATOM     21  H   UNL     1      38.839 -17.738 -21.246  0.00  0.00    +0.144 HD
ATOM     22  H   UNL     1      38.642 -19.212 -20.411  0.00  0.00    +0.144 HD
ENDROOT
BRANCH  15  23
ATOM     23  C   UNL     1      33.804 -12.556 -23.737  0.00  0.00    +0.054 C 
ATOM     24  C   UNL     1      33.124 -12.403 -22.529  0.00  0.00    +0.004 C 
ATOM     25  C   UNL     1      34.212 -11.432 -24.455  0.00  0.00    +0.004 C 
ATOM     26  C   UNL     1      32.851 -11.126 -22.039  0.00  0.00    -0.006 C 
ATOM     27  C   UNL     1      33.940 -10.155 -23.965  0.00  0.00    -0.006 C 
ATOM     28  C   UNL     1      33.260 -10.002 -22.756  0.00  0.00    -0.044 C 
BRANCH  28  29
ATOM     29  C   UNL     1      32.970  -8.636 -22.234  0.00  0.00    -0.059 C 
BRANCH  29  30
ATOM     30  N   UNL     1      34.113  -7.733 -22.365  0.00  0.00    +0.383 N 
ATOM     31  H   UNL     1      34.959  -8.207 -22.050  0.00  0.00    -0.089 HD
ATOM     32  H   UNL     1      33.957  -6.901 -21.795  0.00  0.00    -0.089 HD
ATOM     33  H   UNL     1      34.220  -7.459 -23.342  0.00  0.00    -0.089 HD
ENDBRANCH  29  30
ENDBRANCH  28  29
ENDBRANCH  15  23
TORSDOF 3
ENDMDL
MODEL 4
REMARK VINA RESULT:      -9.8      4.020      9.370
REMARK  Name = 24894149
REMARK  3 active torsions:
REMARK  status: ('A' for Active; 'I' for Inactive)
REMARK    1  A    between atoms: C_15  and  C_23
REMARK    2  A    between atoms: C_28  and  C_29
REMARK    3  A    between atoms: C_29  and  N_30
REMARK                            x       y       z     vdW  Elec       q    Type
REMARK                         _______ _______ _______ _____ _____    ______ ____
ROOT
ATOM      1  F   UNL     1      37.921 -20.836 -19.875  0.00  0.00    -0.204 F 
ATOM      2  O   UNL     1      33.685 -14.104 -25.256  0.00  0.00    -0.270 OA
ATOM      3  N   UNL     1      34.757 -14.798 -23.295  0.00  0.00    -0.276 N 
ATOM      4  N   UNL     1      34.143 -17.941 -20.620  0.00  0.00    -0.318 N 
ATOM      5  N   UNL     1      36.421 -17.217 -21.369  0.00  0.00    -0.242 NA
ATOM      6  N   UNL     1      38.302 -18.423 -20.808  0.00  0.00    -0.343 N 
ATOM      7  C   UNL     1      34.961 -17.049 -21.427  0.00  0.00    +0.145 C 
ATOM      8  C   UNL     1      34.528 -17.219 -22.905  0.00  0.00    +0.063 C 
ATOM      9  C   UNL     1      34.654 -15.604 -20.967  0.00  0.00    +0.063 C 
ATOM     10  C   UNL     1      35.087 -16.124 -23.813  0.00  0.00    +0.097 C 
ATOM     11  C   UNL     1      35.204 -14.542 -21.921  0.00  0.00    +0.097 C 
ATOM     12  C   UNL     1      34.697 -19.121 -20.161  0.00  0.00    +0.051 C 
ATOM     13  C   UNL     1      36.933 -18.285 -20.840  0.00  0.00    +0.125 C 
ATOM     14  C   UNL     1      36.074 -19.360 -20.253  0.00  0.00    +0.071 C 
ATOM     15  C   UNL     1      34.062 -13.895 -24.103  0.00  0.00    +0.249 C 
ATOM     16  C   UNL     1      33.877 -20.093 -19.566  0.00  0.00    +0.015 C 
ATOM     17  C   UNL     1      36.610 -20.569 -19.787  0.00  0.00    +0.144 C 
ATOM     18  C   UNL     1      34.414 -21.291 -19.097  0.00  0.00    +0.004 C 
ATOM     19  C   UNL     1      35.779 -21.530 -19.213  0.00  0.00    +0.030 C 
ATOM     20  H   UNL     1      33.212 -17.707 -20.405  0.00  0.00    +0.148 HD
ATOM     21  H   UNL     1      38.877 -17.722 -21.191  0.00  0.00    +0.144 HD
ATOM     22  H   UNL     1      38.707 -19.224 -20.401  0.00  0.00    +0.144 HD
ENDROOT
BRANCH  15  23
ATOM     23  C   UNL     1      33.746 -12.573 -23.550  0.00  0.00    +0.054 C 
ATOM     24  C   UNL     1      34.194 -11.421 -24.197  0.00  0.00    +0.004 C 
ATOM     25  C   UNL     1      32.995 -12.468 -22.379  0.00  0.00    +0.004 C 
ATOM     26  C   UNL     1      33.893 -10.164 -23.671  0.00  0.00    -0.006 C 
ATOM     27  C   UNL     1      32.694 -11.211 -21.854  0.00  0.00    -0.006 C 
ATOM     28  C   UNL     1      33.142 -10.059 -22.501  0.00  0.00    -0.044 C 
BRANCH  28  29
ATOM     29  C   UNL     1      32.820  -8.717 -21.938  0.00  0.00    -0.059 C 
BRANCH  29  30
ATOM     30  N   UNL     1      31.944  -8.797 -20.768  0.00  0.00    +0.383 N 
ATOM     31  H   UNL     1      32.045  -7.950 -20.209  0.00  0.00    -0.089 HD
ATOM     32  H   UNL     1      32.202  -9.608 -20.206  0.00  0.00    -0.089 HD
ATOM     33  H   UNL     1      30.976  -8.890 -21.074  0.00  0.00    -0.089 HD
ENDBRANCH  29  30
ENDBRANCH  28  29
ENDBRANCH  15  23
TORSDOF 3
ENDMDL
MODEL 5
REMARK VINA RESULT:      -8.4      1.706      2.461
REMARK  Name = 24894149
REMARK  3 active torsions:
REMARK  status: ('A' for Active; 'I' for Inactive)
REMARK    1  A    between atoms: C_15  and  C_23
REMARK    2  A    between atoms: C_28  and  C_29
REMARK    3  A    between atoms: C_29  and  N_30
REMARK                            x       y       z     vdW  Elec       q    Type
REMARK                         _______ _______ _______ _____ _____    ______ ____
ROOT
ATOM      1  F   UNL     1      33.826 -13.921 -25.812  0.00  0.00    -0.204 F 
ATOM      2  O   UNL     1      37.988 -20.086 -19.739  0.00  0.00    -0.270 OA
ATOM      3  N   UNL     1      36.092 -19.116 -20.707  0.00  0.00    -0.276 N 
ATOM      4  N   UNL     1      34.825 -15.180 -21.270  0.00  0.00    -0.318 N 
ATOM      5  N   UNL     1      34.558 -16.958 -23.015  0.00  0.00    -0.242 NA
ATOM      6  N   UNL     1      33.819 -16.447 -25.135  0.00  0.00    -0.343 N 
ATOM      7  C   UNL     1      35.023 -16.562 -21.676  0.00  0.00    +0.145 C 
ATOM      8  C   UNL     1      36.541 -16.864 -21.599  0.00  0.00    +0.063 C 
ATOM      9  C   UNL     1      34.273 -17.452 -20.656  0.00  0.00    +0.063 C 
ATOM     10  C   UNL     1      36.851 -18.357 -21.699  0.00  0.00    +0.097 C 
ATOM     11  C   UNL     1      34.638 -18.933 -20.772  0.00  0.00    +0.097 C 
ATOM     12  C   UNL     1      34.590 -14.226 -22.242  0.00  0.00    +0.051 C 
ATOM     13  C   UNL     1      34.241 -16.051 -23.887  0.00  0.00    +0.125 C 
ATOM     14  C   UNL     1      34.308 -14.592 -23.564  0.00  0.00    +0.071 C 
ATOM     15  C   UNL     1      36.769 -19.929 -19.796  0.00  0.00    +0.249 C 
ATOM     16  C   UNL     1      34.607 -12.864 -21.904  0.00  0.00    +0.015 C 
ATOM     17  C   UNL     1      34.082 -13.606 -24.534  0.00  0.00    +0.144 C 
ATOM     18  C   UNL     1      34.375 -11.885 -22.868  0.00  0.00    +0.004 C 
ATOM     19  C   UNL     1      34.118 -12.256 -24.184  0.00  0.00    +0.030 C 
ATOM     20  H   UNL     1      34.856 -14.929 -20.319  0.00  0.00    +0.148 HD
ATOM     21  H   UNL     1      33.771 -17.405 -25.359  0.00  0.00    +0.144 HD
ATOM     22  H   UNL     1      33.565 -15.772 -25.807  0.00  0.00    +0.144 HD
ENDROOT
BRANCH  15  23
ATOM     23  C   UNL     1      35.974 -20.675 -18.813  0.00  0.00    +0.054 C 
ATOM     24  C   UNL     1      36.538 -21.031 -17.587  0.00  0.00    +0.004 C 
ATOM     25  C   UNL     1      34.656 -21.027 -19.103  0.00  0.00    +0.004 C 
ATOM     26  C   UNL     1      35.782 -21.740 -16.652  0.00  0.00    -0.006 C 
ATOM     27  C   UNL     1      33.901 -21.735 -18.168  0.00  0.00    -0.006 C 
ATOM     28  C   UNL     1      34.464 -22.091 -16.942  0.00  0.00    -0.044 C 
BRANCH  28  29
ATOM     29  C   UNL     1      33.656 -22.848 -15.944  0.00  0.00    -0.059 C 
BRANCH  29  30
ATOM     30  N   UNL     1      32.219 -22.750 -16.199  0.00  0.00    +0.383 N 
ATOM     31  H   UNL     1      32.064 -22.354 -17.126  0.00  0.00    -0.089 HD
ATOM     32  H   UNL     1      31.789 -22.148 -15.496  0.00  0.00    -0.089 HD
ATOM     33  H   UNL     1      31.801 -23.679 -16.152  0.00  0.00    -0.089 HD
ENDBRANCH  29  30
ENDBRANCH  28  29
ENDBRANCH  15  23
TORSDOF 3
ENDMDL
MODEL 6
REMARK VINA RESULT:      -8.0      6.458     11.118
REMARK  Name = 24894149
REMARK  3 active torsions:
REMARK  status: ('A' for Active; 'I' for Inactive)
REMARK    1  A    between atoms: C_15  and  C_23
REMARK    2  A    between atoms: C_28  and  C_29
REMARK    3  A    between atoms: C_29  and  N_30
REMARK                            x       y       z     vdW  Elec       q    Type
REMARK                         _______ _______ _______ _____ _____    ______ ____
ROOT
ATOM      1  F   UNL     1      34.279 -17.075 -24.999  0.00  0.00    -0.204 F 
ATOM      2  O   UNL     1      30.359 -10.232 -19.521  0.00  0.00    -0.270 OA
ATOM      3  N   UNL     1      31.823 -10.930 -21.206  0.00  0.00    -0.276 N 
ATOM      4  N   UNL     1      34.776 -13.870 -21.437  0.00  0.00    -0.318 N 
ATOM      5  N   UNL     1      33.171 -13.403 -23.303  0.00  0.00    -0.242 NA
ATOM      6  N   UNL     1      33.082 -14.756 -25.166  0.00  0.00    -0.343 N 
ATOM      7  C   UNL     1      33.652 -13.100 -21.946  0.00  0.00    +0.145 C 
ATOM      8  C   UNL     1      32.463 -13.297 -20.973  0.00  0.00    +0.063 C 
ATOM      9  C   UNL     1      34.077 -11.611 -21.940  0.00  0.00    +0.063 C 
ATOM     10  C   UNL     1      31.328 -12.305 -21.220  0.00  0.00    +0.097 C 
ATOM     11  C   UNL     1      32.904 -10.654 -22.159  0.00  0.00    +0.097 C 
ATOM     12  C   UNL     1      35.087 -15.074 -22.038  0.00  0.00    +0.051 C 
ATOM     13  C   UNL     1      33.555 -14.490 -23.901  0.00  0.00    +0.125 C 
ATOM     14  C   UNL     1      34.505 -15.448 -23.256  0.00  0.00    +0.071 C 
ATOM     15  C   UNL     1      31.265 -10.005 -20.321  0.00  0.00    +0.249 C 
ATOM     16  C   UNL     1      36.021 -15.934 -21.441  0.00  0.00    +0.015 C 
ATOM     17  C   UNL     1      34.830 -16.679 -23.843  0.00  0.00    +0.144 C 
ATOM     18  C   UNL     1      36.349 -17.155 -22.029  0.00  0.00    +0.004 C 
ATOM     19  C   UNL     1      35.750 -17.529 -23.227  0.00  0.00    +0.030 C 
ATOM     20  H   UNL     1      35.305 -13.538 -20.676  0.00  0.00    +0.148 HD
ATOM     21  H   UNL     1      32.455 -14.132 -25.599  0.00  0.00    +0.144 HD
ATOM     22  H   UNL     1      33.369 -15.571 -25.638  0.00  0.00    +0.144 HD
ENDROOT
BRANCH  15  23
ATOM     23  C   UNL     1      31.788  -8.634 -20.333  0.00  0.00    +0.054 C 
ATOM     24  C   UNL     1      31.642  -7.841 -21.472  0.00  0.00    +0.004 C 
ATOM     25  C   UNL     1      32.432  -8.122 -19.206  0.00  0.00    +0.004 C 
ATOM     26  C   UNL     1      32.139  -6.538 -21.483  0.00  0.00    -0.006 C 
ATOM     27  C   UNL     1      32.928  -6.819 -19.217  0.00  0.00    -0.006 C 
ATOM     28  C   UNL     1      32.781  -6.027 -20.356  0.00  0.00    -0.044 C 
BRANCH  28  29
ATOM     29  C   UNL     1      33.313  -4.634 -20.367  0.00  0.00    -0.059 C 
BRANCH  29  30
ATOM     30  N   UNL     1      32.297  -3.651 -20.743  0.00  0.00    +0.383 N 
ATOM     31  H   UNL     1      32.278  -3.553 -21.759  0.00  0.00    -0.089 HD
ATOM     32  H   UNL     1      32.522  -2.751 -20.320  0.00  0.00    -0.089 HD
ATOM     33  H   UNL     1      31.383  -3.962 -20.414  0.00  0.00    -0.089 HD
ENDBRANCH  29  30
ENDBRANCH  28  29
ENDBRANCH  15  23
TORSDOF 3
ENDMDL
MODEL 7
REMARK VINA RESULT:      -7.9      4.495      7.534
REMARK  Name = 24894149
REMARK  3 active torsions:
REMARK  status: ('A' for Active; 'I' for Inactive)
REMARK    1  A    between atoms: C_15  and  C_23
REMARK    2  A    between atoms: C_28  and  C_29
REMARK    3  A    between atoms: C_29  and  N_30
REMARK                            x       y       z     vdW  Elec       q    Type
REMARK                         _______ _______ _______ _____ _____    ______ ____
ROOT
ATOM      1  F   UNL     1      31.987  -7.870 -22.619  0.00  0.00    -0.204 F 
ATOM      2  O   UNL     1      34.343 -16.975 -24.556  0.00  0.00    -0.270 OA
ATOM      3  N   UNL     1      34.095 -15.186 -23.069  0.00  0.00    -0.276 N 
ATOM      4  N   UNL     1      35.414 -11.227 -23.063  0.00  0.00    -0.318 N 
ATOM      5  N   UNL     1      33.117 -11.897 -22.323  0.00  0.00    -0.242 NA
ATOM      6  N   UNL     1      31.513 -10.318 -21.832  0.00  0.00    -0.343 N 
ATOM      7  C   UNL     1      34.436 -12.281 -22.848  0.00  0.00    +0.145 C 
ATOM      8  C   UNL     1      34.211 -13.001 -24.201  0.00  0.00    +0.063 C 
ATOM      9  C   UNL     1      35.052 -13.277 -21.835  0.00  0.00    +0.063 C 
ATOM     10  C   UNL     1      33.448 -14.317 -24.049  0.00  0.00    +0.097 C 
ATOM     11  C   UNL     1      34.274 -14.591 -21.740  0.00  0.00    +0.097 C 
ATOM     12  C   UNL     1      34.976  -9.919 -23.155  0.00  0.00    +0.051 C 
ATOM     13  C   UNL     1      32.757 -10.650 -22.318  0.00  0.00    +0.125 C 
ATOM     14  C   UNL     1      33.664  -9.569 -22.813  0.00  0.00    +0.071 C 
ATOM     15  C   UNL     1      34.491 -16.472 -23.443  0.00  0.00    +0.249 C 
ATOM     16  C   UNL     1      35.860  -8.913 -23.573  0.00  0.00    +0.015 C 
ATOM     17  C   UNL     1      33.241  -8.236 -22.922  0.00  0.00    +0.144 C 
ATOM     18  C   UNL     1      35.440  -7.588 -23.674  0.00  0.00    +0.004 C 
ATOM     19  C   UNL     1      34.129  -7.251 -23.354  0.00  0.00    +0.030 C 
ATOM     20  H   UNL     1      36.371 -11.441 -23.142  0.00  0.00    +0.148 HD
ATOM     21  H   UNL     1      30.908 -11.021 -21.504  0.00  0.00    +0.144 HD
ATOM     22  H   UNL     1      31.227  -9.375 -21.812  0.00  0.00    +0.144 HD
ENDROOT
BRANCH  15  23
ATOM     23  C   UNL     1      35.140 -17.317 -22.433  0.00  0.00    +0.054 C 
ATOM     24  C   UNL     1      34.365 -18.030 -21.518  0.00  0.00    +0.004 C 
ATOM     25  C   UNL     1      36.532 -17.407 -22.389  0.00  0.00    +0.004 C 
ATOM     26  C   UNL     1      34.983 -18.833 -20.559  0.00  0.00    -0.006 C 
ATOM     27  C   UNL     1      37.148 -18.211 -21.430  0.00  0.00    -0.006 C 
ATOM     28  C   UNL     1      36.374 -18.924 -20.515  0.00  0.00    -0.044 C 
BRANCH  28  29
ATOM     29  C   UNL     1      37.034 -19.782 -19.491  0.00  0.00    -0.059 C 
BRANCH  29  30
ATOM     30  N   UNL     1      36.500 -21.144 -19.474  0.00  0.00    +0.383 N 
ATOM     31  H   UNL     1      36.008 -21.328 -20.348  0.00  0.00    -0.089 HD
ATOM     32  H   UNL     1      35.853 -21.246 -18.692  0.00  0.00    -0.089 HD
ATOM     33  H   UNL     1      37.267 -21.809 -19.369  0.00  0.00    -0.089 HD
ENDBRANCH  29  30
ENDBRANCH  28  29
ENDBRANCH  15  23
TORSDOF 3
ENDMDL
