MODEL 1
REMARK VINA RESULT:     -11.6      0.000      0.000
REMARK  Name = 445459
REMARK  7 active torsions:
REMARK  status: ('A' for Active; 'I' for Inactive)
REMARK    1  A    between atoms: C_1  and  C_7
REMARK    2  A    between atoms: C_1  and  N_13
REMARK    3  A    between atoms: C_1  and  C_27
REMARK    4  A    between atoms: C_4  and  C_9
REMARK    5  A    between atoms: C_9  and  O_10
REMARK    6  A    between atoms: C_14  and  C_18
REMARK    7  A    between atoms: C_27  and  C_28
REMARK                            x       y       z     vdW  Elec       q    Type
REMARK                         _______ _______ _______ _____ _____    ______ ____
ROOT
ATOM      1  C   UNL     1      34.966 -22.165 -15.402  0.00  0.00    +0.153 C 
ENDROOT
BRANCH   1   7
ATOM      2  O   UNL     1      37.276 -22.634 -15.798  0.00  0.00    -0.273 OA
ATOM      3  N   UNL     1      36.480 -22.865 -13.657  0.00  0.00    -0.277 N 
ATOM      4  C   UNL     1      36.792 -23.006 -11.639  0.00  0.00    +0.138 C 
ATOM      5  C   UNL     1      37.618 -23.335 -12.889  0.00  0.00    +0.106 C 
ATOM      6  C   UNL     1      35.558 -22.867 -12.539  0.00  0.00    +0.106 C 
ATOM      7  C   UNL     1      36.354 -22.576 -14.986  0.00  0.00    +0.244 C 
BRANCH   4   9
ATOM      8  O   UNL     1      36.760 -25.333 -10.747  0.00  0.00    -0.250 OA
ATOM      9  C   UNL     1      36.725 -24.120 -10.547  0.00  0.00    +0.317 C 
BRANCH   9  10
ATOM     10  O   UNL     1      36.628 -23.602  -9.292  0.00  0.00    -0.480 OA
ATOM     11  H   UNL     1      37.402 -23.355  -8.825  0.00  0.00    +0.295 HD
ENDBRANCH   9  10
ENDBRANCH   4   9
ENDBRANCH   1   7
BRANCH   1  13
ATOM     12  O   UNL     1      34.141 -22.746 -18.035  0.00  0.00    -0.269 OA
ATOM     13  N   UNL     1      35.181 -21.326 -16.560  0.00  0.00    -0.294 N 
ATOM     14  C   UNL     1      34.748 -21.662 -17.859  0.00  0.00    +0.260 C 
ATOM     15  H   UNL     1      35.657 -20.473 -16.434  0.00  0.00    +0.150 HD
BRANCH  14  18
ATOM     16 CL   UNL     1      35.108 -16.751 -23.737  0.00  0.00    -0.082 Cl
ATOM     17  N   UNL     1      36.215 -20.094 -19.076  0.00  0.00    -0.309 N 
ATOM     18  C   UNL     1      35.008 -20.717 -18.900  0.00  0.00    +0.102 C 
ATOM     19  C   UNL     1      34.150 -20.265 -19.877  0.00  0.00    +0.020 C 
ATOM     20  C   UNL     1      34.864 -19.330 -20.679  0.00  0.00    +0.016 C 
ATOM     21  C   UNL     1      36.155 -19.242 -20.156  0.00  0.00    +0.048 C 
ATOM     22  C   UNL     1      34.533 -18.549 -21.804  0.00  0.00    +0.013 C 
ATOM     23  C   UNL     1      37.137 -18.408 -20.703  0.00  0.00    +0.015 C 
ATOM     24  C   UNL     1      35.504 -17.710 -22.362  0.00  0.00    +0.058 C 
ATOM     25  C   UNL     1      36.785 -17.642 -21.818  0.00  0.00    +0.013 C 
ATOM     26  H   UNL     1      37.009 -20.236 -18.512  0.00  0.00    +0.152 HD
ENDBRANCH  14  18
ENDBRANCH   1  13
BRANCH   1  27
ATOM     27  C   UNL     1      34.109 -23.391 -15.709  0.00  0.00    +0.055 C 
BRANCH  27  28
ATOM     28  C   UNL     1      32.784 -23.369 -14.987  0.00  0.00    -0.020 C 
ATOM     29  C   UNL     1      31.774 -22.537 -15.445  0.00  0.00    -0.004 C 
ATOM     30  C   UNL     1      32.600 -24.182 -13.880  0.00  0.00    -0.004 C 
ATOM     31  C   UNL     1      30.549 -22.517 -14.779  0.00  0.00    -0.000 C 
ATOM     32  C   UNL     1      31.374 -24.162 -13.213  0.00  0.00    -0.000 C 
ATOM     33  C   UNL     1      30.350 -23.329 -13.663  0.00  0.00    -0.000 C 
ENDBRANCH  27  28
ENDBRANCH   1  27
TORSDOF 7
ENDMDL
MODEL 2
REMARK VINA RESULT:     -11.5      1.171      1.323
REMARK  Name = 445459
REMARK  7 active torsions:
REMARK  status: ('A' for Active; 'I' for Inactive)
REMARK    1  A    between atoms: C_1  and  C_7
REMARK    2  A    between atoms: C_1  and  N_13
REMARK    3  A    between atoms: C_1  and  C_27
REMARK    4  A    between atoms: C_4  and  C_9
REMARK    5  A    between atoms: C_9  and  O_10
REMARK    6  A    between atoms: C_14  and  C_18
REMARK    7  A    between atoms: C_27  and  C_28
REMARK                            x       y       z     vdW  Elec       q    Type
REMARK                         _______ _______ _______ _____ _____    ______ ____
ROOT
ATOM      1  C   UNL     1      33.884 -23.047 -15.050  0.00  0.00    +0.153 C 
ENDROOT
BRANCH   1   7
ATOM      2  O   UNL     1      35.866 -24.314 -15.471  0.00  0.00    -0.273 OA
ATOM      3  N   UNL     1      35.479 -23.598 -13.324  0.00  0.00    -0.277 N 
ATOM      4  C   UNL     1      36.137 -23.187 -11.430  0.00  0.00    +0.138 C 
ATOM      5  C   UNL     1      36.583 -24.133 -12.551  0.00  0.00    +0.106 C 
ATOM      6  C   UNL     1      34.828 -22.960 -12.197  0.00  0.00    +0.106 C 
ATOM      7  C   UNL     1      35.171 -23.719 -14.650  0.00  0.00    +0.244 C 
BRANCH   4   9
ATOM      8  O   UNL     1      35.288 -24.777  -9.709  0.00  0.00    -0.250 OA
ATOM      9  C   UNL     1      35.999 -23.821 -10.009  0.00  0.00    +0.317 C 
BRANCH   9  10
ATOM     10  O   UNL     1      36.783 -23.193  -9.090  0.00  0.00    -0.480 OA
ATOM     11  H   UNL     1      37.355 -22.500  -9.357  0.00  0.00    +0.295 HD
ENDBRANCH   9  10
ENDBRANCH   4   9
ENDBRANCH   1   7
BRANCH   1  13
ATOM     12  O   UNL     1      33.689 -23.500 -17.827  0.00  0.00    -0.269 OA
ATOM     13  N   UNL     1      34.280 -22.121 -16.088  0.00  0.00    -0.294 N 
ATOM     14  C   UNL     1      34.163 -22.395 -17.467  0.00  0.00    +0.260 C 
ATOM     15  H   UNL     1      34.654 -21.251 -15.817  0.00  0.00    +0.150 HD
BRANCH  14  18
ATOM     16 CL   UNL     1      35.300 -16.837 -22.625  0.00  0.00    -0.082 Cl
ATOM     17  N   UNL     1      35.862 -20.930 -18.495  0.00  0.00    -0.309 N 
ATOM     18  C   UNL     1      34.570 -21.369 -18.374  0.00  0.00    +0.102 C 
ATOM     19  C   UNL     1      33.795 -20.653 -19.258  0.00  0.00    +0.020 C 
ATOM     20  C   UNL     1      34.648 -19.743 -19.943  0.00  0.00    +0.016 C 
ATOM     21  C   UNL     1      35.938 -19.938 -19.446  0.00  0.00    +0.048 C 
ATOM     22  C   UNL     1      34.446 -18.771 -20.941  0.00  0.00    +0.013 C 
ATOM     23  C   UNL     1      37.041 -19.204 -19.898  0.00  0.00    +0.015 C 
ATOM     24  C   UNL     1      35.539 -18.029 -21.404  0.00  0.00    +0.058 C 
ATOM     25  C   UNL     1      36.816 -18.244 -20.889  0.00  0.00    +0.013 C 
ATOM     26  H   UNL     1      36.625 -21.275 -17.976  0.00  0.00    +0.152 HD
ENDBRANCH  14  18
ENDBRANCH   1  13
BRANCH   1  27
ATOM     27  C   UNL     1      32.865 -24.077 -15.533  0.00  0.00    +0.055 C 
BRANCH  27  28
ATOM     28  C   UNL     1      31.442 -23.666 -15.243  0.00  0.00    -0.020 C 
ATOM     29  C   UNL     1      30.998 -22.419 -15.651  0.00  0.00    -0.004 C 
ATOM     30  C   UNL     1      30.605 -24.545 -14.573  0.00  0.00    -0.004 C 
ATOM     31  C   UNL     1      29.682 -22.039 -15.384  0.00  0.00    -0.000 C 
ATOM     32  C   UNL     1      29.289 -24.165 -14.306  0.00  0.00    -0.000 C 
ATOM     33  C   UNL     1      28.829 -22.912 -14.711  0.00  0.00    -0.000 C 
ENDBRANCH  27  28
ENDBRANCH   1  27
TORSDOF 7
ENDMDL
MODEL 3
REMARK VINA RESULT:     -11.4      2.739      5.661
REMARK  Name = 445459
REMARK  7 active torsions:
REMARK  status: ('A' for Active; 'I' for Inactive)
REMARK    1  A    between atoms: C_1  and  C_7
REMARK    2  A    between atoms: C_1  and  N_13
REMARK    3  A    between atoms: C_1  and  C_27
REMARK    4  A    between atoms: C_4  and  C_9
REMARK    5  A    between atoms: C_9  and  O_10
REMARK    6  A    between atoms: C_14  and  C_18
REMARK    7  A    between atoms: C_27  and  C_28
REMARK                            x       y       z     vdW  Elec       q    Type
REMARK                         _______ _______ _______ _____ _____    ______ ____
ROOT
ATOM      1  C   UNL     1      33.031 -23.372 -14.218  0.00  0.00    +0.153 C 
ENDROOT
BRANCH   1   7
ATOM      2  O   UNL     1      31.700 -22.365 -12.507  0.00  0.00    -0.273 OA
ATOM      3  N   UNL     1      30.785 -22.572 -14.602  0.00  0.00    -0.277 N 
ATOM      4  C   UNL     1      29.390 -22.046 -16.004  0.00  0.00    +0.138 C 
ATOM      5  C   UNL     1      29.439 -22.048 -14.471  0.00  0.00    +0.106 C 
ATOM      6  C   UNL     1      30.658 -22.908 -16.007  0.00  0.00    +0.106 C 
ATOM      7  C   UNL     1      31.783 -22.723 -13.680  0.00  0.00    +0.244 C 
BRANCH   4   9
ATOM      8  O   UNL     1      27.929 -23.889 -16.832  0.00  0.00    -0.250 OA
ATOM      9  C   UNL     1      28.121 -22.688 -16.651  0.00  0.00    +0.317 C 
BRANCH   9  10
ATOM     10  O   UNL     1      27.199 -21.752 -17.008  0.00  0.00    -0.480 OA
ATOM     11  H   UNL     1      27.427 -21.078 -17.618  0.00  0.00    +0.295 HD
ENDBRANCH   9  10
ENDBRANCH   4   9
ENDBRANCH   1   7
BRANCH   1  13
ATOM     12  O   UNL     1      33.858 -24.223 -16.776  0.00  0.00    -0.269 OA
ATOM     13  N   UNL     1      33.433 -22.509 -15.307  0.00  0.00    -0.294 N 
ATOM     14  C   UNL     1      33.840 -22.985 -16.571  0.00  0.00    +0.260 C 
ATOM     15  H   UNL     1      33.423 -21.536 -15.157  0.00  0.00    +0.150 HD
BRANCH  14  18
ATOM     16 CL   UNL     1      36.693 -17.870 -21.519  0.00  0.00    -0.082 Cl
ATOM     17  N   UNL     1      33.268 -21.423 -18.394  0.00  0.00    -0.309 N 
ATOM     18  C   UNL     1      34.181 -22.009 -17.558  0.00  0.00    +0.102 C 
ATOM     19  C   UNL     1      35.420 -21.490 -17.853  0.00  0.00    +0.020 C 
ATOM     20  C   UNL     1      35.256 -20.552 -18.910  0.00  0.00    +0.016 C 
ATOM     21  C   UNL     1      33.897 -20.529 -19.231  0.00  0.00    +0.048 C 
ATOM     22  C   UNL     1      36.135 -19.717 -19.627  0.00  0.00    +0.013 C 
ATOM     23  C   UNL     1      33.371 -19.711 -20.237  0.00  0.00    +0.015 C 
ATOM     24  C   UNL     1      35.624 -18.893 -20.637  0.00  0.00    +0.058 C 
ATOM     25  C   UNL     1      34.263 -18.892 -20.936  0.00  0.00    +0.013 C 
ATOM     26  H   UNL     1      32.302 -21.615 -18.397  0.00  0.00    +0.152 HD
ENDBRANCH  14  18
ENDBRANCH   1  13
BRANCH   1  27
ATOM     27  C   UNL     1      34.093 -23.484 -13.127  0.00  0.00    +0.055 C 
BRANCH  27  28
ATOM     28  C   UNL     1      35.492 -23.574 -13.686  0.00  0.00    -0.020 C 
ATOM     29  C   UNL     1      36.238 -22.417 -13.844  0.00  0.00    -0.004 C 
ATOM     30  C   UNL     1      36.006 -24.814 -14.032  0.00  0.00    -0.004 C 
ATOM     31  C   UNL     1      37.531 -22.500 -14.360  0.00  0.00    -0.000 C 
ATOM     32  C   UNL     1      37.300 -24.898 -14.549  0.00  0.00    -0.000 C 
ATOM     33  C   UNL     1      38.061 -23.741 -14.713  0.00  0.00    -0.000 C 
ENDBRANCH  27  28
ENDBRANCH   1  27
TORSDOF 7
ENDMDL
MODEL 4
REMARK VINA RESULT:     -10.5      3.480      7.775
REMARK  Name = 445459
REMARK  7 active torsions:
REMARK  status: ('A' for Active; 'I' for Inactive)
REMARK    1  A    between atoms: C_1  and  C_7
REMARK    2  A    between atoms: C_1  and  N_13
REMARK    3  A    between atoms: C_1  and  C_27
REMARK    4  A    between atoms: C_4  and  C_9
REMARK    5  A    between atoms: C_9  and  O_10
REMARK    6  A    between atoms: C_14  and  C_18
REMARK    7  A    between atoms: C_27  and  C_28
REMARK                            x       y       z     vdW  Elec       q    Type
REMARK                         _______ _______ _______ _____ _____    ______ ____
ROOT
ATOM      1  C   UNL     1      35.714 -22.924 -14.470  0.00  0.00    +0.153 C 
ENDROOT
BRANCH   1   7
ATOM      2  O   UNL     1      37.512 -21.564 -15.265  0.00  0.00    -0.273 OA
ATOM      3  N   UNL     1      35.659 -21.791 -16.601  0.00  0.00    -0.277 N 
ATOM      4  C   UNL     1      34.744 -21.659 -18.427  0.00  0.00    +0.138 C 
ATOM      5  C   UNL     1      35.933 -20.959 -17.757  0.00  0.00    +0.106 C 
ATOM      6  C   UNL     1      34.350 -22.217 -17.054  0.00  0.00    +0.106 C 
ATOM      7  C   UNL     1      36.392 -22.027 -15.472  0.00  0.00    +0.244 C 
BRANCH   4   9
ATOM      8  O   UNL     1      32.551 -20.512 -18.728  0.00  0.00    -0.250 OA
ATOM      9  C   UNL     1      33.698 -20.727 -19.117  0.00  0.00    +0.317 C 
BRANCH   9  10
ATOM     10  O   UNL     1      34.197 -20.139 -20.239  0.00  0.00    -0.480 OA
ATOM     11  H   UNL     1      34.592 -19.290 -20.187  0.00  0.00    +0.295 HD
ENDBRANCH   9  10
ENDBRANCH   4   9
ENDBRANCH   1   7
BRANCH   1  13
ATOM     12  O   UNL     1      33.584 -23.466 -12.704  0.00  0.00    -0.269 OA
ATOM     13  N   UNL     1      34.307 -22.794 -14.778  0.00  0.00    -0.294 N 
ATOM     14  C   UNL     1      33.277 -23.078 -13.857  0.00  0.00    +0.260 C 
ATOM     15  H   UNL     1      34.055 -22.490 -15.680  0.00  0.00    +0.150 HD
BRANCH  14  18
ATOM     16 CL   UNL     1      25.994 -21.253 -15.414  0.00  0.00    -0.082 Cl
ATOM     17  N   UNL     1      31.373 -23.532 -15.360  0.00  0.00    -0.309 N 
ATOM     18  C   UNL     1      31.932 -22.873 -14.298  0.00  0.00    +0.102 C 
ATOM     19  C   UNL     1      30.984 -22.023 -13.778  0.00  0.00    +0.020 C 
ATOM     20  C   UNL     1      29.800 -22.169 -14.554  0.00  0.00    +0.016 C 
ATOM     21  C   UNL     1      30.071 -23.122 -15.539  0.00  0.00    +0.048 C 
ATOM     22  C   UNL     1      28.520 -21.582 -14.513  0.00  0.00    +0.013 C 
ATOM     23  C   UNL     1      29.122 -23.517 -16.489  0.00  0.00    +0.015 C 
ATOM     24  C   UNL     1      27.561 -21.967 -15.457  0.00  0.00    +0.058 C 
ATOM     25  C   UNL     1      27.860 -22.920 -16.429  0.00  0.00    +0.013 C 
ATOM     26  H   UNL     1      31.835 -24.202 -15.914  0.00  0.00    +0.152 HD
ENDBRANCH  14  18
ENDBRANCH   1  13
BRANCH   1  27
ATOM     27  C   UNL     1      36.219 -24.359 -14.603  0.00  0.00    +0.055 C 
BRANCH  27  28
ATOM     28  C   UNL     1      37.632 -24.526 -14.099  0.00  0.00    -0.020 C 
ATOM     29  C   UNL     1      37.993 -23.961 -12.885  0.00  0.00    -0.004 C 
ATOM     30  C   UNL     1      38.545 -25.241 -14.859  0.00  0.00    -0.004 C 
ATOM     31  C   UNL     1      39.298 -24.116 -12.419  0.00  0.00    -0.000 C 
ATOM     32  C   UNL     1      39.851 -25.396 -14.392  0.00  0.00    -0.000 C 
ATOM     33  C   UNL     1      40.227 -24.833 -13.173  0.00  0.00    -0.000 C 
ENDBRANCH  27  28
ENDBRANCH   1  27
TORSDOF 7
ENDMDL
MODEL 5
REMARK VINA RESULT:     -10.3     10.756     15.255
REMARK  Name = 445459
REMARK  7 active torsions:
REMARK  status: ('A' for Active; 'I' for Inactive)
REMARK    1  A    between atoms: C_1  and  C_7
REMARK    2  A    between atoms: C_1  and  N_13
REMARK    3  A    between atoms: C_1  and  C_27
REMARK    4  A    between atoms: C_4  and  C_9
REMARK    5  A    between atoms: C_9  and  O_10
REMARK    6  A    between atoms: C_14  and  C_18
REMARK    7  A    between atoms: C_27  and  C_28
REMARK                            x       y       z     vdW  Elec       q    Type
REMARK                         _______ _______ _______ _____ _____    ______ ____
ROOT
ATOM      1  C   UNL     1      32.828  -9.139 -22.205  0.00  0.00    +0.153 C 
ENDROOT
BRANCH   1   7
ATOM      2  O   UNL     1      31.654 -10.039 -20.327  0.00  0.00    -0.273 OA
ATOM      3  N   UNL     1      32.512  -7.917 -20.146  0.00  0.00    -0.277 N 
ATOM      4  C   UNL     1      33.111  -6.321 -19.013  0.00  0.00    +0.138 C 
ATOM      5  C   UNL     1      32.108  -7.466 -18.828  0.00  0.00    +0.106 C 
ATOM      6  C   UNL     1      33.197  -6.690 -20.500  0.00  0.00    +0.106 C 
ATOM      7  C   UNL     1      32.269  -9.089 -20.807  0.00  0.00    +0.244 C 
BRANCH   4   9
ATOM      8  O   UNL     1      32.732  -4.283 -17.630  0.00  0.00    -0.250 OA
ATOM      9  C   UNL     1      32.584  -4.887 -18.690  0.00  0.00    +0.317 C 
BRANCH   9  10
ATOM     10  O   UNL     1      31.919  -4.337 -19.743  0.00  0.00    -0.480 OA
ATOM     11  H   UNL     1      30.988  -4.240 -19.710  0.00  0.00    +0.295 HD
ENDBRANCH   9  10
ENDBRANCH   4   9
ENDBRANCH   1   7
BRANCH   1  13
ATOM     12  O   UNL     1      34.783 -10.219 -23.925  0.00  0.00    -0.269 OA
ATOM     13  N   UNL     1      33.066 -10.547 -22.436  0.00  0.00    -0.294 N 
ATOM     14  C   UNL     1      34.060 -11.038 -23.309  0.00  0.00    +0.260 C 
ATOM     15  H   UNL     1      32.503 -11.198 -21.958  0.00  0.00    +0.150 HD
BRANCH  14  18
ATOM     16 CL   UNL     1      35.277 -18.596 -22.889  0.00  0.00    -0.082 Cl
ATOM     17  N   UNL     1      33.741 -13.188 -24.476  0.00  0.00    -0.309 N 
ATOM     18  C   UNL     1      34.196 -12.457 -23.412  0.00  0.00    +0.102 C 
ATOM     19  C   UNL     1      34.775 -13.326 -22.516  0.00  0.00    +0.020 C 
ATOM     20  C   UNL     1      34.668 -14.639 -23.057  0.00  0.00    +0.016 C 
ATOM     21  C   UNL     1      34.016 -14.524 -24.286  0.00  0.00    +0.048 C 
ATOM     22  C   UNL     1      35.065 -15.916 -22.616  0.00  0.00    +0.013 C 
ATOM     23  C   UNL     1      33.739 -15.627 -25.100  0.00  0.00    +0.015 C 
ATOM     24  C   UNL     1      34.795 -17.030 -23.420  0.00  0.00    +0.058 C 
ATOM     25  C   UNL     1      34.142 -16.886 -24.643  0.00  0.00    +0.013 C 
ATOM     26  H   UNL     1      33.282 -12.813 -25.263  0.00  0.00    +0.152 HD
ENDBRANCH  14  18
ENDBRANCH   1  13
BRANCH   1  27
ATOM     27  C   UNL     1      31.843  -8.533 -23.202  0.00  0.00    +0.055 C 
BRANCH  27  28
ATOM     28  C   UNL     1      32.359  -7.260 -23.826  0.00  0.00    -0.020 C 
ATOM     29  C   UNL     1      33.719  -7.114 -24.049  0.00  0.00    -0.004 C 
ATOM     30  C   UNL     1      31.462  -6.258 -24.166  0.00  0.00    -0.004 C 
ATOM     31  C   UNL     1      34.196  -5.938 -24.627  0.00  0.00    -0.000 C 
ATOM     32  C   UNL     1      31.940  -5.081 -24.744  0.00  0.00    -0.000 C 
ATOM     33  C   UNL     1      33.306  -4.922 -24.974  0.00  0.00    -0.000 C 
ENDBRANCH  27  28
ENDBRANCH   1  27
TORSDOF 7
ENDMDL
MODEL 6
REMARK VINA RESULT:     -10.1     10.280     14.986
REMARK  Name = 445459
REMARK  7 active torsions:
REMARK  status: ('A' for Active; 'I' for Inactive)
REMARK    1  A    between atoms: C_1  and  C_7
REMARK    2  A    between atoms: C_1  and  N_13
REMARK    3  A    between atoms: C_1  and  C_27
REMARK    4  A    between atoms: C_4  and  C_9
REMARK    5  A    between atoms: C_9  and  O_10
REMARK    6  A    between atoms: C_14  and  C_18
REMARK    7  A    between atoms: C_27  and  C_28
REMARK                            x       y       z     vdW  Elec       q    Type
REMARK                         _______ _______ _______ _____ _____    ______ ____
ROOT
ATOM      1  C   UNL     1      33.038  -9.461 -21.996  0.00  0.00    +0.153 C 
ENDROOT
BRANCH   1   7
ATOM      2  O   UNL     1      31.560 -10.133 -20.242  0.00  0.00    -0.273 OA
ATOM      3  N   UNL     1      32.440  -8.014 -20.158  0.00  0.00    -0.277 N 
ATOM      4  C   UNL     1      32.900  -6.308 -19.125  0.00  0.00    +0.138 C 
ATOM      5  C   UNL     1      31.848  -7.414 -18.978  0.00  0.00    +0.106 C 
ATOM      6  C   UNL     1      33.207  -6.841 -20.530  0.00  0.00    +0.106 C 
ATOM      7  C   UNL     1      32.270  -9.249 -20.718  0.00  0.00    +0.244 C 
BRANCH   4   9
ATOM      8  O   UNL     1      31.584  -4.312 -19.829  0.00  0.00    -0.250 OA
ATOM      9  C   UNL     1      32.371  -4.841 -19.046  0.00  0.00    +0.317 C 
BRANCH   9  10
ATOM     10  O   UNL     1      32.878  -4.170 -17.976  0.00  0.00    -0.480 OA
ATOM     11  H   UNL     1      33.791  -3.957 -17.946  0.00  0.00    +0.295 HD
ENDBRANCH   9  10
ENDBRANCH   4   9
ENDBRANCH   1   7
BRANCH   1  13
ATOM     12  O   UNL     1      34.577 -10.820 -23.928  0.00  0.00    -0.269 OA
ATOM     13  N   UNL     1      33.376 -10.867 -21.971  0.00  0.00    -0.294 N 
ATOM     14  C   UNL     1      34.151 -11.501 -22.965  0.00  0.00    +0.260 C 
ATOM     15  H   UNL     1      33.047 -11.411 -21.220  0.00  0.00    +0.150 HD
BRANCH  14  18
ATOM     16 CL   UNL     1      35.827 -18.715 -20.979  0.00  0.00    -0.082 Cl
ATOM     17  N   UNL     1      34.348 -13.816 -23.797  0.00  0.00    -0.309 N 
ATOM     18  C   UNL     1      34.428 -12.893 -22.789  0.00  0.00    +0.102 C 
ATOM     19  C   UNL     1      34.806 -13.549 -21.640  0.00  0.00    +0.020 C 
ATOM     20  C   UNL     1      34.962 -14.927 -21.962  0.00  0.00    +0.016 C 
ATOM     21  C   UNL     1      34.669 -15.067 -23.320  0.00  0.00    +0.048 C 
ATOM     22  C   UNL     1      35.326 -16.071 -21.225  0.00  0.00    +0.013 C 
ATOM     23  C   UNL     1      34.721 -16.299 -23.981  0.00  0.00    +0.015 C 
ATOM     24  C   UNL     1      35.383 -17.311 -21.872  0.00  0.00    +0.058 C 
ATOM     25  C   UNL     1      35.084 -17.421 -23.229  0.00  0.00    +0.013 C 
ATOM     26  H   UNL     1      34.096 -13.615 -24.727  0.00  0.00    +0.152 HD
ENDBRANCH  14  18
ENDBRANCH   1  13
BRANCH   1  27
ATOM     27  C   UNL     1      32.190  -9.076 -23.206  0.00  0.00    +0.055 C 
BRANCH  27  28
ATOM     28  C   UNL     1      32.511  -7.695 -23.724  0.00  0.00    -0.020 C 
ATOM     29  C   UNL     1      31.486  -6.779 -23.899  0.00  0.00    -0.004 C 
ATOM     30  C   UNL     1      33.826  -7.368 -24.015  0.00  0.00    -0.004 C 
ATOM     31  C   UNL     1      31.782  -5.503 -24.377  0.00  0.00    -0.000 C 
ATOM     32  C   UNL     1      34.123  -6.091 -24.494  0.00  0.00    -0.000 C 
ATOM     33  C   UNL     1      33.101  -5.160 -24.675  0.00  0.00    -0.000 C 
ENDBRANCH  27  28
ENDBRANCH   1  27
TORSDOF 7
ENDMDL
MODEL 7
REMARK VINA RESULT:      -9.5      2.483      4.449
REMARK  Name = 445459
REMARK  7 active torsions:
REMARK  status: ('A' for Active; 'I' for Inactive)
REMARK    1  A    between atoms: C_1  and  C_7
REMARK    2  A    between atoms: C_1  and  N_13
REMARK    3  A    between atoms: C_1  and  C_27
REMARK    4  A    between atoms: C_4  and  C_9
REMARK    5  A    between atoms: C_9  and  O_10
REMARK    6  A    between atoms: C_14  and  C_18
REMARK    7  A    between atoms: C_27  and  C_28
REMARK                            x       y       z     vdW  Elec       q    Type
REMARK                         _______ _______ _______ _____ _____    ______ ____
ROOT
ATOM      1  C   UNL     1      33.708 -22.556 -16.448  0.00  0.00    +0.153 C 
ENDROOT
BRANCH   1   7
ATOM      2  O   UNL     1      31.669 -21.606 -17.256  0.00  0.00    -0.273 OA
ATOM      3  N   UNL     1      31.539 -23.182 -15.592  0.00  0.00    -0.277 N 
ATOM      4  C   UNL     1      30.476 -24.556 -14.509  0.00  0.00    +0.138 C 
ATOM      5  C   UNL     1      30.124 -23.282 -15.287  0.00  0.00    +0.106 C 
ATOM      6  C   UNL     1      31.954 -24.159 -14.605  0.00  0.00    +0.106 C 
ATOM      7  C   UNL     1      32.211 -22.392 -16.481  0.00  0.00    +0.244 C 
BRANCH   4   9
ATOM      8  O   UNL     1      30.477 -24.409 -12.021  0.00  0.00    -0.250 OA
ATOM      9  C   UNL     1      29.885 -24.665 -13.068  0.00  0.00    +0.317 C 
BRANCH   9  10
ATOM     10  O   UNL     1      28.589 -25.083 -13.076  0.00  0.00    -0.480 OA
ATOM     11  H   UNL     1      28.113 -25.148 -12.271  0.00  0.00    +0.295 HD
ENDBRANCH   9  10
ENDBRANCH   4   9
ENDBRANCH   1   7
BRANCH   1  13
ATOM     12  O   UNL     1      34.230 -22.933 -19.193  0.00  0.00    -0.269 OA
ATOM     13  N   UNL     1      34.192 -21.546 -17.363  0.00  0.00    -0.294 N 
ATOM     14  C   UNL     1      34.438 -21.785 -18.731  0.00  0.00    +0.260 C 
ATOM     15  H   UNL     1      34.359 -20.642 -17.011  0.00  0.00    +0.150 HD
BRANCH  14  18
ATOM     16 CL   UNL     1      35.795 -15.678 -23.164  0.00  0.00    -0.082 Cl
ATOM     17  N   UNL     1      36.204 -20.331 -19.655  0.00  0.00    -0.309 N 
ATOM     18  C   UNL     1      34.887 -20.679 -19.517  0.00  0.00    +0.102 C 
ATOM     19  C   UNL     1      34.134 -19.791 -20.250  0.00  0.00    +0.020 C 
ATOM     20  C   UNL     1      35.028 -18.865 -20.858  0.00  0.00    +0.016 C 
ATOM     21  C   UNL     1      36.319 -19.226 -20.469  0.00  0.00    +0.048 C 
ATOM     22  C   UNL     1      34.861 -17.752 -21.704  0.00  0.00    +0.013 C 
ATOM     23  C   UNL     1      37.457 -18.526 -20.885  0.00  0.00    +0.015 C 
ATOM     24  C   UNL     1      35.990 -17.041 -22.129  0.00  0.00    +0.058 C 
ATOM     25  C   UNL     1      37.267 -17.424 -21.725  0.00  0.00    +0.013 C 
ATOM     26  H   UNL     1      36.959 -20.802 -19.233  0.00  0.00    +0.152 HD
ENDBRANCH  14  18
ENDBRANCH   1  13
BRANCH   1  27
ATOM     27  C   UNL     1      34.239 -22.374 -15.028  0.00  0.00    +0.055 C 
BRANCH  27  28
ATOM     28  C   UNL     1      35.574 -23.046 -14.817  0.00  0.00    -0.020 C 
ATOM     29  C   UNL     1      36.737 -22.302 -14.936  0.00  0.00    -0.004 C 
ATOM     30  C   UNL     1      35.613 -24.397 -14.507  0.00  0.00    -0.004 C 
ATOM     31  C   UNL     1      37.971 -22.923 -14.741  0.00  0.00    -0.000 C 
ATOM     32  C   UNL     1      36.847 -25.018 -14.312  0.00  0.00    -0.000 C 
ATOM     33  C   UNL     1      38.025 -24.281 -14.429  0.00  0.00    -0.000 C 
ENDBRANCH  27  28
ENDBRANCH   1  27
TORSDOF 7
ENDMDL
MODEL 8
REMARK VINA RESULT:      -9.5     10.678     15.134
REMARK  Name = 445459
REMARK  7 active torsions:
REMARK  status: ('A' for Active; 'I' for Inactive)
REMARK    1  A    between atoms: C_1  and  C_7
REMARK    2  A    between atoms: C_1  and  N_13
REMARK    3  A    between atoms: C_1  and  C_27
REMARK    4  A    between atoms: C_4  and  C_9
REMARK    5  A    between atoms: C_9  and  O_10
REMARK    6  A    between atoms: C_14  and  C_18
REMARK    7  A    between atoms: C_27  and  C_28
REMARK                            x       y       z     vdW  Elec       q    Type
REMARK                         _______ _______ _______ _____ _____    ______ ____
ROOT
ATOM      1  C   UNL     1      33.159  -7.514 -22.370  0.00  0.00    +0.153 C 
ENDROOT
BRANCH   1   7
ATOM      2  O   UNL     1      33.666  -6.369 -20.334  0.00  0.00    -0.273 OA
ATOM      3  N   UNL     1      32.537  -8.364 -20.197  0.00  0.00    -0.277 N 
ATOM      4  C   UNL     1      31.365  -9.688 -19.167  0.00  0.00    +0.138 C 
ATOM      5  C   UNL     1      32.368  -8.596 -18.776  0.00  0.00    +0.106 C 
ATOM      6  C   UNL     1      31.879  -9.588 -20.609  0.00  0.00    +0.106 C 
ATOM      7  C   UNL     1      33.154  -7.348 -20.873  0.00  0.00    +0.244 C 
BRANCH   4   9
ATOM      8  O   UNL     1      31.798 -12.139 -19.025  0.00  0.00    -0.250 OA
ATOM      9  C   UNL     1      31.549 -11.072 -18.467  0.00  0.00    +0.317 C 
BRANCH   9  10
ATOM     10  O   UNL     1      31.407 -10.985 -17.116  0.00  0.00    -0.480 OA
ATOM     11  H   UNL     1      31.208 -11.752 -16.615  0.00  0.00    +0.295 HD
ENDBRANCH   9  10
ENDBRANCH   4   9
ENDBRANCH   1   7
BRANCH   1  13
ATOM     12  O   UNL     1      34.523  -8.752 -24.504  0.00  0.00    -0.269 OA
ATOM     13  N   UNL     1      33.308  -8.939 -22.564  0.00  0.00    -0.294 N 
ATOM     14  C   UNL     1      34.002  -9.511 -23.651  0.00  0.00    +0.260 C 
ATOM     15  H   UNL     1      32.902  -9.543 -21.901  0.00  0.00    +0.150 HD
BRANCH  14  18
ATOM     16 CL   UNL     1      34.065 -17.079 -24.878  0.00  0.00    -0.082 Cl
ATOM     17  N   UNL     1      34.571 -11.698 -22.661  0.00  0.00    -0.309 N 
ATOM     18  C   UNL     1      34.090 -10.937 -23.693  0.00  0.00    +0.102 C 
ATOM     19  C   UNL     1      33.733 -11.785 -24.716  0.00  0.00    +0.020 C 
ATOM     20  C   UNL     1      34.008 -13.115 -24.290  0.00  0.00    +0.016 C 
ATOM     21  C   UNL     1      34.532 -13.032 -22.999  0.00  0.00    +0.048 C 
ATOM     22  C   UNL     1      33.860 -14.385 -24.882  0.00  0.00    +0.013 C 
ATOM     23  C   UNL     1      34.918 -14.160 -22.266  0.00  0.00    +0.015 C 
ATOM     24  C   UNL     1      34.242 -15.522 -24.162  0.00  0.00    +0.058 C 
ATOM     25  C   UNL     1      34.763 -15.410 -22.874  0.00  0.00    +0.013 C 
ATOM     26  H   UNL     1      34.897 -11.343 -21.803  0.00  0.00    +0.152 HD
ENDBRANCH  14  18
ENDBRANCH   1  13
BRANCH   1  27
ATOM     27  C   UNL     1      31.870  -6.964 -22.977  0.00  0.00    +0.055 C 
BRANCH  27  28
ATOM     28  C   UNL     1      32.046  -5.582 -23.559  0.00  0.00    -0.020 C 
ATOM     29  C   UNL     1      32.291  -5.442 -24.916  0.00  0.00    -0.004 C 
ATOM     30  C   UNL     1      31.959  -4.478 -22.725  0.00  0.00    -0.004 C 
ATOM     31  C   UNL     1      32.453  -4.165 -25.454  0.00  0.00    -0.000 C 
ATOM     32  C   UNL     1      32.121  -3.201 -23.263  0.00  0.00    -0.000 C 
ATOM     33  C   UNL     1      32.368  -3.045 -24.627  0.00  0.00    -0.000 C 
ENDBRANCH  27  28
ENDBRANCH   1  27
TORSDOF 7
ENDMDL
MODEL 9
REMARK VINA RESULT:      -9.1     11.737     16.652
REMARK  Name = 445459
REMARK  7 active torsions:
REMARK  status: ('A' for Active; 'I' for Inactive)
REMARK    1  A    between atoms: C_1  and  C_7
REMARK    2  A    between atoms: C_1  and  N_13
REMARK    3  A    between atoms: C_1  and  C_27
REMARK    4  A    between atoms: C_4  and  C_9
REMARK    5  A    between atoms: C_9  and  O_10
REMARK    6  A    between atoms: C_14  and  C_18
REMARK    7  A    between atoms: C_27  and  C_28
REMARK                            x       y       z     vdW  Elec       q    Type
REMARK                         _______ _______ _______ _____ _____    ______ ____
ROOT
ATOM      1  C   UNL     1      33.900  -7.703 -23.047  0.00  0.00    +0.153 C 
ENDROOT
BRANCH   1   7
ATOM      2  O   UNL     1      35.583  -7.584 -24.740  0.00  0.00    -0.273 OA
ATOM      3  N   UNL     1      33.932  -5.988 -24.746  0.00  0.00    -0.277 N 
ATOM      4  C   UNL     1      32.864  -4.524 -25.697  0.00  0.00    +0.138 C 
ATOM      5  C   UNL     1      34.275  -5.106 -25.845  0.00  0.00    +0.106 C 
ATOM      6  C   UNL     1      32.748  -5.251 -24.352  0.00  0.00    +0.106 C 
ATOM      7  C   UNL     1      34.563  -7.097 -24.256  0.00  0.00    +0.244 C 
BRANCH   4   9
ATOM      8  O   UNL     1      33.285  -2.234 -24.808  0.00  0.00    -0.250 OA
ATOM      9  C   UNL     1      32.766  -2.966 -25.648  0.00  0.00    +0.317 C 
BRANCH   9  10
ATOM     10  O   UNL     1      32.022  -2.467 -26.673  0.00  0.00    -0.480 OA
ATOM     11  H   UNL     1      32.280  -2.627 -27.560  0.00  0.00    +0.295 HD
ENDBRANCH   9  10
ENDBRANCH   4   9
ENDBRANCH   1   7
BRANCH   1  13
ATOM     12  O   UNL     1      32.290  -9.771 -22.007  0.00  0.00    -0.269 OA
ATOM     13  N   UNL     1      34.153  -9.120 -23.182  0.00  0.00    -0.294 N 
ATOM     14  C   UNL     1      33.315 -10.118 -22.642  0.00  0.00    +0.260 C 
ATOM     15  H   UNL     1      34.955  -9.403 -23.677  0.00  0.00    +0.150 HD
BRANCH  14  18
ATOM     16 CL   UNL     1      35.628 -17.424 -22.908  0.00  0.00    -0.082 Cl
ATOM     17  N   UNL     1      33.475 -12.120 -24.075  0.00  0.00    -0.309 N 
ATOM     18  C   UNL     1      33.681 -11.479 -22.883  0.00  0.00    +0.102 C 
ATOM     19  C   UNL     1      34.276 -12.369 -22.019  0.00  0.00    +0.020 C 
ATOM     20  C   UNL     1      34.439 -13.601 -22.713  0.00  0.00    +0.016 C 
ATOM     21  C   UNL     1      33.929 -13.418 -24.000  0.00  0.00    +0.048 C 
ATOM     22  C   UNL     1      34.973 -14.858 -22.368  0.00  0.00    +0.013 C 
ATOM     23  C   UNL     1      33.926 -14.433 -24.963  0.00  0.00    +0.015 C 
ATOM     24  C   UNL     1      34.977 -15.883 -23.321  0.00  0.00    +0.058 C 
ATOM     25  C   UNL     1      34.461 -15.672 -24.598  0.00  0.00    +0.013 C 
ATOM     26  H   UNL     1      33.063 -11.712 -24.871  0.00  0.00    +0.152 HD
ENDBRANCH  14  18
ENDBRANCH   1  13
BRANCH   1  27
ATOM     27  C   UNL     1      34.482  -7.116 -21.762  0.00  0.00    +0.055 C 
BRANCH  27  28
ATOM     28  C   UNL     1      33.419  -6.569 -20.841  0.00  0.00    -0.020 C 
ATOM     29  C   UNL     1      32.660  -5.483 -21.247  0.00  0.00    -0.004 C 
ATOM     30  C   UNL     1      33.221  -7.163 -19.604  0.00  0.00    -0.004 C 
ATOM     31  C   UNL     1      31.678  -4.977 -20.396  0.00  0.00    -0.000 C 
ATOM     32  C   UNL     1      32.238  -6.657 -18.752  0.00  0.00    -0.000 C 
ATOM     33  C   UNL     1      31.467  -5.565 -19.149  0.00  0.00    -0.000 C 
ENDBRANCH  27  28
ENDBRANCH   1  27
TORSDOF 7
ENDMDL
