MODEL 1
REMARK VINA RESULT:     -11.2      0.000      0.000
REMARK  Name = 3152
REMARK  6 active torsions:
REMARK  status: ('A' for Active; 'I' for Inactive)
REMARK    1  A    between atoms: C_1  and  C_3
REMARK    2  A    between atoms: C_1  and  C_17
REMARK    3  A    between atoms: C_10  and  O_12
REMARK    4  A    between atoms: C_11  and  O_14
REMARK    5  A    between atoms: N_16  and  C_23
REMARK    6  A    between atoms: C_23  and  C_24
REMARK                            x       y       z     vdW  Elec       q    Type
REMARK                         _______ _______ _______ _____ _____    ______ ____
ROOT
ATOM      1  C   UNL     1      35.219 -19.053 -22.269  0.00  0.00    +0.008 C 
ENDROOT
BRANCH   1   3
ATOM      2  O   UNL     1      32.720 -19.670 -20.688  0.00  0.00    -0.291 OA
ATOM      3  C   UNL     1      35.029 -18.859 -20.777  0.00  0.00    +0.066 C 
ATOM      4  C   UNL     1      36.247 -19.340 -19.955  0.00  0.00    +0.034 C 
ATOM      5  C   UNL     1      33.860 -19.680 -20.260  0.00  0.00    +0.173 C 
ATOM      6  C   UNL     1      35.663 -20.294 -18.962  0.00  0.00    -0.016 C 
ATOM      7  C   UNL     1      34.301 -20.498 -19.142  0.00  0.00    +0.034 C 
ATOM      8  C   UNL     1      36.330 -20.966 -17.950  0.00  0.00    +0.036 C 
ATOM      9  C   UNL     1      33.555 -21.351 -18.350  0.00  0.00    +0.043 C 
ATOM     10  C   UNL     1      35.602 -21.834 -17.130  0.00  0.00    +0.172 C 
ATOM     11  C   UNL     1      34.225 -22.026 -17.329  0.00  0.00    +0.172 C 
BRANCH  10  12
ATOM     12  O   UNL     1      36.249 -22.500 -16.130  0.00  0.00    -0.468 OA
ATOM     13  C   UNL     1      37.337 -21.827 -15.503  0.00  0.00    +0.253 C 
ENDBRANCH  10  12
BRANCH  11  14
ATOM     14  O   UNL     1      33.527 -22.878 -16.524  0.00  0.00    -0.468 OA
ATOM     15  C   UNL     1      32.182 -22.520 -16.216  0.00  0.00    +0.253 C 
ENDBRANCH  11  14
ENDBRANCH   1   3
BRANCH   1  17
ATOM     16  N   UNL     1      34.259 -15.088 -23.687  0.00  0.00    +0.390 N 
ATOM     17  C   UNL     1      35.356 -17.717 -22.992  0.00  0.00    -0.004 C 
ATOM     18  C   UNL     1      34.246 -17.538 -24.034  0.00  0.00    -0.023 C 
ATOM     19  C   UNL     1      35.328 -16.548 -22.001  0.00  0.00    -0.023 C 
ATOM     20  C   UNL     1      34.318 -16.157 -24.692  0.00  0.00    -0.077 C 
ATOM     21  C   UNL     1      35.365 -15.201 -22.726  0.00  0.00    -0.077 C 
ATOM     22  H   UNL     1      33.384 -15.186 -23.173  0.00  0.00    -0.079 HD
BRANCH  16  23
ATOM     23  C   UNL     1      34.277 -13.776 -24.334  0.00  0.00    -0.050 C 
BRANCH  23  24
ATOM     24  C   UNL     1      33.727 -12.699 -23.436  0.00  0.00    -0.043 C 
ATOM     25  C   UNL     1      32.928 -13.051 -22.358  0.00  0.00    -0.006 C 
ATOM     26  C   UNL     1      34.029 -11.370 -23.700  0.00  0.00    -0.006 C 
ATOM     27  C   UNL     1      32.420 -12.053 -21.526  0.00  0.00    -0.000 C 
ATOM     28  C   UNL     1      33.521 -10.372 -22.867  0.00  0.00    -0.000 C 
ATOM     29  C   UNL     1      32.716 -10.714 -21.781  0.00  0.00    -0.000 C 
ENDBRANCH  23  24
ENDBRANCH  16  23
ENDBRANCH   1  17
TORSDOF 6
ENDMDL
MODEL 2
REMARK VINA RESULT:     -10.9      2.549      4.480
REMARK  Name = 3152
REMARK  6 active torsions:
REMARK  status: ('A' for Active; 'I' for Inactive)
REMARK    1  A    between atoms: C_1  and  C_3
REMARK    2  A    between atoms: C_1  and  C_17
REMARK    3  A    between atoms: C_10  and  O_12
REMARK    4  A    between atoms: C_11  and  O_14
REMARK    5  A    between atoms: N_16  and  C_23
REMARK    6  A    between atoms: C_23  and  C_24
REMARK                            x       y       z     vdW  Elec       q    Type
REMARK                         _______ _______ _______ _____ _____    ______ ____
ROOT
ATOM      1  C   UNL     1      34.576 -22.187 -18.786  0.00  0.00    +0.008 C 
ENDROOT
BRANCH   1   3
ATOM      2  O   UNL     1      31.917 -22.002 -17.366  0.00  0.00    -0.291 OA
ATOM      3  C   UNL     1      34.326 -21.571 -17.424  0.00  0.00    +0.066 C 
ATOM      4  C   UNL     1      35.397 -21.972 -16.384  0.00  0.00    +0.034 C 
ATOM      5  C   UNL     1      33.011 -22.051 -16.835  0.00  0.00    +0.173 C 
ATOM      6  C   UNL     1      34.608 -22.531 -15.243  0.00  0.00    -0.016 C 
ATOM      7  C   UNL     1      33.244 -22.587 -15.503  0.00  0.00    +0.034 C 
ATOM      8  C   UNL     1      35.094 -22.987 -14.027  0.00  0.00    +0.036 C 
ATOM      9  C   UNL     1      32.324 -23.081 -14.598  0.00  0.00    +0.043 C 
ATOM     10  C   UNL     1      34.186 -23.490 -13.090  0.00  0.00    +0.172 C 
ATOM     11  C   UNL     1      32.811 -23.538 -13.373  0.00  0.00    +0.172 C 
BRANCH  10  12
ATOM     12  O   UNL     1      34.654 -23.942 -11.890  0.00  0.00    -0.468 OA
ATOM     13  C   UNL     1      35.889 -23.397 -11.431  0.00  0.00    +0.253 C 
ENDBRANCH  10  12
BRANCH  11  14
ATOM     14  O   UNL     1      31.937 -24.034 -12.452  0.00  0.00    -0.468 OA
ATOM     15  C   UNL     1      30.600 -24.266 -12.888  0.00  0.00    +0.253 C 
ENDBRANCH  11  14
ENDBRANCH   1   3
BRANCH   1  17
ATOM     16  N   UNL     1      35.870 -18.397 -20.402  0.00  0.00    +0.390 N 
ATOM     17  C   UNL     1      35.148 -21.166 -19.764  0.00  0.00    -0.004 C 
ATOM     18  C   UNL     1      34.102 -20.106 -20.128  0.00  0.00    -0.023 C 
ATOM     19  C   UNL     1      36.394 -20.487 -19.186  0.00  0.00    -0.023 C 
ATOM     20  C   UNL     1      34.699 -19.022 -21.029  0.00  0.00    -0.077 C 
ATOM     21  C   UNL     1      36.915 -19.391 -20.118  0.00  0.00    -0.077 C 
ATOM     22  H   UNL     1      35.573 -17.991 -19.514  0.00  0.00    -0.079 HD
BRANCH  16  23
ATOM     23  C   UNL     1      36.398 -17.329 -21.251  0.00  0.00    -0.050 C 
BRANCH  23  24
ATOM     24  C   UNL     1      35.550 -16.087 -21.184  0.00  0.00    -0.043 C 
ATOM     25  C   UNL     1      35.077 -15.647 -19.955  0.00  0.00    -0.006 C 
ATOM     26  C   UNL     1      35.253 -15.398 -22.352  0.00  0.00    -0.006 C 
ATOM     27  C   UNL     1      34.292 -14.496 -19.893  0.00  0.00    -0.000 C 
ATOM     28  C   UNL     1      34.468 -14.246 -22.290  0.00  0.00    -0.000 C 
ATOM     29  C   UNL     1      33.988 -13.796 -21.061  0.00  0.00    -0.000 C 
ENDBRANCH  23  24
ENDBRANCH  16  23
ENDBRANCH   1  17
TORSDOF 6
ENDMDL
MODEL 3
REMARK VINA RESULT:     -10.9      2.644      5.067
REMARK  Name = 3152
REMARK  6 active torsions:
REMARK  status: ('A' for Active; 'I' for Inactive)
REMARK    1  A    between atoms: C_1  and  C_3
REMARK    2  A    between atoms: C_1  and  C_17
REMARK    3  A    between atoms: C_10  and  O_12
REMARK    4  A    between atoms: C_11  and  O_14
REMARK    5  A    between atoms: N_16  and  C_23
REMARK    6  A    between atoms: C_23  and  C_24
REMARK                            x       y       z     vdW  Elec       q    Type
REMARK                         _______ _______ _______ _____ _____    ______ ____
ROOT
ATOM      1  C   UNL     1      34.480 -22.108 -17.964  0.00  0.00    +0.008 C 
ENDROOT
BRANCH   1   3
ATOM      2  O   UNL     1      33.239 -22.617 -15.257  0.00  0.00    -0.291 OA
ATOM      3  C   UNL     1      34.990 -21.595 -16.630  0.00  0.00    +0.066 C 
ATOM      4  C   UNL     1      36.523 -21.731 -16.488  0.00  0.00    +0.034 C 
ATOM      5  C   UNL     1      34.417 -22.399 -15.476  0.00  0.00    +0.173 C 
ATOM      6  C   UNL     1      36.705 -22.488 -15.210  0.00  0.00    -0.016 C 
ATOM      7  C   UNL     1      35.503 -22.880 -14.636  0.00  0.00    +0.034 C 
ATOM      8  C   UNL     1      37.901 -22.827 -14.597  0.00  0.00    +0.036 C 
ATOM      9  C   UNL     1      35.429 -23.603 -13.460  0.00  0.00    +0.043 C 
ATOM     10  C   UNL     1      37.859 -23.556 -13.404  0.00  0.00    +0.172 C 
ATOM     11  C   UNL     1      36.632 -23.943 -12.841  0.00  0.00    +0.172 C 
BRANCH  10  12
ATOM     12  O   UNL     1      39.030 -23.895 -12.792  0.00  0.00    -0.468 OA
ATOM     13  C   UNL     1      39.794 -24.939 -13.390  0.00  0.00    +0.253 C 
ENDBRANCH  10  12
BRANCH  11  14
ATOM     14  O   UNL     1      36.604 -24.657 -11.679  0.00  0.00    -0.468 OA
ATOM     15  C   UNL     1      35.987 -24.037 -10.553  0.00  0.00    +0.253 C 
ENDBRANCH  11  14
ENDBRANCH   1   3
BRANCH   1  17
ATOM     16  N   UNL     1      35.762 -18.662 -20.230  0.00  0.00    +0.390 N 
ATOM     17  C   UNL     1      35.013 -21.271 -19.123  0.00  0.00    -0.004 C 
ATOM     18  C   UNL     1      33.973 -20.244 -19.584  0.00  0.00    -0.023 C 
ATOM     19  C   UNL     1      36.311 -20.555 -18.735  0.00  0.00    -0.023 C 
ATOM     20  C   UNL     1      34.537 -19.335 -20.679  0.00  0.00    -0.077 C 
ATOM     21  C   UNL     1      36.797 -19.637 -19.859  0.00  0.00    -0.077 C 
ATOM     22  H   UNL     1      35.535 -18.113 -19.401  0.00  0.00    -0.079 HD
BRANCH  16  23
ATOM     23  C   UNL     1      36.260 -17.759 -21.267  0.00  0.00    -0.050 C 
BRANCH  23  24
ATOM     24  C   UNL     1      35.581 -16.416 -21.216  0.00  0.00    -0.043 C 
ATOM     25  C   UNL     1      35.237 -15.870 -19.988  0.00  0.00    -0.006 C 
ATOM     26  C   UNL     1      35.308 -15.743 -22.399  0.00  0.00    -0.006 C 
ATOM     27  C   UNL     1      34.608 -14.626 -19.941  0.00  0.00    -0.000 C 
ATOM     28  C   UNL     1      34.679 -14.498 -22.352  0.00  0.00    -0.000 C 
ATOM     29  C   UNL     1      34.329 -13.940 -21.123  0.00  0.00    -0.000 C 
ENDBRANCH  23  24
ENDBRANCH  16  23
ENDBRANCH   1  17
TORSDOF 6
ENDMDL
MODEL 4
REMARK VINA RESULT:     -10.7      2.888      5.405
REMARK  Name = 3152
REMARK  6 active torsions:
REMARK  status: ('A' for Active; 'I' for Inactive)
REMARK    1  A    between atoms: C_1  and  C_3
REMARK    2  A    between atoms: C_1  and  C_17
REMARK    3  A    between atoms: C_10  and  O_12
REMARK    4  A    between atoms: C_11  and  O_14
REMARK    5  A    between atoms: N_16  and  C_23
REMARK    6  A    between atoms: C_23  and  C_24
REMARK                            x       y       z     vdW  Elec       q    Type
REMARK                         _______ _______ _______ _____ _____    ______ ____
ROOT
ATOM      1  C   UNL     1      35.021 -21.575 -18.116  0.00  0.00    +0.008 C 
ENDROOT
BRANCH   1   3
ATOM      2  O   UNL     1      33.795 -23.353 -16.003  0.00  0.00    -0.291 OA
ATOM      3  C   UNL     1      35.314 -21.537 -16.628  0.00  0.00    +0.066 C 
ATOM      4  C   UNL     1      36.824 -21.402 -16.324  0.00  0.00    +0.034 C 
ATOM      5  C   UNL     1      34.894 -22.830 -15.951  0.00  0.00    +0.173 C 
ATOM      6  C   UNL     1      37.115 -22.546 -15.405  0.00  0.00    -0.016 C 
ATOM      7  C   UNL     1      36.016 -23.370 -15.200  0.00  0.00    +0.034 C 
ATOM      8  C   UNL     1      38.322 -22.847 -14.793  0.00  0.00    +0.036 C 
ATOM      9  C   UNL     1      36.057 -24.496 -14.400  0.00  0.00    +0.043 C 
ATOM     10  C   UNL     1      38.394 -23.979 -13.975  0.00  0.00    +0.172 C 
ATOM     11  C   UNL     1      37.270 -24.799 -13.781  0.00  0.00    +0.172 C 
BRANCH  10  12
ATOM     12  O   UNL     1      39.577 -24.284 -13.367  0.00  0.00    -0.468 OA
ATOM     13  C   UNL     1      40.510 -25.055 -14.119  0.00  0.00    +0.253 C 
ENDBRANCH  10  12
BRANCH  11  14
ATOM     14  O   UNL     1      37.354 -25.902 -12.984  0.00  0.00    -0.468 OA
ATOM     15  C   UNL     1      37.454 -25.678 -11.579  0.00  0.00    +0.253 C 
ENDBRANCH  11  14
ENDBRANCH   1   3
BRANCH   1  17
ATOM     16  N   UNL     1      35.914 -18.700 -21.212  0.00  0.00    +0.390 N 
ATOM     17  C   UNL     1      35.355 -20.246 -18.784  0.00  0.00    -0.004 C 
ATOM     18  C   UNL     1      36.700 -20.319 -19.515  0.00  0.00    -0.023 C 
ATOM     19  C   UNL     1      34.255 -19.831 -19.767  0.00  0.00    -0.023 C 
ATOM     20  C   UNL     1      36.994 -19.021 -20.271  0.00  0.00    -0.077 C 
ATOM     21  C   UNL     1      34.629 -18.550 -20.515  0.00  0.00    -0.077 C 
ATOM     22  H   UNL     1      35.826 -19.477 -21.869  0.00  0.00    -0.079 HD
BRANCH  16  23
ATOM     23  C   UNL     1      36.232 -17.487 -21.964  0.00  0.00    -0.050 C 
BRANCH  23  24
ATOM     24  C   UNL     1      35.269 -17.260 -23.099  0.00  0.00    -0.043 C 
ATOM     25  C   UNL     1      35.056 -15.971 -23.567  0.00  0.00    -0.006 C 
ATOM     26  C   UNL     1      34.608 -18.343 -23.661  0.00  0.00    -0.006 C 
ATOM     27  C   UNL     1      34.165 -15.761 -24.619  0.00  0.00    -0.000 C 
ATOM     28  C   UNL     1      33.716 -18.133 -24.714  0.00  0.00    -0.000 C 
ATOM     29  C   UNL     1      33.495 -16.842 -25.192  0.00  0.00    -0.000 C 
ENDBRANCH  23  24
ENDBRANCH  16  23
ENDBRANCH   1  17
TORSDOF 6
ENDMDL
MODEL 5
REMARK VINA RESULT:     -10.6      1.977      3.876
REMARK  Name = 3152
REMARK  6 active torsions:
REMARK  status: ('A' for Active; 'I' for Inactive)
REMARK    1  A    between atoms: C_1  and  C_3
REMARK    2  A    between atoms: C_1  and  C_17
REMARK    3  A    between atoms: C_10  and  O_12
REMARK    4  A    between atoms: C_11  and  O_14
REMARK    5  A    between atoms: N_16  and  C_23
REMARK    6  A    between atoms: C_23  and  C_24
REMARK                            x       y       z     vdW  Elec       q    Type
REMARK                         _______ _______ _______ _____ _____    ______ ____
ROOT
ATOM      1  C   UNL     1      36.451 -19.781 -18.740  0.00  0.00    +0.008 C 
ENDROOT
BRANCH   1   3
ATOM      2  O   UNL     1      37.461 -21.479 -16.455  0.00  0.00    -0.291 OA
ATOM      3  C   UNL     1      36.038 -21.207 -18.429  0.00  0.00    +0.066 C 
ATOM      4  C   UNL     1      34.512 -21.423 -18.548  0.00  0.00    +0.034 C 
ATOM      5  C   UNL     1      36.373 -21.576 -16.994  0.00  0.00    +0.173 C 
ATOM      6  C   UNL     1      34.121 -22.009 -17.228  0.00  0.00    -0.016 C 
ATOM      7  C   UNL     1      35.182 -22.088 -16.335  0.00  0.00    +0.034 C 
ATOM      8  C   UNL     1      32.862 -22.438 -16.838  0.00  0.00    +0.036 C 
ATOM      9  C   UNL     1      35.051 -22.582 -15.051  0.00  0.00    +0.043 C 
ATOM     10  C   UNL     1      32.699 -22.946 -15.546  0.00  0.00    +0.172 C 
ATOM     11  C   UNL     1      33.785 -23.016 -14.658  0.00  0.00    +0.172 C 
BRANCH  10  12
ATOM     12  O   UNL     1      31.464 -23.371 -15.151  0.00  0.00    -0.468 OA
ATOM     13  C   UNL     1      30.541 -22.372 -14.726  0.00  0.00    +0.253 C 
ENDBRANCH  10  12
BRANCH  11  14
ATOM     14  O   UNL     1      33.611 -23.511 -13.399  0.00  0.00    -0.468 OA
ATOM     15  C   UNL     1      34.756 -23.533 -12.549  0.00  0.00    +0.253 C 
ENDBRANCH  11  14
ENDBRANCH   1   3
BRANCH   1  17
ATOM     16  N   UNL     1      35.336 -17.487 -22.225  0.00  0.00    +0.390 N 
ATOM     17  C   UNL     1      36.185 -19.430 -20.200  0.00  0.00    -0.004 C 
ATOM     18  C   UNL     1      34.714 -19.059 -20.419  0.00  0.00    -0.023 C 
ATOM     19  C   UNL     1      37.083 -18.277 -20.662  0.00  0.00    -0.023 C 
ATOM     20  C   UNL     1      34.463 -18.609 -21.860  0.00  0.00    -0.077 C 
ATOM     21  C   UNL     1      36.753 -17.854 -22.095  0.00  0.00    -0.077 C 
ATOM     22  H   UNL     1      35.149 -16.719 -21.580  0.00  0.00    -0.079 HD
BRANCH  16  23
ATOM     23  C   UNL     1      35.048 -17.034 -23.586  0.00  0.00    -0.050 C 
BRANCH  23  24
ATOM     24  C   UNL     1      34.631 -15.588 -23.621  0.00  0.00    -0.043 C 
ATOM     25  C   UNL     1      33.913 -15.110 -24.708  0.00  0.00    -0.006 C 
ATOM     26  C   UNL     1      34.970 -14.754 -22.565  0.00  0.00    -0.006 C 
ATOM     27  C   UNL     1      33.526 -13.771 -24.739  0.00  0.00    -0.000 C 
ATOM     28  C   UNL     1      34.583 -13.414 -22.596  0.00  0.00    -0.000 C 
ATOM     29  C   UNL     1      33.861 -12.922 -23.684  0.00  0.00    -0.000 C 
ENDBRANCH  23  24
ENDBRANCH  16  23
ENDBRANCH   1  17
TORSDOF 6
ENDMDL
MODEL 6
REMARK VINA RESULT:     -10.4      1.629      2.936
REMARK  Name = 3152
REMARK  6 active torsions:
REMARK  status: ('A' for Active; 'I' for Inactive)
REMARK    1  A    between atoms: C_1  and  C_3
REMARK    2  A    between atoms: C_1  and  C_17
REMARK    3  A    between atoms: C_10  and  O_12
REMARK    4  A    between atoms: C_11  and  O_14
REMARK    5  A    between atoms: N_16  and  C_23
REMARK    6  A    between atoms: C_23  and  C_24
REMARK                            x       y       z     vdW  Elec       q    Type
REMARK                         _______ _______ _______ _____ _____    ______ ____
ROOT
ATOM      1  C   UNL     1      36.087 -16.947 -21.067  0.00  0.00    +0.008 C 
ENDROOT
BRANCH   1   3
ATOM      2  O   UNL     1      37.709 -19.244 -19.962  0.00  0.00    -0.291 OA
ATOM      3  C   UNL     1      35.765 -18.423 -21.204  0.00  0.00    +0.066 C 
ATOM      4  C   UNL     1      34.270 -18.730 -20.959  0.00  0.00    +0.034 C 
ATOM      5  C   UNL     1      36.508 -19.247 -20.168  0.00  0.00    +0.173 C 
ATOM      6  C   UNL     1      34.283 -19.786 -19.899  0.00  0.00    -0.016 C 
ATOM      7  C   UNL     1      35.561 -20.075 -19.438  0.00  0.00    +0.034 C 
ATOM      8  C   UNL     1      33.192 -20.448 -19.357  0.00  0.00    +0.036 C 
ATOM      9  C   UNL     1      35.813 -21.007 -18.449  0.00  0.00    +0.043 C 
ATOM     10  C   UNL     1      33.415 -21.399 -18.357  0.00  0.00    +0.172 C 
ATOM     11  C   UNL     1      34.716 -21.676 -17.905  0.00  0.00    +0.172 C 
BRANCH  10  12
ATOM     12  O   UNL     1      32.348 -22.056 -17.817  0.00  0.00    -0.468 OA
ATOM     13  C   UNL     1      32.229 -22.039 -16.397  0.00  0.00    +0.253 C 
ENDBRANCH  10  12
BRANCH  11  14
ATOM     14  O   UNL     1      34.919 -22.603 -16.926  0.00  0.00    -0.468 OA
ATOM     15  C   UNL     1      35.750 -22.219 -15.833  0.00  0.00    +0.253 C 
ENDBRANCH  11  14
ENDBRANCH   1   3
BRANCH   1  17
ATOM     16  N   UNL     1      34.353 -13.644 -23.243  0.00  0.00    +0.390 N 
ATOM     17  C   UNL     1      35.045 -16.082 -21.768  0.00  0.00    -0.004 C 
ATOM     18  C   UNL     1      34.913 -14.716 -21.084  0.00  0.00    -0.023 C 
ATOM     19  C   UNL     1      35.394 -15.889 -23.247  0.00  0.00    -0.023 C 
ATOM     20  C   UNL     1      33.943 -13.806 -21.842  0.00  0.00    -0.077 C 
ATOM     21  C   UNL     1      34.407 -14.940 -23.933  0.00  0.00    -0.077 C 
ATOM     22  H   UNL     1      35.291 -13.243 -23.253  0.00  0.00    -0.079 HD
BRANCH  16  23
ATOM     23  C   UNL     1      33.447 -12.732 -23.940  0.00  0.00    -0.050 C 
BRANCH  23  24
ATOM     24  C   UNL     1      34.095 -11.402 -24.221  0.00  0.00    -0.043 C 
ATOM     25  C   UNL     1      34.212 -10.470 -23.201  0.00  0.00    -0.006 C 
ATOM     26  C   UNL     1      34.565 -11.128 -25.498  0.00  0.00    -0.006 C 
ATOM     27  C   UNL     1      34.813  -9.238 -23.462  0.00  0.00    -0.000 C 
ATOM     28  C   UNL     1      35.167  -9.897 -25.759  0.00  0.00    -0.000 C 
ATOM     29  C   UNL     1      35.290  -8.952 -24.741  0.00  0.00    -0.000 C 
ENDBRANCH  23  24
ENDBRANCH  16  23
ENDBRANCH   1  17
TORSDOF 6
ENDMDL
MODEL 7
REMARK VINA RESULT:     -10.3      2.005      3.368
REMARK  Name = 3152
REMARK  6 active torsions:
REMARK  status: ('A' for Active; 'I' for Inactive)
REMARK    1  A    between atoms: C_1  and  C_3
REMARK    2  A    between atoms: C_1  and  C_17
REMARK    3  A    between atoms: C_10  and  O_12
REMARK    4  A    between atoms: C_11  and  O_14
REMARK    5  A    between atoms: N_16  and  C_23
REMARK    6  A    between atoms: C_23  and  C_24
REMARK                            x       y       z     vdW  Elec       q    Type
REMARK                         _______ _______ _______ _____ _____    ______ ____
ROOT
ATOM      1  C   UNL     1      35.663 -21.405 -19.686  0.00  0.00    +0.008 C 
ENDROOT
BRANCH   1   3
ATOM      2  O   UNL     1      32.890 -21.702 -18.526  0.00  0.00    -0.291 OA
ATOM      3  C   UNL     1      35.202 -20.921 -18.324  0.00  0.00    +0.066 C 
ATOM      4  C   UNL     1      36.224 -21.230 -17.207  0.00  0.00    +0.034 C 
ATOM      5  C   UNL     1      33.928 -21.626 -17.893  0.00  0.00    +0.173 C 
ATOM      6  C   UNL     1      35.429 -21.971 -16.179  0.00  0.00    -0.016 C 
ATOM      7  C   UNL     1      34.119 -22.208 -16.574  0.00  0.00    +0.034 C 
ATOM      8  C   UNL     1      35.868 -22.430 -14.946  0.00  0.00    +0.036 C 
ATOM      9  C   UNL     1      33.206 -22.889 -15.791  0.00  0.00    +0.043 C 
ATOM     10  C   UNL     1      34.967 -23.120 -14.130  0.00  0.00    +0.172 C 
ATOM     11  C   UNL     1      33.646 -23.349 -14.549  0.00  0.00    +0.172 C 
BRANCH  10  12
ATOM     12  O   UNL     1      35.388 -23.576 -12.915  0.00  0.00    -0.468 OA
ATOM     13  C   UNL     1      36.764 -23.386 -12.594  0.00  0.00    +0.253 C 
ENDBRANCH  10  12
BRANCH  11  14
ATOM     14  O   UNL     1      32.778 -24.027 -13.744  0.00  0.00    -0.468 OA
ATOM     15  C   UNL     1      31.676 -23.292 -13.218  0.00  0.00    +0.253 C 
ENDBRANCH  11  14
ENDBRANCH   1   3
BRANCH   1  17
ATOM     16  N   UNL     1      35.733 -17.371 -21.227  0.00  0.00    +0.390 N 
ATOM     17  C   UNL     1      35.896 -20.239 -20.642  0.00  0.00    -0.004 C 
ATOM     18  C   UNL     1      34.577 -19.546 -20.998  0.00  0.00    -0.023 C 
ATOM     19  C   UNL     1      36.870 -19.220 -20.040  0.00  0.00    -0.023 C 
ATOM     20  C   UNL     1      34.814 -18.315 -21.876  0.00  0.00    -0.077 C 
ATOM     21  C   UNL     1      37.032 -18.000 -20.950  0.00  0.00    -0.077 C 
ATOM     22  H   UNL     1      35.322 -17.092 -20.336  0.00  0.00    -0.079 HD
BRANCH  16  23
ATOM     23  C   UNL     1      35.909 -16.177 -22.054  0.00  0.00    -0.050 C 
BRANCH  23  24
ATOM     24  C   UNL     1      34.966 -15.074 -21.656  0.00  0.00    -0.043 C 
ATOM     25  C   UNL     1      34.412 -14.262 -22.635  0.00  0.00    -0.006 C 
ATOM     26  C   UNL     1      34.663 -14.884 -20.314  0.00  0.00    -0.006 C 
ATOM     27  C   UNL     1      33.537 -13.240 -22.267  0.00  0.00    -0.000 C 
ATOM     28  C   UNL     1      33.788 -13.862 -19.946  0.00  0.00    -0.000 C 
ATOM     29  C   UNL     1      33.225 -13.040 -20.922  0.00  0.00    -0.000 C 
ENDBRANCH  23  24
ENDBRANCH  16  23
ENDBRANCH   1  17
TORSDOF 6
ENDMDL
MODEL 8
REMARK VINA RESULT:     -10.3      4.721     11.177
REMARK  Name = 3152
REMARK  6 active torsions:
REMARK  status: ('A' for Active; 'I' for Inactive)
REMARK    1  A    between atoms: C_1  and  C_3
REMARK    2  A    between atoms: C_1  and  C_17
REMARK    3  A    between atoms: C_10  and  O_12
REMARK    4  A    between atoms: C_11  and  O_14
REMARK    5  A    between atoms: N_16  and  C_23
REMARK    6  A    between atoms: C_23  and  C_24
REMARK                            x       y       z     vdW  Elec       q    Type
REMARK                         _______ _______ _______ _____ _____    ______ ____
ROOT
ATOM      1  C   UNL     1      33.381 -12.669 -23.377  0.00  0.00    +0.008 C 
ENDROOT
BRANCH   1   3
ATOM      2  O   UNL     1      35.079 -10.405 -24.432  0.00  0.00    -0.291 OA
ATOM      3  C   UNL     1      33.829 -11.445 -22.602  0.00  0.00    +0.066 C 
ATOM      4  C   UNL     1      32.695 -10.835 -21.747  0.00  0.00    +0.034 C 
ATOM      5  C   UNL     1      34.257 -10.328 -23.537  0.00  0.00    +0.173 C 
ATOM      6  C   UNL     1      32.650  -9.401 -22.170  0.00  0.00    -0.016 C 
ATOM      7  C   UNL     1      33.534  -9.111 -23.200  0.00  0.00    +0.034 C 
ATOM      8  C   UNL     1      31.835  -8.400 -21.663  0.00  0.00    +0.036 C 
ATOM      9  C   UNL     1      33.653  -7.854 -23.761  0.00  0.00    +0.043 C 
ATOM     10  C   UNL     1      31.935  -7.116 -22.208  0.00  0.00    +0.172 C 
ATOM     11  C   UNL     1      32.836  -6.845 -23.250  0.00  0.00    +0.172 C 
BRANCH  10  12
ATOM     12  O   UNL     1      31.138  -6.124 -21.716  0.00  0.00    -0.468 OA
ATOM     13  C   UNL     1      31.608  -5.429 -20.563  0.00  0.00    +0.253 C 
ENDBRANCH  10  12
BRANCH  11  14
ATOM     14  O   UNL     1      32.921  -5.589 -23.775  0.00  0.00    -0.468 OA
ATOM     15  C   UNL     1      31.983  -5.250 -24.794  0.00  0.00    +0.253 C 
ENDBRANCH  11  14
ENDBRANCH   1   3
BRANCH   1  17
ATOM     16  N   UNL     1      35.025 -16.591 -22.622  0.00  0.00    +0.390 N 
ATOM     17  C   UNL     1      34.398 -13.801 -23.268  0.00  0.00    -0.004 C 
ATOM     18  C   UNL     1      34.508 -14.306 -21.825  0.00  0.00    -0.023 C 
ATOM     19  C   UNL     1      34.031 -14.963 -24.197  0.00  0.00    -0.023 C 
ATOM     20  C   UNL     1      35.452 -15.508 -21.728  0.00  0.00    -0.077 C 
ATOM     21  C   UNL     1      34.990 -16.142 -24.021  0.00  0.00    -0.077 C 
ATOM     22  H   UNL     1      34.079 -16.865 -22.356  0.00  0.00    -0.079 HD
BRANCH  16  23
ATOM     23  C   UNL     1      35.905 -17.751 -22.479  0.00  0.00    -0.050 C 
BRANCH  23  24
ATOM     24  C   UNL     1      35.474 -18.648 -21.350  0.00  0.00    -0.043 C 
ATOM     25  C   UNL     1      34.129 -18.949 -21.192  0.00  0.00    -0.006 C 
ATOM     26  C   UNL     1      36.429 -19.162 -20.483  0.00  0.00    -0.006 C 
ATOM     27  C   UNL     1      33.729 -19.781 -20.146  0.00  0.00    -0.000 C 
ATOM     28  C   UNL     1      36.029 -19.995 -19.437  0.00  0.00    -0.000 C 
ATOM     29  C   UNL     1      34.679 -20.304 -19.269  0.00  0.00    -0.000 C 
ENDBRANCH  23  24
ENDBRANCH  16  23
ENDBRANCH   1  17
TORSDOF 6
ENDMDL
MODEL 9
REMARK VINA RESULT:     -10.2      2.136      4.681
REMARK  Name = 3152
REMARK  6 active torsions:
REMARK  status: ('A' for Active; 'I' for Inactive)
REMARK    1  A    between atoms: C_1  and  C_3
REMARK    2  A    between atoms: C_1  and  C_17
REMARK    3  A    between atoms: C_10  and  O_12
REMARK    4  A    between atoms: C_11  and  O_14
REMARK    5  A    between atoms: N_16  and  C_23
REMARK    6  A    between atoms: C_23  and  C_24
REMARK                            x       y       z     vdW  Elec       q    Type
REMARK                         _______ _______ _______ _____ _____    ______ ____
ROOT
ATOM      1  C   UNL     1      35.854 -20.906 -17.955  0.00  0.00    +0.008 C 
ENDROOT
BRANCH   1   3
ATOM      2  O   UNL     1      35.746 -22.955 -15.739  0.00  0.00    -0.291 OA
ATOM      3  C   UNL     1      34.862 -22.046 -17.833  0.00  0.00    +0.066 C 
ATOM      4  C   UNL     1      33.414 -21.610 -18.154  0.00  0.00    +0.034 C 
ATOM      5  C   UNL     1      34.804 -22.575 -16.411  0.00  0.00    +0.173 C 
ATOM      6  C   UNL     1      32.630 -22.033 -16.952  0.00  0.00    -0.016 C 
ATOM      7  C   UNL     1      33.424 -22.576 -15.950  0.00  0.00    +0.034 C 
ATOM      8  C   UNL     1      31.262 -21.921 -16.758  0.00  0.00    +0.036 C 
ATOM      9  C   UNL     1      32.918 -23.021 -14.744  0.00  0.00    +0.043 C 
ATOM     10  C   UNL     1      30.719 -22.365 -15.548  0.00  0.00    +0.172 C 
ATOM     11  C   UNL     1      31.541 -22.910 -14.548  0.00  0.00    +0.172 C 
BRANCH  10  12
ATOM     12  O   UNL     1      29.374 -22.259 -15.347  0.00  0.00    -0.468 OA
ATOM     13  C   UNL     1      28.536 -23.135 -16.098  0.00  0.00    +0.253 C 
ENDBRANCH  10  12
BRANCH  11  14
ATOM     14  O   UNL     1      30.999 -23.337 -13.371  0.00  0.00    -0.468 OA
ATOM     15  C   UNL     1      31.485 -24.569 -12.844  0.00  0.00    +0.253 C 
ENDBRANCH  11  14
ENDBRANCH   1   3
BRANCH   1  17
ATOM     16  N   UNL     1      35.656 -18.057 -21.195  0.00  0.00    +0.390 N 
ATOM     17  C   UNL     1      35.884 -20.342 -19.372  0.00  0.00    -0.004 C 
ATOM     18  C   UNL     1      34.534 -19.719 -19.746  0.00  0.00    -0.023 C 
ATOM     19  C   UNL     1      36.996 -19.299 -19.527  0.00  0.00    -0.023 C 
ATOM     20  C   UNL     1      34.588 -19.063 -21.127  0.00  0.00    -0.077 C 
ATOM     21  C   UNL     1      36.968 -18.657 -20.916  0.00  0.00    -0.077 C 
ATOM     22  H   UNL     1      35.472 -17.353 -20.479  0.00  0.00    -0.079 HD
BRANCH  16  23
ATOM     23  C   UNL     1      35.661 -17.402 -22.503  0.00  0.00    -0.050 C 
BRANCH  23  24
ATOM     24  C   UNL     1      35.189 -15.975 -22.419  0.00  0.00    -0.043 C 
ATOM     25  C   UNL     1      35.130 -15.347 -21.184  0.00  0.00    -0.006 C 
ATOM     26  C   UNL     1      34.821 -15.308 -23.580  0.00  0.00    -0.006 C 
ATOM     27  C   UNL     1      34.693 -14.024 -21.106  0.00  0.00    -0.000 C 
ATOM     28  C   UNL     1      34.385 -13.985 -23.502  0.00  0.00    -0.000 C 
ATOM     29  C   UNL     1      34.321 -13.343 -22.266  0.00  0.00    -0.000 C 
ENDBRANCH  23  24
ENDBRANCH  16  23
ENDBRANCH   1  17
TORSDOF 6
ENDMDL
