MODEL 1
REMARK VINA RESULT:     -11.7      0.000      0.000
REMARK  Name = 447476
REMARK  4 active torsions:
REMARK  status: ('A' for Active; 'I' for Inactive)
REMARK    1  A    between atoms: C_2  and  C_17
REMARK    2  A    between atoms: C_8  and  C_13
REMARK    3  A    between atoms: C_18  and  O_29
REMARK    4  A    between atoms: C_19  and  C_23
REMARK                            x       y       z     vdW  Elec       q    Type
REMARK                         _______ _______ _______ _____ _____    ______ ____
ROOT
ATOM      1  N   UNL     1      36.183 -20.556 -18.283  0.00  0.00    -0.312 N 
ATOM      2  C   UNL     1      34.959 -21.108 -18.018  0.00  0.00    +0.051 C 
ATOM      3  C   UNL     1      34.806 -19.852 -19.891  0.00  0.00    +0.015 C 
ATOM      4  C   UNL     1      36.120 -19.783 -19.422  0.00  0.00    +0.048 C 
ATOM      5  C   UNL     1      34.085 -20.691 -18.996  0.00  0.00    +0.016 C 
ATOM      6  C   UNL     1      34.466 -19.143 -21.061  0.00  0.00    +0.004 C 
ATOM      7  C   UNL     1      37.114 -19.038 -20.064  0.00  0.00    +0.015 C 
ATOM      8  C   UNL     1      35.450 -18.393 -21.715  0.00  0.00    +0.031 C 
ATOM      9  C   UNL     1      36.752 -18.342 -21.222  0.00  0.00    +0.004 C 
ATOM     10  H   UNL     1      36.992 -20.690 -17.738  0.00  0.00    +0.152 HD
ENDROOT
BRANCH   8  13
ATOM     11  N   UNL     1      35.612 -16.381 -23.162  0.00  0.00    -0.343 N 
ATOM     12  N   UNL     1      34.297 -18.199 -23.814  0.00  0.00    -0.285 NA
ATOM     13  C   UNL     1      35.107 -17.658 -22.922  0.00  0.00    +0.117 C 
ATOM     14  H   UNL     1      35.367 -15.901 -23.985  0.00  0.00    +0.144 HD
ATOM     15  H   UNL     1      36.216 -15.960 -22.507  0.00  0.00    +0.144 HD
ATOM     16  H   UNL     1      34.063 -17.704 -24.631  0.00  0.00    +0.188 HD
ENDBRANCH   8  13
BRANCH   2  17
ATOM     17  C   UNL     1      34.738 -21.965 -16.880  0.00  0.00    +0.047 C 
ATOM     18  C   UNL     1      35.791 -22.339 -16.042  0.00  0.00    +0.135 C 
ATOM     19  C   UNL     1      35.553 -23.170 -14.948  0.00  0.00    +0.034 C 
ATOM     20  C   UNL     1      33.446 -22.426 -16.617  0.00  0.00    +0.004 C 
ATOM     21  C   UNL     1      34.261 -23.627 -14.687  0.00  0.00    +0.003 C 
ATOM     22  C   UNL     1      33.208 -23.255 -15.522  0.00  0.00    +0.000 C 
BRANCH  19  23
ATOM     23  C   UNL     1      36.631 -23.569 -14.065  0.00  0.00    +0.003 C 
ATOM     24  C   UNL     1      36.893 -22.831 -12.911  0.00  0.00    +0.000 C 
ATOM     25  C   UNL     1      37.403 -24.688 -14.372  0.00  0.00    +0.000 C 
ATOM     26  C   UNL     1      37.931 -23.215 -12.061  0.00  0.00    +0.000 C 
ATOM     27  C   UNL     1      38.441 -25.071 -13.522  0.00  0.00    +0.000 C 
ATOM     28  C   UNL     1      38.704 -24.335 -12.367  0.00  0.00    +0.000 C 
ENDBRANCH  19  23
BRANCH  18  29
ATOM     29  O   UNL     1      37.056 -21.889 -16.297  0.00  0.00    -0.505 OA
ATOM     30  H   UNL     1      37.786 -22.470 -16.213  0.00  0.00    +0.292 HD
ENDBRANCH  18  29
ENDBRANCH   2  17
TORSDOF 4
ENDMDL
MODEL 2
REMARK VINA RESULT:     -11.0      1.143      1.970
REMARK  Name = 447476
REMARK  4 active torsions:
REMARK  status: ('A' for Active; 'I' for Inactive)
REMARK    1  A    between atoms: C_2  and  C_17
REMARK    2  A    between atoms: C_8  and  C_13
REMARK    3  A    between atoms: C_18  and  O_29
REMARK    4  A    between atoms: C_19  and  C_23
REMARK                            x       y       z     vdW  Elec       q    Type
REMARK                         _______ _______ _______ _____ _____    ______ ____
ROOT
ATOM      1  N   UNL     1      33.244 -21.287 -18.072  0.00  0.00    -0.312 N 
ATOM      2  C   UNL     1      34.343 -21.695 -17.366  0.00  0.00    +0.051 C 
ATOM      3  C   UNL     1      35.023 -20.443 -19.122  0.00  0.00    +0.015 C 
ATOM      4  C   UNL     1      33.629 -20.521 -19.150  0.00  0.00    +0.048 C 
ATOM      5  C   UNL     1      35.460 -21.188 -17.990  0.00  0.00    +0.016 C 
ATOM      6  C   UNL     1      35.682 -19.706 -20.126  0.00  0.00    +0.004 C 
ATOM      7  C   UNL     1      32.857 -19.898 -20.137  0.00  0.00    +0.015 C 
ATOM      8  C   UNL     1      34.923 -19.078 -21.120  0.00  0.00    +0.031 C 
ATOM      9  C   UNL     1      33.533 -19.174 -21.124  0.00  0.00    +0.004 C 
ATOM     10  H   UNL     1      32.312 -21.510 -17.843  0.00  0.00    +0.152 HD
ENDROOT
BRANCH   8  13
ATOM     11  N   UNL     1      36.815 -17.685 -21.923  0.00  0.00    -0.343 N 
ATOM     12  N   UNL     1      35.047 -18.209 -23.357  0.00  0.00    -0.285 NA
ATOM     13  C   UNL     1      35.596 -18.316 -22.161  0.00  0.00    +0.117 C 
ATOM     14  H   UNL     1      37.254 -17.174 -22.640  0.00  0.00    +0.144 HD
ATOM     15  H   UNL     1      37.239 -17.751 -21.035  0.00  0.00    +0.144 HD
ATOM     16  H   UNL     1      35.500 -17.694 -24.063  0.00  0.00    +0.188 HD
ENDBRANCH   8  13
BRANCH   2  17
ATOM     17  C   UNL     1      34.232 -22.513 -16.183  0.00  0.00    +0.047 C 
ATOM     18  C   UNL     1      35.368 -23.013 -15.543  0.00  0.00    +0.135 C 
ATOM     19  C   UNL     1      35.236 -23.802 -14.400  0.00  0.00    +0.034 C 
ATOM     20  C   UNL     1      32.964 -22.806 -15.677  0.00  0.00    +0.004 C 
ATOM     21  C   UNL     1      33.968 -24.092 -13.896  0.00  0.00    +0.003 C 
ATOM     22  C   UNL     1      32.833 -23.595 -14.534  0.00  0.00    +0.000 C 
BRANCH  19  23
ATOM     23  C   UNL     1      36.402 -24.330 -13.719  0.00  0.00    +0.003 C 
ATOM     24  C   UNL     1      36.925 -25.566 -14.096  0.00  0.00    +0.000 C 
ATOM     25  C   UNL     1      36.996 -23.601 -12.690  0.00  0.00    +0.000 C 
ATOM     26  C   UNL     1      38.047 -26.075 -13.441  0.00  0.00    +0.000 C 
ATOM     27  C   UNL     1      38.118 -24.111 -12.036  0.00  0.00    +0.000 C 
ATOM     28  C   UNL     1      38.643 -25.346 -12.412  0.00  0.00    +0.000 C 
ENDBRANCH  19  23
BRANCH  18  29
ATOM     29  O   UNL     1      36.610 -22.727 -16.036  0.00  0.00    -0.505 OA
ATOM     30  H   UNL     1      37.374 -23.038 -15.593  0.00  0.00    +0.292 HD
ENDBRANCH  18  29
ENDBRANCH   2  17
TORSDOF 4
ENDMDL
MODEL 3
REMARK VINA RESULT:     -10.8      3.707      8.758
REMARK  Name = 447476
REMARK  4 active torsions:
REMARK  status: ('A' for Active; 'I' for Inactive)
REMARK    1  A    between atoms: C_2  and  C_17
REMARK    2  A    between atoms: C_8  and  C_13
REMARK    3  A    between atoms: C_18  and  O_29
REMARK    4  A    between atoms: C_19  and  C_23
REMARK                            x       y       z     vdW  Elec       q    Type
REMARK                         _______ _______ _______ _____ _____    ______ ____
ROOT
ATOM      1  N   UNL     1      32.631 -21.311 -17.782  0.00  0.00    -0.312 N 
ATOM      2  C   UNL     1      33.965 -21.546 -17.580  0.00  0.00    +0.051 C 
ATOM      3  C   UNL     1      32.777 -22.666 -16.015  0.00  0.00    +0.015 C 
ATOM      4  C   UNL     1      31.882 -21.982 -16.841  0.00  0.00    +0.048 C 
ATOM      5  C   UNL     1      34.087 -22.381 -16.493  0.00  0.00    +0.016 C 
ATOM      6  C   UNL     1      32.265 -23.443 -14.957  0.00  0.00    +0.004 C 
ATOM      7  C   UNL     1      30.496 -22.035 -16.661  0.00  0.00    +0.015 C 
ATOM      8  C   UNL     1      30.880 -23.506 -14.764  0.00  0.00    +0.031 C 
ATOM      9  C   UNL     1      30.011 -22.812 -15.603  0.00  0.00    +0.004 C 
ATOM     10  H   UNL     1      32.261 -20.743 -18.496  0.00  0.00    +0.152 HD
ENDROOT
BRANCH   8  13
ATOM     11  N   UNL     1      29.176 -25.050 -13.827  0.00  0.00    -0.343 N 
ATOM     12  N   UNL     1      30.966 -24.330 -12.509  0.00  0.00    -0.285 NA
ATOM     13  C   UNL     1      30.344 -24.305 -13.674  0.00  0.00    +0.117 C 
ATOM     14  H   UNL     1      28.830 -25.583 -13.076  0.00  0.00    +0.144 HD
ATOM     15  H   UNL     1      28.696 -25.041 -14.688  0.00  0.00    +0.144 HD
ATOM     16  H   UNL     1      30.605 -24.870 -11.769  0.00  0.00    +0.188 HD
ENDBRANCH   8  13
BRANCH   2  17
ATOM     17  C   UNL     1      34.980 -20.965 -18.423  0.00  0.00    +0.047 C 
ATOM     18  C   UNL     1      34.647 -20.062 -19.436  0.00  0.00    +0.135 C 
ATOM     19  C   UNL     1      35.647 -19.514 -20.239  0.00  0.00    +0.034 C 
ATOM     20  C   UNL     1      36.316 -21.316 -18.218  0.00  0.00    +0.004 C 
ATOM     21  C   UNL     1      36.980 -19.865 -20.031  0.00  0.00    +0.003 C 
ATOM     22  C   UNL     1      37.315 -20.766 -19.021  0.00  0.00    +0.000 C 
BRANCH  19  23
ATOM     23  C   UNL     1      35.323 -18.574 -21.295  0.00  0.00    +0.003 C 
ATOM     24  C   UNL     1      35.546 -17.212 -21.104  0.00  0.00    +0.000 C 
ATOM     25  C   UNL     1      34.791 -19.036 -22.498  0.00  0.00    +0.000 C 
ATOM     26  C   UNL     1      35.236 -16.307 -22.120  0.00  0.00    +0.000 C 
ATOM     27  C   UNL     1      34.481 -18.131 -23.512  0.00  0.00    +0.000 C 
ATOM     28  C   UNL     1      34.704 -16.767 -23.324  0.00  0.00    +0.000 C 
ENDBRANCH  19  23
BRANCH  18  29
ATOM     29  O   UNL     1      33.341 -19.717 -19.638  0.00  0.00    -0.505 OA
ATOM     30  H   UNL     1      32.765 -20.304 -20.088  0.00  0.00    +0.292 HD
ENDBRANCH  18  29
ENDBRANCH   2  17
TORSDOF 4
ENDMDL
MODEL 4
REMARK VINA RESULT:     -10.8      6.018     10.006
REMARK  Name = 447476
REMARK  4 active torsions:
REMARK  status: ('A' for Active; 'I' for Inactive)
REMARK    1  A    between atoms: C_2  and  C_17
REMARK    2  A    between atoms: C_8  and  C_13
REMARK    3  A    between atoms: C_18  and  O_29
REMARK    4  A    between atoms: C_19  and  C_23
REMARK                            x       y       z     vdW  Elec       q    Type
REMARK                         _______ _______ _______ _____ _____    ______ ____
ROOT
ATOM      1  N   UNL     1      32.942 -12.943 -21.828  0.00  0.00    -0.312 N 
ATOM      2  C   UNL     1      33.783 -13.170 -22.884  0.00  0.00    +0.051 C 
ATOM      3  C   UNL     1      33.448 -10.943 -22.677  0.00  0.00    +0.015 C 
ATOM      4  C   UNL     1      32.719 -11.592 -21.678  0.00  0.00    +0.048 C 
ATOM      5  C   UNL     1      34.114 -11.951 -23.431  0.00  0.00    +0.016 C 
ATOM      6  C   UNL     1      33.397  -9.537 -22.750  0.00  0.00    +0.004 C 
ATOM      7  C   UNL     1      31.938 -10.903 -20.745  0.00  0.00    +0.015 C 
ATOM      8  C   UNL     1      32.618  -8.834 -21.822  0.00  0.00    +0.031 C 
ATOM      9  C   UNL     1      31.901  -9.508 -20.837  0.00  0.00    +0.004 C 
ATOM     10  H   UNL     1      32.551 -13.645 -21.258  0.00  0.00    +0.152 HD
ENDROOT
BRANCH   8  13
ATOM     11  N   UNL     1      31.642  -6.732 -22.714  0.00  0.00    -0.343 N 
ATOM     12  N   UNL     1      33.391  -6.655 -21.167  0.00  0.00    -0.285 NA
ATOM     13  C   UNL     1      32.560  -7.382 -21.891  0.00  0.00    +0.117 C 
ATOM     14  H   UNL     1      31.619  -5.749 -22.746  0.00  0.00    +0.144 HD
ATOM     15  H   UNL     1      31.016  -7.258 -23.264  0.00  0.00    +0.144 HD
ATOM     16  H   UNL     1      33.354  -5.673 -21.212  0.00  0.00    +0.188 HD
ENDBRANCH   8  13
BRANCH   2  17
ATOM     17  C   UNL     1      34.186 -14.500 -23.269  0.00  0.00    +0.047 C 
ATOM     18  C   UNL     1      34.711 -15.393 -22.332  0.00  0.00    +0.135 C 
ATOM     19  C   UNL     1      35.095 -16.674 -22.727  0.00  0.00    +0.034 C 
ATOM     20  C   UNL     1      34.047 -14.893 -24.601  0.00  0.00    +0.004 C 
ATOM     21  C   UNL     1      34.954 -17.065 -24.059  0.00  0.00    +0.003 C 
ATOM     22  C   UNL     1      34.430 -16.175 -24.995  0.00  0.00    +0.000 C 
BRANCH  19  23
ATOM     23  C   UNL     1      35.641 -17.618 -21.772  0.00  0.00    +0.003 C 
ATOM     24  C   UNL     1      37.014 -17.650 -21.535  0.00  0.00    +0.000 C 
ATOM     25  C   UNL     1      34.792 -18.490 -21.092  0.00  0.00    +0.000 C 
ATOM     26  C   UNL     1      37.540 -18.558 -20.615  0.00  0.00    +0.000 C 
ATOM     27  C   UNL     1      35.319 -19.397 -20.173  0.00  0.00    +0.000 C 
ATOM     28  C   UNL     1      36.692 -19.430 -19.934  0.00  0.00    +0.000 C 
ENDBRANCH  19  23
BRANCH  18  29
ATOM     29  O   UNL     1      34.847 -15.010 -21.028  0.00  0.00    -0.505 OA
ATOM     30  H   UNL     1      35.693 -15.009 -20.625  0.00  0.00    +0.292 HD
ENDBRANCH  18  29
ENDBRANCH   2  17
TORSDOF 4
ENDMDL
MODEL 5
REMARK VINA RESULT:     -10.7      9.963     13.873
REMARK  Name = 447476
REMARK  4 active torsions:
REMARK  status: ('A' for Active; 'I' for Inactive)
REMARK    1  A    between atoms: C_2  and  C_17
REMARK    2  A    between atoms: C_8  and  C_13
REMARK    3  A    between atoms: C_18  and  O_29
REMARK    4  A    between atoms: C_19  and  C_23
REMARK                            x       y       z     vdW  Elec       q    Type
REMARK                         _______ _______ _______ _____ _____    ______ ____
ROOT
ATOM      1  N   UNL     1      32.059  -8.380 -22.595  0.00  0.00    -0.312 N 
ATOM      2  C   UNL     1      32.134  -8.822 -21.301  0.00  0.00    +0.051 C 
ATOM      3  C   UNL     1      32.040  -6.562 -21.301  0.00  0.00    +0.015 C 
ATOM      4  C   UNL     1      32.001  -7.004 -22.625  0.00  0.00    +0.048 C 
ATOM      5  C   UNL     1      32.124  -7.720 -20.476  0.00  0.00    +0.016 C 
ATOM      6  C   UNL     1      31.992  -5.177 -21.045  0.00  0.00    +0.004 C 
ATOM      7  C   UNL     1      31.918  -6.127 -23.712  0.00  0.00    +0.015 C 
ATOM      8  C   UNL     1      31.909  -4.288 -22.123  0.00  0.00    +0.031 C 
ATOM      9  C   UNL     1      31.872  -4.757 -23.434  0.00  0.00    +0.004 C 
ATOM     10  H   UNL     1      32.049  -8.962 -23.389  0.00  0.00    +0.152 HD
ENDROOT
BRANCH   8  13
ATOM     11  N   UNL     1      30.646  -2.177 -21.783  0.00  0.00    -0.343 N 
ATOM     12  N   UNL     1      32.982  -2.176 -21.718  0.00  0.00    -0.285 NA
ATOM     13  C   UNL     1      31.860  -2.856 -21.868  0.00  0.00    +0.117 C 
ATOM     14  H   UNL     1      30.635  -1.208 -21.611  0.00  0.00    +0.144 HD
ATOM     15  H   UNL     1      29.799  -2.667 -21.896  0.00  0.00    +0.144 HD
ATOM     16  H   UNL     1      32.951  -1.208 -21.546  0.00  0.00    +0.188 HD
ENDBRANCH   8  13
BRANCH   2  17
ATOM     17  C   UNL     1      32.206 -10.224 -20.975  0.00  0.00    +0.047 C 
ATOM     18  C   UNL     1      32.876 -11.125 -21.806  0.00  0.00    +0.135 C 
ATOM     19  C   UNL     1      32.932 -12.477 -21.470  0.00  0.00    +0.034 C 
ATOM     20  C   UNL     1      31.593 -10.683 -19.807  0.00  0.00    +0.004 C 
ATOM     21  C   UNL     1      32.320 -12.932 -20.302  0.00  0.00    +0.003 C 
ATOM     22  C   UNL     1      31.651 -12.035 -19.471  0.00  0.00    +0.000 C 
BRANCH  19  23
ATOM     23  C   UNL     1      33.623 -13.429 -22.318  0.00  0.00    +0.003 C 
ATOM     24  C   UNL     1      34.662 -14.197 -21.796  0.00  0.00    +0.000 C 
ATOM     25  C   UNL     1      33.247 -13.573 -23.653  0.00  0.00    +0.000 C 
ATOM     26  C   UNL     1      35.328 -15.114 -22.611  0.00  0.00    +0.000 C 
ATOM     27  C   UNL     1      33.913 -14.488 -24.467  0.00  0.00    +0.000 C 
ATOM     28  C   UNL     1      34.952 -15.259 -23.946  0.00  0.00    +0.000 C 
ENDBRANCH  19  23
BRANCH  18  29
ATOM     29  O   UNL     1      33.477 -10.678 -22.950  0.00  0.00    -0.505 OA
ATOM     30  H   UNL     1      33.001 -10.669 -23.757  0.00  0.00    +0.292 HD
ENDBRANCH  18  29
ENDBRANCH   2  17
TORSDOF 4
ENDMDL
MODEL 6
REMARK VINA RESULT:     -10.6      9.270     13.965
REMARK  Name = 447476
REMARK  4 active torsions:
REMARK  status: ('A' for Active; 'I' for Inactive)
REMARK    1  A    between atoms: C_2  and  C_17
REMARK    2  A    between atoms: C_8  and  C_13
REMARK    3  A    between atoms: C_18  and  O_29
REMARK    4  A    between atoms: C_19  and  C_23
REMARK                            x       y       z     vdW  Elec       q    Type
REMARK                         _______ _______ _______ _____ _____    ______ ____
ROOT
ATOM      1  N   UNL     1      34.835 -12.044 -22.860  0.00  0.00    -0.312 N 
ATOM      2  C   UNL     1      34.347 -11.239 -23.854  0.00  0.00    +0.051 C 
ATOM      3  C   UNL     1      33.968 -13.399 -24.405  0.00  0.00    +0.015 C 
ATOM      4  C   UNL     1      34.619 -13.368 -23.170  0.00  0.00    +0.048 C 
ATOM      5  C   UNL     1      33.803 -12.049 -24.825  0.00  0.00    +0.016 C 
ATOM      6  C   UNL     1      33.624 -14.648 -24.960  0.00  0.00    +0.004 C 
ATOM      7  C   UNL     1      34.945 -14.527 -22.458  0.00  0.00    +0.015 C 
ATOM      8  C   UNL     1      33.945 -15.817 -24.259  0.00  0.00    +0.031 C 
ATOM      9  C   UNL     1      34.595 -15.755 -23.029  0.00  0.00    +0.004 C 
ATOM     10  H   UNL     1      35.279 -11.722 -22.042  0.00  0.00    +0.152 HD
ENDROOT
BRANCH   8  13
ATOM     11  N   UNL     1      34.317 -18.259 -24.511  0.00  0.00    -0.343 N 
ATOM     12  N   UNL     1      32.574 -17.209 -25.658  0.00  0.00    -0.285 NA
ATOM     13  C   UNL     1      33.593 -17.111 -24.825  0.00  0.00    +0.117 C 
ATOM     14  H   UNL     1      34.063 -19.124 -24.905  0.00  0.00    +0.144 HD
ATOM     15  H   UNL     1      35.083 -18.205 -23.893  0.00  0.00    +0.144 HD
ATOM     16  H   UNL     1      32.335 -18.083 -26.043  0.00  0.00    +0.188 HD
ENDBRANCH   8  13
BRANCH   2  17
ATOM     17  C   UNL     1      34.439  -9.802 -23.789  0.00  0.00    +0.047 C 
ATOM     18  C   UNL     1      33.709  -9.073 -22.848  0.00  0.00    +0.135 C 
ATOM     19  C   UNL     1      33.814  -7.683 -22.804  0.00  0.00    +0.034 C 
ATOM     20  C   UNL     1      35.275  -9.134 -24.687  0.00  0.00    +0.004 C 
ATOM     21  C   UNL     1      34.651  -7.019 -23.701  0.00  0.00    +0.003 C 
ATOM     22  C   UNL     1      35.381  -7.744 -24.642  0.00  0.00    +0.000 C 
BRANCH  19  23
ATOM     23  C   UNL     1      33.066  -6.908 -21.834  0.00  0.00    +0.003 C 
ATOM     24  C   UNL     1      33.445  -6.923 -20.493  0.00  0.00    +0.000 C 
ATOM     25  C   UNL     1      31.970  -6.151 -22.245  0.00  0.00    +0.000 C 
ATOM     26  C   UNL     1      32.725  -6.177 -19.558  0.00  0.00    +0.000 C 
ATOM     27  C   UNL     1      31.251  -5.406 -21.310  0.00  0.00    +0.000 C 
ATOM     28  C   UNL     1      31.629  -5.418 -19.968  0.00  0.00    +0.000 C 
ENDBRANCH  19  23
BRANCH  18  29
ATOM     29  O   UNL     1      32.890  -9.725 -21.968  0.00  0.00    -0.505 OA
ATOM     30  H   UNL     1      32.818  -9.424 -21.084  0.00  0.00    +0.292 HD
ENDBRANCH  18  29
ENDBRANCH   2  17
TORSDOF 4
ENDMDL
MODEL 7
REMARK VINA RESULT:     -10.5      6.056     10.084
REMARK  Name = 447476
REMARK  4 active torsions:
REMARK  status: ('A' for Active; 'I' for Inactive)
REMARK    1  A    between atoms: C_2  and  C_17
REMARK    2  A    between atoms: C_8  and  C_13
REMARK    3  A    between atoms: C_18  and  O_29
REMARK    4  A    between atoms: C_19  and  C_23
REMARK                            x       y       z     vdW  Elec       q    Type
REMARK                         _______ _______ _______ _____ _____    ______ ____
ROOT
ATOM      1  N   UNL     1      34.600 -12.047 -23.662  0.00  0.00    -0.312 N 
ATOM      2  C   UNL     1      33.908 -13.084 -23.096  0.00  0.00    +0.051 C 
ATOM      3  C   UNL     1      33.098 -11.133 -22.289  0.00  0.00    +0.015 C 
ATOM      4  C   UNL     1      34.127 -10.844 -23.187  0.00  0.00    +0.048 C 
ATOM      5  C   UNL     1      32.971 -12.550 -22.241  0.00  0.00    +0.016 C 
ATOM      6  C   UNL     1      32.433 -10.066 -21.652  0.00  0.00    +0.004 C 
ATOM      7  C   UNL     1      34.527  -9.537 -23.482  0.00  0.00    +0.015 C 
ATOM      8  C   UNL     1      32.823  -8.752 -21.937  0.00  0.00    +0.031 C 
ATOM      9  C   UNL     1      33.854  -8.494 -22.838  0.00  0.00    +0.004 C 
ATOM     10  H   UNL     1      35.331 -12.148 -24.314  0.00  0.00    +0.152 HD
ENDROOT
BRANCH   8  13
ATOM     11  N   UNL     1      32.197  -7.475 -19.902  0.00  0.00    -0.343 N 
ATOM     12  N   UNL     1      31.451  -6.781 -22.004  0.00  0.00    -0.285 NA
ATOM     13  C   UNL     1      32.142  -7.645 -21.284  0.00  0.00    +0.117 C 
ATOM     14  H   UNL     1      31.729  -6.720 -19.479  0.00  0.00    +0.144 HD
ATOM     15  H   UNL     1      32.705  -8.112 -19.348  0.00  0.00    +0.144 HD
ATOM     16  H   UNL     1      30.989  -6.032 -21.564  0.00  0.00    +0.188 HD
ENDBRANCH   8  13
BRANCH   2  17
ATOM     17  C   UNL     1      34.196 -14.461 -23.415  0.00  0.00    +0.047 C 
ATOM     18  C   UNL     1      34.753 -15.320 -22.464  0.00  0.00    +0.135 C 
ATOM     19  C   UNL     1      35.022 -16.647 -22.796  0.00  0.00    +0.034 C 
ATOM     20  C   UNL     1      33.910 -14.935 -24.697  0.00  0.00    +0.004 C 
ATOM     21  C   UNL     1      34.735 -17.119 -24.077  0.00  0.00    +0.003 C 
ATOM     22  C   UNL     1      34.180 -16.263 -25.027  0.00  0.00    +0.000 C 
BRANCH  19  23
ATOM     23  C   UNL     1      35.599 -17.556 -21.825  0.00  0.00    +0.003 C 
ATOM     24  C   UNL     1      34.769 -18.384 -21.071  0.00  0.00    +0.000 C 
ATOM     25  C   UNL     1      36.981 -17.601 -21.648  0.00  0.00    +0.000 C 
ATOM     26  C   UNL     1      35.323 -19.260 -20.136  0.00  0.00    +0.000 C 
ATOM     27  C   UNL     1      37.534 -18.476 -20.714  0.00  0.00    +0.000 C 
ATOM     28  C   UNL     1      36.705 -19.305 -19.959  0.00  0.00    +0.000 C 
ENDBRANCH  19  23
BRANCH  18  29
ATOM     29  O   UNL     1      35.032 -14.858 -21.209  0.00  0.00    -0.505 OA
ATOM     30  H   UNL     1      35.828 -14.392 -21.048  0.00  0.00    +0.292 HD
ENDBRANCH  18  29
ENDBRANCH   2  17
TORSDOF 4
ENDMDL
MODEL 8
REMARK VINA RESULT:     -10.4      2.075      4.075
REMARK  Name = 447476
REMARK  4 active torsions:
REMARK  status: ('A' for Active; 'I' for Inactive)
REMARK    1  A    between atoms: C_2  and  C_17
REMARK    2  A    between atoms: C_8  and  C_13
REMARK    3  A    between atoms: C_18  and  O_29
REMARK    4  A    between atoms: C_19  and  C_23
REMARK                            x       y       z     vdW  Elec       q    Type
REMARK                         _______ _______ _______ _____ _____    ______ ____
ROOT
ATOM      1  N   UNL     1      35.985 -20.271 -18.650  0.00  0.00    -0.312 N 
ATOM      2  C   UNL     1      34.757 -20.819 -18.396  0.00  0.00    +0.051 C 
ATOM      3  C   UNL     1      34.632 -19.584 -20.286  0.00  0.00    +0.015 C 
ATOM      4  C   UNL     1      35.938 -19.511 -19.798  0.00  0.00    +0.048 C 
ATOM      5  C   UNL     1      33.897 -20.413 -19.392  0.00  0.00    +0.016 C 
ATOM      6  C   UNL     1      34.309 -18.889 -21.469  0.00  0.00    +0.004 C 
ATOM      7  C   UNL     1      36.942 -18.774 -20.435  0.00  0.00    +0.015 C 
ATOM      8  C   UNL     1      35.303 -18.146 -22.116  0.00  0.00    +0.031 C 
ATOM      9  C   UNL     1      36.598 -18.091 -21.606  0.00  0.00    +0.004 C 
ATOM     10  H   UNL     1      36.786 -20.400 -18.092  0.00  0.00    +0.152 HD
ENDROOT
BRANCH   8  13
ATOM     11  N   UNL     1      35.499 -16.157 -23.590  0.00  0.00    -0.343 N 
ATOM     12  N   UNL     1      34.170 -17.970 -24.228  0.00  0.00    -0.285 NA
ATOM     13  C   UNL     1      34.978 -17.425 -23.337  0.00  0.00    +0.117 C 
ATOM     14  H   UNL     1      35.265 -15.686 -24.421  0.00  0.00    +0.144 HD
ATOM     15  H   UNL     1      36.101 -15.733 -22.935  0.00  0.00    +0.144 HD
ATOM     16  H   UNL     1      33.948 -17.484 -25.054  0.00  0.00    +0.188 HD
ENDBRANCH   8  13
BRANCH   2  17
ATOM     17  C   UNL     1      34.518 -21.664 -17.252  0.00  0.00    +0.047 C 
ATOM     18  C   UNL     1      33.222 -22.037 -16.888  0.00  0.00    +0.135 C 
ATOM     19  C   UNL     1      33.016 -22.854 -15.777  0.00  0.00    +0.034 C 
ATOM     20  C   UNL     1      35.606 -22.112 -16.500  0.00  0.00    +0.004 C 
ATOM     21  C   UNL     1      34.105 -23.302 -15.029  0.00  0.00    +0.003 C 
ATOM     22  C   UNL     1      35.399 -22.931 -15.390  0.00  0.00    +0.000 C 
BRANCH  19  23
ATOM     23  C   UNL     1      31.680 -23.254 -15.383  0.00  0.00    +0.003 C 
ATOM     24  C   UNL     1      30.578 -22.526 -15.829  0.00  0.00    +0.000 C 
ATOM     25  C   UNL     1      31.500 -24.364 -14.559  0.00  0.00    +0.000 C 
ATOM     26  C   UNL     1      29.291 -22.911 -15.450  0.00  0.00    +0.000 C 
ATOM     27  C   UNL     1      30.214 -24.747 -14.180  0.00  0.00    +0.000 C 
ATOM     28  C   UNL     1      29.110 -24.021 -14.626  0.00  0.00    +0.000 C 
ENDBRANCH  19  23
BRANCH  18  29
ATOM     29  O   UNL     1      32.156 -21.599 -17.623  0.00  0.00    -0.505 OA
ATOM     30  H   UNL     1      31.365 -21.342 -17.193  0.00  0.00    +0.292 HD
ENDBRANCH  18  29
ENDBRANCH   2  17
TORSDOF 4
ENDMDL
MODEL 9
REMARK VINA RESULT:     -10.3      2.947      9.186
REMARK  Name = 447476
REMARK  4 active torsions:
REMARK  status: ('A' for Active; 'I' for Inactive)
REMARK    1  A    between atoms: C_2  and  C_17
REMARK    2  A    between atoms: C_8  and  C_13
REMARK    3  A    between atoms: C_18  and  O_29
REMARK    4  A    between atoms: C_19  and  C_23
REMARK                            x       y       z     vdW  Elec       q    Type
REMARK                         _______ _______ _______ _____ _____    ______ ____
ROOT
ATOM      1  N   UNL     1      34.228 -20.617 -18.942  0.00  0.00    -0.312 N 
ATOM      2  C   UNL     1      35.559 -20.308 -19.032  0.00  0.00    +0.051 C 
ATOM      3  C   UNL     1      35.238 -21.665 -17.251  0.00  0.00    +0.015 C 
ATOM      4  C   UNL     1      34.003 -21.443 -17.863  0.00  0.00    +0.048 C 
ATOM      5  C   UNL     1      36.211 -20.943 -17.999  0.00  0.00    +0.016 C 
ATOM      6  C   UNL     1      35.292 -22.489 -16.110  0.00  0.00    +0.004 C 
ATOM      7  C   UNL     1      32.813 -22.006 -17.389  0.00  0.00    +0.015 C 
ATOM      8  C   UNL     1      34.109 -23.059 -15.623  0.00  0.00    +0.031 C 
ATOM      9  C   UNL     1      32.891 -22.819 -16.254  0.00  0.00    +0.004 C 
ATOM     10  H   UNL     1      33.532 -20.293 -19.558  0.00  0.00    +0.152 HD
ENDROOT
BRANCH   8  13
ATOM     11  N   UNL     1      33.052 -24.046 -13.605  0.00  0.00    -0.343 N 
ATOM     12  N   UNL     1      35.262 -24.569 -14.153  0.00  0.00    -0.285 NA
ATOM     13  C   UNL     1      34.156 -23.910 -14.445  0.00  0.00    +0.117 C 
ATOM     14  H   UNL     1      33.105 -24.626 -12.812  0.00  0.00    +0.144 HD
ATOM     15  H   UNL     1      32.219 -23.560 -13.805  0.00  0.00    +0.144 HD
ATOM     16  H   UNL     1      35.297 -25.145 -13.356  0.00  0.00    +0.188 HD
ENDBRANCH   8  13
BRANCH   2  17
ATOM     17  C   UNL     1      36.078 -19.455 -20.072  0.00  0.00    +0.047 C 
ATOM     18  C   UNL     1      35.250 -18.974 -21.089  0.00  0.00    +0.135 C 
ATOM     19  C   UNL     1      35.775 -18.150 -22.085  0.00  0.00    +0.034 C 
ATOM     20  C   UNL     1      37.431 -19.110 -20.056  0.00  0.00    +0.004 C 
ATOM     21  C   UNL     1      37.127 -17.806 -22.066  0.00  0.00    +0.003 C 
ATOM     22  C   UNL     1      37.954 -18.286 -21.051  0.00  0.00    +0.000 C 
BRANCH  19  23
ATOM     23  C   UNL     1      34.934 -17.638 -23.150  0.00  0.00    +0.003 C 
ATOM     24  C   UNL     1      34.881 -16.267 -23.393  0.00  0.00    +0.000 C 
ATOM     25  C   UNL     1      34.182 -18.518 -23.926  0.00  0.00    +0.000 C 
ATOM     26  C   UNL     1      34.072 -15.773 -24.418  0.00  0.00    +0.000 C 
ATOM     27  C   UNL     1      33.373 -18.024 -24.950  0.00  0.00    +0.000 C 
ATOM     28  C   UNL     1      33.319 -16.652 -25.195  0.00  0.00    +0.000 C 
ENDBRANCH  19  23
BRANCH  18  29
ATOM     29  O   UNL     1      33.926 -19.310 -21.107  0.00  0.00    -0.505 OA
ATOM     30  H   UNL     1      33.655 -20.130 -21.471  0.00  0.00    +0.292 HD
ENDBRANCH  18  29
ENDBRANCH   2  17
TORSDOF 4
ENDMDL
