MODEL 1
REMARK VINA RESULT:     -12.6      0.000      0.000
REMARK  Name = 22479942
REMARK  4 active torsions:
REMARK  status: ('A' for Active; 'I' for Inactive)
REMARK    1  A    between atoms: C_4  and  C_17
REMARK    2  A    between atoms: C_7  and  C_14
REMARK    3  A    between atoms: C_20  and  N_24
REMARK    4  A    between atoms: C_25  and  C_28
REMARK                            x       y       z     vdW  Elec       q    Type
REMARK                         _______ _______ _______ _____ _____    ______ ____
ROOT
ATOM      1  N   UNL     1      31.382 -22.414 -16.731  0.00  0.00    -0.276 N 
ATOM      2  N   UNL     1      32.157 -21.823 -17.656  0.00  0.00    -0.173 NA
ATOM      3  C   UNL     1      33.390 -22.503 -15.853  0.00  0.00    +0.036 A 
ATOM      4  C   UNL     1      33.377 -21.880 -17.119  0.00  0.00    +0.102 A 
ATOM      5  C   UNL     1      32.062 -22.844 -15.623  0.00  0.00    +0.075 A 
ATOM      6  C   UNL     1      34.359 -22.815 -14.884  0.00  0.00    +0.006 C 
ATOM      7  C   UNL     1      33.948 -23.465 -13.713  0.00  0.00    +0.033 C 
ATOM      8  C   UNL     1      31.631 -23.492 -14.463  0.00  0.00    +0.019 C 
ATOM      9  C   UNL     1      32.607 -23.796 -13.508  0.00  0.00    +0.004 C 
ATOM     10  H   UNL     1      30.411 -22.528 -16.840  0.00  0.00    +0.189 HD
ENDROOT
BRANCH   7  14
ATOM     11  N   UNL     1      36.018 -24.565 -12.953  0.00  0.00    -0.218 N 
ATOM     12  N   UNL     1      34.923 -23.426 -11.443  0.00  0.00    -0.206 NA
ATOM     13  N   UNL     1      36.766 -24.720 -11.850  0.00  0.00    -0.157 NA
ATOM     14  C   UNL     1      34.926 -23.794 -12.704  0.00  0.00    +0.149 C 
ATOM     15  C   UNL     1      36.060 -24.012 -10.965  0.00  0.00    +0.218 C 
ATOM     16  H   UNL     1      36.234 -24.957 -13.830  0.00  0.00    +0.176 HD
ENDBRANCH   7  14
BRANCH   4  17
ATOM     17  C   UNL     1      34.506 -21.336 -17.831  0.00  0.00    +0.021 C 
ATOM     18  C   UNL     1      34.305 -20.603 -19.001  0.00  0.00    +0.016 C 
ATOM     19  C   UNL     1      35.798 -21.543 -17.350  0.00  0.00    +0.002 C 
ATOM     20  C   UNL     1      35.398 -20.077 -19.690  0.00  0.00    +0.051 C 
ATOM     21  C   UNL     1      36.891 -21.017 -18.040  0.00  0.00    +0.001 C 
ATOM     22  C   UNL     1      36.691 -20.284 -19.209  0.00  0.00    +0.015 C 
BRANCH  20  24
ATOM     23  O   UNL     1      35.772 -17.182 -20.204  0.00  0.00    -0.266 OA
ATOM     24  N   UNL     1      35.198 -19.343 -20.860  0.00  0.00    -0.278 N 
ATOM     25  C   UNL     1      35.387 -17.962 -21.072  0.00  0.00    +0.284 C 
ATOM     26  H   UNL     1      34.887 -19.858 -21.639  0.00  0.00    +0.155 HD
BRANCH  25  28
ATOM     27  O   UNL     1      35.256 -16.173 -22.705  0.00  0.00    -0.446 OA
ATOM     28  C   UNL     1      35.046 -17.485 -22.423  0.00  0.00    +0.199 C 
ATOM     29  C   UNL     1      34.529 -18.138 -23.518  0.00  0.00    +0.045 C 
ATOM     30  C   UNL     1      34.414 -17.164 -24.538  0.00  0.00    +0.044 C 
ATOM     31  C   UNL     1      34.870 -15.985 -23.994  0.00  0.00    +0.180 C 
ENDBRANCH  25  28
ENDBRANCH  20  24
ENDBRANCH   4  17
TORSDOF 4
ENDMDL
MODEL 2
REMARK VINA RESULT:     -12.3      2.042      2.894
REMARK  Name = 22479942
REMARK  4 active torsions:
REMARK  status: ('A' for Active; 'I' for Inactive)
REMARK    1  A    between atoms: C_4  and  C_17
REMARK    2  A    between atoms: C_7  and  C_14
REMARK    3  A    between atoms: C_20  and  N_24
REMARK    4  A    between atoms: C_25  and  C_28
REMARK                            x       y       z     vdW  Elec       q    Type
REMARK                         _______ _______ _______ _____ _____    ______ ____
ROOT
ATOM      1  N   UNL     1      32.514 -21.597 -18.539  0.00  0.00    -0.276 N 
ATOM      2  N   UNL     1      33.106 -20.764 -19.412  0.00  0.00    -0.173 NA
ATOM      3  C   UNL     1      34.549 -21.388 -17.750  0.00  0.00    +0.036 A 
ATOM      4  C   UNL     1      34.343 -20.640 -18.929  0.00  0.00    +0.102 A 
ATOM      5  C   UNL     1      33.327 -22.008 -17.516  0.00  0.00    +0.075 A 
ATOM      6  C   UNL     1      35.615 -21.611 -16.862  0.00  0.00    +0.006 C 
ATOM      7  C   UNL     1      35.405 -22.457 -15.765  0.00  0.00    +0.033 C 
ATOM      8  C   UNL     1      33.097 -22.854 -16.430  0.00  0.00    +0.019 C 
ATOM      9  C   UNL     1      34.166 -23.067 -15.555  0.00  0.00    +0.004 C 
ATOM     10  H   UNL     1      31.577 -21.886 -18.626  0.00  0.00    +0.189 HD
ENDROOT
BRANCH   7  14
ATOM     11  N   UNL     1      37.773 -22.889 -15.234  0.00  0.00    -0.218 N 
ATOM     12  N   UNL     1      36.410 -22.775 -13.530  0.00  0.00    -0.206 NA
ATOM     13  N   UNL     1      38.580 -23.095 -14.182  0.00  0.00    -0.157 NA
ATOM     14  C   UNL     1      36.486 -22.700 -14.839  0.00  0.00    +0.149 C 
ATOM     15  C   UNL     1      37.706 -23.016 -13.175  0.00  0.00    +0.218 C 
ATOM     16  H   UNL     1      38.075 -22.876 -16.172  0.00  0.00    +0.176 HD
ENDBRANCH   7  14
BRANCH   4  17
ATOM     17  C   UNL     1      35.304 -19.809 -19.609  0.00  0.00    +0.021 C 
ATOM     18  C   UNL     1      34.885 -18.645 -20.256  0.00  0.00    +0.016 C 
ATOM     19  C   UNL     1      36.651 -20.166 -19.619  0.00  0.00    +0.002 C 
ATOM     20  C   UNL     1      35.815 -17.840 -20.913  0.00  0.00    +0.051 C 
ATOM     21  C   UNL     1      37.582 -19.360 -20.278  0.00  0.00    +0.001 C 
ATOM     22  C   UNL     1      37.164 -18.198 -20.924  0.00  0.00    +0.015 C 
BRANCH  20  24
ATOM     23  O   UNL     1      35.221 -15.157 -19.803  0.00  0.00    -0.266 OA
ATOM     24  N   UNL     1      35.398 -16.676 -21.560  0.00  0.00    -0.278 N 
ATOM     25  C   UNL     1      35.124 -15.412 -21.001  0.00  0.00    +0.284 C 
ATOM     26  H   UNL     1      35.281 -16.748 -22.535  0.00  0.00    +0.155 HD
BRANCH  25  28
ATOM     27  O   UNL     1      34.257 -14.810 -23.186  0.00  0.00    -0.446 OA
ATOM     28  C   UNL     1      34.659 -14.393 -21.957  0.00  0.00    +0.199 C 
ATOM     29  C   UNL     1      34.545 -13.026 -21.850  0.00  0.00    +0.045 C 
ATOM     30  C   UNL     1      34.039 -12.575 -23.093  0.00  0.00    +0.044 C 
ATOM     31  C   UNL     1      33.881 -13.699 -23.871  0.00  0.00    +0.180 C 
ENDBRANCH  25  28
ENDBRANCH  20  24
ENDBRANCH   4  17
TORSDOF 4
ENDMDL
MODEL 3
REMARK VINA RESULT:     -10.8      6.931     11.171
REMARK  Name = 22479942
REMARK  4 active torsions:
REMARK  status: ('A' for Active; 'I' for Inactive)
REMARK    1  A    between atoms: C_4  and  C_17
REMARK    2  A    between atoms: C_7  and  C_14
REMARK    3  A    between atoms: C_20  and  N_24
REMARK    4  A    between atoms: C_25  and  C_28
REMARK                            x       y       z     vdW  Elec       q    Type
REMARK                         _______ _______ _______ _____ _____    ______ ____
ROOT
ATOM      1  N   UNL     1      33.356 -13.659 -24.951  0.00  0.00    -0.276 N 
ATOM      2  N   UNL     1      32.812 -12.758 -24.117  0.00  0.00    -0.173 NA
ATOM      3  C   UNL     1      33.965 -14.364 -22.966  0.00  0.00    +0.036 A 
ATOM      4  C   UNL     1      33.185 -13.189 -22.911  0.00  0.00    +0.102 A 
ATOM      5  C   UNL     1      34.061 -14.651 -24.322  0.00  0.00    +0.075 A 
ATOM      6  C   UNL     1      34.595 -15.210 -22.037  0.00  0.00    +0.006 C 
ATOM      7  C   UNL     1      35.302 -16.320 -22.517  0.00  0.00    +0.033 C 
ATOM      8  C   UNL     1      34.761 -15.751 -24.821  0.00  0.00    +0.019 C 
ATOM      9  C   UNL     1      35.382 -16.584 -23.885  0.00  0.00    +0.004 C 
ATOM     10  H   UNL     1      33.256 -13.611 -25.929  0.00  0.00    +0.189 HD
ENDROOT
BRANCH   7  14
ATOM     11  N   UNL     1      35.413 -17.547 -20.382  0.00  0.00    -0.218 N 
ATOM     12  N   UNL     1      37.123 -17.788 -21.721  0.00  0.00    -0.206 NA
ATOM     13  N   UNL     1      36.220 -18.376 -19.702  0.00  0.00    -0.157 NA
ATOM     14  C   UNL     1      35.956 -17.202 -21.580  0.00  0.00    +0.149 C 
ATOM     15  C   UNL     1      37.241 -18.490 -20.556  0.00  0.00    +0.218 C 
ATOM     16  H   UNL     1      34.539 -17.231 -20.055  0.00  0.00    +0.176 HD
ENDBRANCH   7  14
BRANCH   4  17
ATOM     17  C   UNL     1      32.787 -12.466 -21.729  0.00  0.00    +0.021 C 
ATOM     18  C   UNL     1      32.682 -11.074 -21.766  0.00  0.00    +0.016 C 
ATOM     19  C   UNL     1      32.506 -13.155 -20.551  0.00  0.00    +0.002 C 
ATOM     20  C   UNL     1      32.297 -10.374 -20.623  0.00  0.00    +0.051 C 
ATOM     21  C   UNL     1      32.121 -12.454 -19.407  0.00  0.00    +0.001 C 
ATOM     22  C   UNL     1      32.016 -11.064 -19.443  0.00  0.00    +0.015 C 
BRANCH  20  24
ATOM     23  O   UNL     1      33.022  -8.359 -18.574  0.00  0.00    -0.266 OA
ATOM     24  N   UNL     1      32.190  -8.983 -20.659  0.00  0.00    -0.278 N 
ATOM     25  C   UNL     1      32.545  -8.051 -19.664  0.00  0.00    +0.284 C 
ATOM     26  H   UNL     1      31.818  -8.605 -21.488  0.00  0.00    +0.155 HD
BRANCH  25  28
ATOM     27  O   UNL     1      32.353  -5.725 -19.001  0.00  0.00    -0.446 OA
ATOM     28  C   UNL     1      32.267  -6.644 -19.998  0.00  0.00    +0.199 C 
ATOM     29  C   UNL     1      31.918  -6.039 -21.183  0.00  0.00    +0.045 C 
ATOM     30  C   UNL     1      31.781  -4.660 -20.896  0.00  0.00    +0.044 C 
ATOM     31  C   UNL     1      32.057  -4.520 -19.555  0.00  0.00    +0.180 C 
ENDBRANCH  25  28
ENDBRANCH  20  24
ENDBRANCH   4  17
TORSDOF 4
ENDMDL
MODEL 4
REMARK VINA RESULT:     -10.4      8.043     13.502
REMARK  Name = 22479942
REMARK  4 active torsions:
REMARK  status: ('A' for Active; 'I' for Inactive)
REMARK    1  A    between atoms: C_4  and  C_17
REMARK    2  A    between atoms: C_7  and  C_14
REMARK    3  A    between atoms: C_20  and  N_24
REMARK    4  A    between atoms: C_25  and  C_28
REMARK                            x       y       z     vdW  Elec       q    Type
REMARK                         _______ _______ _______ _____ _____    ______ ____
ROOT
ATOM      1  N   UNL     1      33.558  -9.364 -24.480  0.00  0.00    -0.276 N 
ATOM      2  N   UNL     1      33.438 -10.592 -23.948  0.00  0.00    -0.173 NA
ATOM      3  C   UNL     1      33.148  -8.970 -22.361  0.00  0.00    +0.036 A 
ATOM      4  C   UNL     1      33.189 -10.348 -22.660  0.00  0.00    +0.102 A 
ATOM      5  C   UNL     1      33.395  -8.345 -23.578  0.00  0.00    +0.075 A 
ATOM      6  C   UNL     1      32.934  -8.184 -21.216  0.00  0.00    +0.006 C 
ATOM      7  C   UNL     1      32.977  -6.790 -21.344  0.00  0.00    +0.033 C 
ATOM      8  C   UNL     1      33.442  -6.958 -23.728  0.00  0.00    +0.019 C 
ATOM      9  C   UNL     1      33.227  -6.190 -22.579  0.00  0.00    +0.004 C 
ATOM     10  H   UNL     1      33.745  -9.210 -25.433  0.00  0.00    +0.189 HD
ENDROOT
BRANCH   7  14
ATOM     11  N   UNL     1      32.977  -6.400 -18.910  0.00  0.00    -0.218 N 
ATOM     12  N   UNL     1      32.342  -4.720 -20.154  0.00  0.00    -0.206 NA
ATOM     13  N   UNL     1      32.701  -5.442 -18.013  0.00  0.00    -0.157 NA
ATOM     14  C   UNL     1      32.762  -5.964 -20.180  0.00  0.00    +0.149 C 
ATOM     15  C   UNL     1      32.321  -4.445 -18.817  0.00  0.00    +0.218 C 
ATOM     16  H   UNL     1      33.295  -7.303 -18.678  0.00  0.00    +0.176 HD
ENDBRANCH   7  14
BRANCH   4  17
ATOM     17  C   UNL     1      32.992 -11.442 -21.742  0.00  0.00    +0.021 C 
ATOM     18  C   UNL     1      33.710 -12.628 -21.907  0.00  0.00    +0.016 C 
ATOM     19  C   UNL     1      32.087 -11.315 -20.690  0.00  0.00    +0.002 C 
ATOM     20  C   UNL     1      33.520 -13.686 -21.018  0.00  0.00    +0.051 C 
ATOM     21  C   UNL     1      31.897 -12.374 -19.802  0.00  0.00    +0.001 C 
ATOM     22  C   UNL     1      32.613 -13.559 -19.965  0.00  0.00    +0.015 C 
BRANCH  20  24
ATOM     23  O   UNL     1      35.275 -15.122 -19.110  0.00  0.00    -0.266 OA
ATOM     24  N   UNL     1      34.238 -14.872 -21.181  0.00  0.00    -0.278 N 
ATOM     25  C   UNL     1      35.065 -15.531 -20.250  0.00  0.00    +0.284 C 
ATOM     26  H   UNL     1      34.153 -15.305 -22.061  0.00  0.00    +0.155 HD
BRANCH  25  28
ATOM     27  O   UNL     1      36.092 -17.690 -19.839  0.00  0.00    -0.446 OA
ATOM     28  C   UNL     1      35.718 -16.753 -20.749  0.00  0.00    +0.199 C 
ATOM     29  C   UNL     1      36.044 -17.158 -22.022  0.00  0.00    +0.045 C 
ATOM     30  C   UNL     1      36.657 -18.427 -21.886  0.00  0.00    +0.044 C 
ATOM     31  C   UNL     1      36.662 -18.706 -20.539  0.00  0.00    +0.180 C 
ENDBRANCH  25  28
ENDBRANCH  20  24
ENDBRANCH   4  17
TORSDOF 4
ENDMDL
MODEL 5
REMARK VINA RESULT:     -10.3      7.881     13.785
REMARK  Name = 22479942
REMARK  4 active torsions:
REMARK  status: ('A' for Active; 'I' for Inactive)
REMARK    1  A    between atoms: C_4  and  C_17
REMARK    2  A    between atoms: C_7  and  C_14
REMARK    3  A    between atoms: C_20  and  N_24
REMARK    4  A    between atoms: C_25  and  C_28
REMARK                            x       y       z     vdW  Elec       q    Type
REMARK                         _______ _______ _______ _____ _____    ______ ____
ROOT
ATOM      1  N   UNL     1      34.764  -9.709 -24.713  0.00  0.00    -0.276 N 
ATOM      2  N   UNL     1      34.597 -10.886 -24.086  0.00  0.00    -0.173 NA
ATOM      3  C   UNL     1      33.637  -9.175 -22.908  0.00  0.00    +0.036 A 
ATOM      4  C   UNL     1      33.911 -10.557 -22.990  0.00  0.00    +0.102 A 
ATOM      5  C   UNL     1      34.211  -8.642 -24.056  0.00  0.00    +0.075 A 
ATOM      6  C   UNL     1      32.978  -8.322 -22.007  0.00  0.00    +0.006 C 
ATOM      7  C   UNL     1      32.923  -6.953 -22.302  0.00  0.00    +0.033 C 
ATOM      8  C   UNL     1      34.167  -7.281 -24.369  0.00  0.00    +0.019 C 
ATOM      9  C   UNL     1      33.508  -6.444 -23.463  0.00  0.00    +0.004 C 
ATOM     10  H   UNL     1      35.241  -9.622 -25.568  0.00  0.00    +0.189 HD
ENDROOT
BRANCH   7  14
ATOM     11  N   UNL     1      31.170  -5.313 -21.741  0.00  0.00    -0.218 N 
ATOM     12  N   UNL     1      32.559  -5.825 -20.134  0.00  0.00    -0.206 NA
ATOM     13  N   UNL     1      30.738  -4.567 -20.714  0.00  0.00    -0.157 NA
ATOM     14  C   UNL     1      32.252  -6.059 -21.389  0.00  0.00    +0.149 C 
ATOM     15  C   UNL     1      31.612  -4.913 -19.765  0.00  0.00    +0.218 C 
ATOM     16  H   UNL     1      30.756  -5.321 -22.635  0.00  0.00    +0.176 HD
ENDBRANCH   7  14
BRANCH   4  17
ATOM     17  C   UNL     1      33.530 -11.576 -22.043  0.00  0.00    +0.021 C 
ATOM     18  C   UNL     1      34.312 -12.724 -21.903  0.00  0.00    +0.016 C 
ATOM     19  C   UNL     1      32.383 -11.414 -21.269  0.00  0.00    +0.002 C 
ATOM     20  C   UNL     1      33.943 -13.709 -20.987  0.00  0.00    +0.051 C 
ATOM     21  C   UNL     1      32.015 -12.400 -20.353  0.00  0.00    +0.001 C 
ATOM     22  C   UNL     1      32.795 -13.547 -20.211  0.00  0.00    +0.015 C 
BRANCH  20  24
ATOM     23  O   UNL     1      34.730 -15.735 -23.001  0.00  0.00    -0.266 OA
ATOM     24  N   UNL     1      34.724 -14.857 -20.844  0.00  0.00    -0.278 N 
ATOM     25  C   UNL     1      35.081 -15.803 -21.825  0.00  0.00    +0.284 C 
ATOM     26  H   UNL     1      35.071 -15.026 -19.938  0.00  0.00    +0.155 HD
BRANCH  25  28
ATOM     27  O   UNL     1      35.549 -17.492 -20.147  0.00  0.00    -0.446 OA
ATOM     28  C   UNL     1      35.889 -16.934 -21.339  0.00  0.00    +0.199 C 
ATOM     29  C   UNL     1      36.980 -17.575 -21.878  0.00  0.00    +0.045 C 
ATOM     30  C   UNL     1      37.333 -18.592 -20.960  0.00  0.00    +0.044 C 
ATOM     31  C   UNL     1      36.431 -18.501 -19.924  0.00  0.00    +0.180 C 
ENDBRANCH  25  28
ENDBRANCH  20  24
ENDBRANCH   4  17
TORSDOF 4
ENDMDL
MODEL 6
REMARK VINA RESULT:     -10.1      5.887     12.232
REMARK  Name = 22479942
REMARK  4 active torsions:
REMARK  status: ('A' for Active; 'I' for Inactive)
REMARK    1  A    between atoms: C_4  and  C_17
REMARK    2  A    between atoms: C_7  and  C_14
REMARK    3  A    between atoms: C_20  and  N_24
REMARK    4  A    between atoms: C_25  and  C_28
REMARK                            x       y       z     vdW  Elec       q    Type
REMARK                         _______ _______ _______ _____ _____    ______ ____
ROOT
ATOM      1  N   UNL     1      31.701 -12.169 -20.334  0.00  0.00    -0.276 N 
ATOM      2  N   UNL     1      32.273 -13.364 -20.558  0.00  0.00    -0.173 NA
ATOM      3  C   UNL     1      33.220 -11.734 -21.855  0.00  0.00    +0.036 A 
ATOM      4  C   UNL     1      33.196 -13.095 -21.483  0.00  0.00    +0.102 A 
ATOM      5  C   UNL     1      32.224 -11.148 -21.082  0.00  0.00    +0.075 A 
ATOM      6  C   UNL     1      33.958 -10.937 -22.746  0.00  0.00    +0.006 C 
ATOM      7  C   UNL     1      33.662  -9.570 -22.822  0.00  0.00    +0.033 C 
ATOM      8  C   UNL     1      31.913  -9.788 -21.143  0.00  0.00    +0.019 C 
ATOM      9  C   UNL     1      32.656  -9.008 -22.034  0.00  0.00    +0.004 C 
ATOM     10  H   UNL     1      30.970 -12.039 -19.688  0.00  0.00    +0.189 HD
ENDROOT
BRANCH   7  14
ATOM     11  N   UNL     1      35.170  -9.229 -24.741  0.00  0.00    -0.218 N 
ATOM     12  N   UNL     1      34.471  -7.421 -23.733  0.00  0.00    -0.206 NA
ATOM     13  N   UNL     1      35.758  -8.244 -25.437  0.00  0.00    -0.157 NA
ATOM     14  C   UNL     1      34.407  -8.733 -23.731  0.00  0.00    +0.149 C 
ATOM     15  C   UNL     1      35.303  -7.170 -24.787  0.00  0.00    +0.218 C 
ATOM     16  H   UNL     1      35.277 -10.188 -24.938  0.00  0.00    +0.176 HD
ENDBRANCH   7  14
BRANCH   4  17
ATOM     17  C   UNL     1      34.039 -14.149 -21.991  0.00  0.00    +0.021 C 
ATOM     18  C   UNL     1      34.372 -15.230 -21.174  0.00  0.00    +0.016 C 
ATOM     19  C   UNL     1      34.520 -14.088 -23.298  0.00  0.00    +0.002 C 
ATOM     20  C   UNL     1      35.186 -16.250 -21.666  0.00  0.00    +0.051 C 
ATOM     21  C   UNL     1      35.335 -15.108 -23.789  0.00  0.00    +0.001 C 
ATOM     22  C   UNL     1      35.669 -16.189 -22.974  0.00  0.00    +0.015 C 
BRANCH  20  24
ATOM     23  O   UNL     1      34.253 -19.061 -21.764  0.00  0.00    -0.266 OA
ATOM     24  N   UNL     1      35.519 -17.333 -20.850  0.00  0.00    -0.278 N 
ATOM     25  C   UNL     1      35.056 -18.661 -20.924  0.00  0.00    +0.284 C 
ATOM     26  H   UNL     1      36.163 -17.142 -20.130  0.00  0.00    +0.155 HD
BRANCH  25  28
ATOM     27  O   UNL     1      34.691 -20.385 -19.256  0.00  0.00    -0.446 OA
ATOM     28  C   UNL     1      35.574 -19.563 -19.881  0.00  0.00    +0.199 C 
ATOM     29  C   UNL     1      36.843 -19.751 -19.385  0.00  0.00    +0.045 C 
ATOM     30  C   UNL     1      36.733 -20.752 -18.391  0.00  0.00    +0.044 C 
ATOM     31  C   UNL     1      35.403 -21.106 -18.351  0.00  0.00    +0.180 C 
ENDBRANCH  25  28
ENDBRANCH  20  24
ENDBRANCH   4  17
TORSDOF 4
ENDMDL
MODEL 7
REMARK VINA RESULT:      -9.9      3.417      6.929
REMARK  Name = 22479942
REMARK  4 active torsions:
REMARK  status: ('A' for Active; 'I' for Inactive)
REMARK    1  A    between atoms: C_4  and  C_17
REMARK    2  A    between atoms: C_7  and  C_14
REMARK    3  A    between atoms: C_20  and  N_24
REMARK    4  A    between atoms: C_25  and  C_28
REMARK                            x       y       z     vdW  Elec       q    Type
REMARK                         _______ _______ _______ _____ _____    ______ ____
ROOT
ATOM      1  N   UNL     1      38.260 -18.425 -20.978  0.00  0.00    -0.276 N 
ATOM      2  N   UNL     1      37.688 -17.784 -22.011  0.00  0.00    -0.173 NA
ATOM      3  C   UNL     1      36.135 -18.930 -20.782  0.00  0.00    +0.036 A 
ATOM      4  C   UNL     1      36.396 -18.093 -21.888  0.00  0.00    +0.102 A 
ATOM      5  C   UNL     1      37.381 -19.132 -20.201  0.00  0.00    +0.075 A 
ATOM      6  C   UNL     1      35.002 -19.534 -20.210  0.00  0.00    +0.006 C 
ATOM      7  C   UNL     1      35.172 -20.323 -19.065  0.00  0.00    +0.033 C 
ATOM      8  C   UNL     1      37.573 -19.914 -19.060  0.00  0.00    +0.019 C 
ATOM      9  C   UNL     1      36.437 -20.509 -18.502  0.00  0.00    +0.004 C 
ATOM     10  H   UNL     1      39.226 -18.389 -20.795  0.00  0.00    +0.189 HD
ENDROOT
BRANCH   7  14
ATOM     11  N   UNL     1      32.746 -20.545 -18.690  0.00  0.00    -0.218 N 
ATOM     12  N   UNL     1      34.019 -21.973 -17.633  0.00  0.00    -0.206 NA
ATOM     13  N   UNL     1      31.866 -21.295 -18.010  0.00  0.00    -0.157 NA
ATOM     14  C   UNL     1      34.023 -20.954 -18.461  0.00  0.00    +0.149 C 
ATOM     15  C   UNL     1      32.687 -22.144 -17.386  0.00  0.00    +0.218 C 
ATOM     16  H   UNL     1      32.499 -19.795 -19.280  0.00  0.00    +0.176 HD
ENDBRANCH   7  14
BRANCH   4  17
ATOM     17  C   UNL     1      35.437 -17.579 -22.834  0.00  0.00    +0.021 C 
ATOM     18  C   UNL     1      35.350 -16.205 -23.061  0.00  0.00    +0.016 C 
ATOM     19  C   UNL     1      34.597 -18.454 -23.521  0.00  0.00    +0.002 C 
ATOM     20  C   UNL     1      34.422 -15.708 -23.976  0.00  0.00    +0.051 C 
ATOM     21  C   UNL     1      33.668 -17.956 -24.436  0.00  0.00    +0.001 C 
ATOM     22  C   UNL     1      33.581 -16.583 -24.664  0.00  0.00    +0.015 C 
BRANCH  20  24
ATOM     23  O   UNL     1      33.483 -13.537 -22.189  0.00  0.00    -0.266 OA
ATOM     24  N   UNL     1      34.335 -14.334 -24.206  0.00  0.00    -0.278 N 
ATOM     25  C   UNL     1      33.883 -13.325 -23.332  0.00  0.00    +0.284 C 
ATOM     26  H   UNL     1      34.629 -14.030 -25.095  0.00  0.00    +0.155 HD
BRANCH  25  28
ATOM     27  O   UNL     1      33.898 -11.838 -25.249  0.00  0.00    -0.446 OA
ATOM     28  C   UNL     1      33.877 -11.965 -23.896  0.00  0.00    +0.199 C 
ATOM     29  C   UNL     1      33.852 -10.728 -23.296  0.00  0.00    +0.045 C 
ATOM     30  C   UNL     1      33.859  -9.780 -24.347  0.00  0.00    +0.044 C 
ATOM     31  C   UNL     1      33.886 -10.506 -25.516  0.00  0.00    +0.180 C 
ENDBRANCH  25  28
ENDBRANCH  20  24
ENDBRANCH   4  17
TORSDOF 4
ENDMDL
MODEL 8
REMARK VINA RESULT:      -9.7      8.407     12.982
REMARK  Name = 22479942
REMARK  4 active torsions:
REMARK  status: ('A' for Active; 'I' for Inactive)
REMARK    1  A    between atoms: C_4  and  C_17
REMARK    2  A    between atoms: C_7  and  C_14
REMARK    3  A    between atoms: C_20  and  N_24
REMARK    4  A    between atoms: C_25  and  C_28
REMARK                            x       y       z     vdW  Elec       q    Type
REMARK                         _______ _______ _______ _____ _____    ______ ____
ROOT
ATOM      1  N   UNL     1      33.436 -12.588 -26.561  0.00  0.00    -0.276 N 
ATOM      2  N   UNL     1      33.761 -11.286 -26.473  0.00  0.00    -0.173 NA
ATOM      3  C   UNL     1      34.180 -12.381 -24.508  0.00  0.00    +0.036 A 
ATOM      4  C   UNL     1      34.213 -11.165 -25.223  0.00  0.00    +0.102 A 
ATOM      5  C   UNL     1      33.664 -13.300 -25.414  0.00  0.00    +0.075 A 
ATOM      6  C   UNL     1      34.522 -12.808 -23.214  0.00  0.00    +0.006 C 
ATOM      7  C   UNL     1      34.330 -14.156 -22.882  0.00  0.00    +0.033 C 
ATOM      8  C   UNL     1      33.464 -14.647 -25.104  0.00  0.00    +0.019 C 
ATOM      9  C   UNL     1      33.809 -15.057 -23.812  0.00  0.00    +0.004 C 
ATOM     10  H   UNL     1      33.068 -12.992 -27.378  0.00  0.00    +0.189 HD
ENDROOT
BRANCH   7  14
ATOM     11  N   UNL     1      35.287 -15.806 -21.321  0.00  0.00    -0.218 N 
ATOM     12  N   UNL     1      34.461 -13.995 -20.420  0.00  0.00    -0.206 NA
ATOM     13  N   UNL     1      35.493 -15.995 -20.009  0.00  0.00    -0.157 NA
ATOM     14  C   UNL     1      34.674 -14.616 -21.558  0.00  0.00    +0.149 C 
ATOM     15  C   UNL     1      34.976 -14.871 -19.508  0.00  0.00    +0.218 C 
ATOM     16  H   UNL     1      35.547 -16.447 -22.023  0.00  0.00    +0.176 HD
ENDBRANCH   7  14
BRANCH   4  17
ATOM     17  C   UNL     1      34.669  -9.886 -24.741  0.00  0.00    +0.021 C 
ATOM     18  C   UNL     1      34.120  -9.343 -23.578  0.00  0.00    +0.016 C 
ATOM     19  C   UNL     1      35.659  -9.192 -25.435  0.00  0.00    +0.002 C 
ATOM     20  C   UNL     1      34.562  -8.106 -23.111  0.00  0.00    +0.051 C 
ATOM     21  C   UNL     1      36.100  -7.953 -24.967  0.00  0.00    +0.001 C 
ATOM     22  C   UNL     1      35.552  -7.410 -23.806  0.00  0.00    +0.015 C 
BRANCH  20  24
ATOM     23  O   UNL     1      32.478  -6.023 -22.784  0.00  0.00    -0.266 OA
ATOM     24  N   UNL     1      34.015  -7.562 -21.948  0.00  0.00    -0.278 N 
ATOM     25  C   UNL     1      33.022  -6.569 -21.827  0.00  0.00    +0.284 C 
ATOM     26  H   UNL     1      34.369  -7.919 -21.102  0.00  0.00    +0.155 HD
BRANCH  25  28
ATOM     27  O   UNL     1      32.635  -4.857 -20.153  0.00  0.00    -0.446 OA
ATOM     28  C   UNL     1      32.690  -6.182 -20.445  0.00  0.00    +0.199 C 
ATOM     29  C   UNL     1      32.410  -6.935 -19.329  0.00  0.00    +0.045 C 
ATOM     30  C   UNL     1      32.166  -6.013 -18.283  0.00  0.00    +0.044 C 
ATOM     31  C   UNL     1      32.314  -4.761 -18.836  0.00  0.00    +0.180 C 
ENDBRANCH  25  28
ENDBRANCH  20  24
ENDBRANCH   4  17
TORSDOF 4
ENDMDL
