MODEL 1
REMARK VINA RESULT:     -12.9      0.000      0.000
REMARK  Name = 15602701
REMARK  5 active torsions:
REMARK  status: ('A' for Active; 'I' for Inactive)
REMARK    1  A    between atoms: N_5  and  C_12
REMARK    2  A    between atoms: C_6  and  C_22
REMARK    3  A    between atoms: C_13  and  C_21
REMARK    4  A    between atoms: C_22  and  C_23
REMARK    5  A    between atoms: C_23  and  N_24
REMARK                            x       y       z     vdW  Elec       q    Type
REMARK                         _______ _______ _______ _____ _____    ______ ____
ROOT
ATOM      1  S   UNL     1      36.700 -19.821 -19.490  0.00  0.00    -0.056 S 
ATOM      2  O   UNL     1      35.526 -22.558 -15.927  0.00  0.00    -0.252 OA
ATOM      3  N   UNL     1      34.746 -21.068 -18.346  0.00  0.00    -0.223 NA
ATOM      4  N   UNL     1      36.916 -21.275 -17.319  0.00  0.00    -0.248 N 
ATOM      5  N   UNL     1      37.808 -22.345 -15.472  0.00  0.00    -0.268 N 
ATOM      6  C   UNL     1      35.148 -19.713 -20.168  0.00  0.00    +0.031 C 
ATOM      7  C   UNL     1      34.236 -20.418 -19.453  0.00  0.00    +0.103 C 
ATOM      8  C   UNL     1      36.034 -20.824 -18.266  0.00  0.00    +0.166 C 
ATOM      9  C   UNL     1      36.633 -22.110 -16.205  0.00  0.00    +0.310 C 
ATOM     10  H   UNL     1      37.853 -20.986 -17.422  0.00  0.00    +0.158 HD
ATOM     11  H   UNL     1      38.625 -21.917 -15.816  0.00  0.00    +0.156 HD
ENDROOT
BRANCH   5  12
ATOM     12  C   UNL     1      37.962 -23.121 -14.298  0.00  0.00    +0.052 C 
ATOM     13  C   UNL     1      37.240 -23.695 -12.083  0.00  0.00    +0.073 C 
ATOM     14  C   UNL     1      37.088 -22.929 -13.240  0.00  0.00    +0.019 C 
ATOM     15  C   UNL     1      38.980 -24.057 -14.233  0.00  0.00    +0.015 C 
ATOM     16  C   UNL     1      38.261 -24.642 -12.001  0.00  0.00    +0.004 C 
ATOM     17  C   UNL     1      39.132 -24.822 -13.076  0.00  0.00    +0.001 C 
BRANCH  13  21
ATOM     18  F   UNL     1      35.865 -24.673 -10.386  0.00  0.00    -0.166 F 
ATOM     19  F   UNL     1      36.860 -22.810  -9.894  0.00  0.00    -0.166 F 
ATOM     20  F   UNL     1      35.184 -22.811 -11.279  0.00  0.00    -0.166 F 
ATOM     21  C   UNL     1      36.308 -23.502 -10.934  0.00  0.00    +0.419 C 
ENDBRANCH  13  21
ENDBRANCH   5  12
BRANCH   6  22
ATOM     22  C   UNL     1      34.936 -18.894 -21.420  0.00  0.00    +0.056 C 
BRANCH  22  23
ATOM     23  C   UNL     1      36.060 -17.887 -21.661  0.00  0.00    +0.093 C 
BRANCH  23  24
ATOM     24  N   UNL     1      35.565 -16.542 -21.615  0.00  0.00    -0.320 N 
ATOM     25  N   UNL     1      34.468 -13.665 -21.664  0.00  0.00    -0.220 N 
ATOM     26  N   UNL     1      33.933 -12.492 -22.052  0.00  0.00    -0.178 NA
ATOM     27  N   UNL     1      34.983 -16.510 -23.934  0.00  0.00    -0.232 NA
ATOM     28  N   UNL     1      33.986 -14.559 -25.003  0.00  0.00    -0.245 NA
ATOM     29  C   UNL     1      34.569 -14.584 -22.667  0.00  0.00    +0.185 C 
ATOM     30  C   UNL     1      35.039 -15.882 -22.738  0.00  0.00    +0.128 C 
ATOM     31  C   UNL     1      34.057 -13.958 -23.793  0.00  0.00    +0.103 C 
ATOM     32  C   UNL     1      33.683 -12.676 -23.354  0.00  0.00    +0.134 C 
ATOM     33  C   UNL     1      34.867 -13.823 -20.285  0.00  0.00    +0.135 C 
ATOM     34  C   UNL     1      34.467 -15.820 -24.978  0.00  0.00    +0.251 C 
ATOM     35  H   UNL     1      35.595 -16.060 -20.758  0.00  0.00    +0.148 HD
ENDBRANCH  23  24
ENDBRANCH  22  23
ENDBRANCH   6  22
TORSDOF 5
ENDMDL
MODEL 2
REMARK VINA RESULT:     -12.8      0.590      1.903
REMARK  Name = 15602701
REMARK  5 active torsions:
REMARK  status: ('A' for Active; 'I' for Inactive)
REMARK    1  A    between atoms: N_5  and  C_12
REMARK    2  A    between atoms: C_6  and  C_22
REMARK    3  A    between atoms: C_13  and  C_21
REMARK    4  A    between atoms: C_22  and  C_23
REMARK    5  A    between atoms: C_23  and  N_24
REMARK                            x       y       z     vdW  Elec       q    Type
REMARK                         _______ _______ _______ _____ _____    ______ ____
ROOT
ATOM      1  S   UNL     1      36.562 -19.863 -19.493  0.00  0.00    -0.056 S 
ATOM      2  O   UNL     1      35.489 -22.592 -15.892  0.00  0.00    -0.252 OA
ATOM      3  N   UNL     1      34.648 -21.138 -18.312  0.00  0.00    -0.223 NA
ATOM      4  N   UNL     1      36.835 -21.294 -17.313  0.00  0.00    -0.248 N 
ATOM      5  N   UNL     1      37.772 -22.331 -15.469  0.00  0.00    -0.268 N 
ATOM      6  C   UNL     1      34.999 -19.791 -20.151  0.00  0.00    +0.031 C 
ATOM      7  C   UNL     1      34.111 -20.508 -19.418  0.00  0.00    +0.103 C 
ATOM      8  C   UNL     1      35.932 -20.868 -18.252  0.00  0.00    +0.166 C 
ATOM      9  C   UNL     1      36.583 -22.125 -16.189  0.00  0.00    +0.310 C 
ATOM     10  H   UNL     1      37.765 -20.988 -17.431  0.00  0.00    +0.158 HD
ATOM     11  H   UNL     1      38.576 -21.890 -15.829  0.00  0.00    +0.156 HD
ENDROOT
BRANCH   5  12
ATOM     12  C   UNL     1      37.957 -23.093 -14.292  0.00  0.00    +0.052 C 
ATOM     13  C   UNL     1      37.268 -23.670 -12.066  0.00  0.00    +0.073 C 
ATOM     14  C   UNL     1      37.087 -22.918 -13.227  0.00  0.00    +0.019 C 
ATOM     15  C   UNL     1      39.001 -24.001 -14.228  0.00  0.00    +0.015 C 
ATOM     16  C   UNL     1      38.316 -24.588 -11.986  0.00  0.00    +0.004 C 
ATOM     17  C   UNL     1      39.182 -24.753 -13.067  0.00  0.00    +0.001 C 
BRANCH  13  21
ATOM     18  F   UNL     1      36.887 -22.794  -9.873  0.00  0.00    -0.166 F 
ATOM     19  F   UNL     1      35.194 -22.826 -11.228  0.00  0.00    -0.166 F 
ATOM     20  F   UNL     1      35.937 -24.684 -10.377  0.00  0.00    -0.166 F 
ATOM     21  C   UNL     1      36.342 -23.495 -10.911  0.00  0.00    +0.419 C 
ENDBRANCH  13  21
ENDBRANCH   5  12
BRANCH   6  22
ATOM     22  C   UNL     1      34.755 -18.987 -21.407  0.00  0.00    +0.056 C 
BRANCH  22  23
ATOM     23  C   UNL     1      35.865 -17.973 -21.681  0.00  0.00    +0.093 C 
BRANCH  23  24
ATOM     24  N   UNL     1      35.378 -16.875 -22.462  0.00  0.00    -0.320 N 
ATOM     25  N   UNL     1      34.324 -14.432 -24.014  0.00  0.00    -0.220 N 
ATOM     26  N   UNL     1      33.859 -13.212 -24.344  0.00  0.00    -0.178 NA
ATOM     27  N   UNL     1      35.159 -15.423 -20.575  0.00  0.00    -0.232 NA
ATOM     28  N   UNL     1      34.350 -13.132 -20.775  0.00  0.00    -0.245 NA
ATOM     29  C   UNL     1      34.569 -14.587 -22.682  0.00  0.00    +0.185 C 
ATOM     30  C   UNL     1      35.037 -15.630 -21.905  0.00  0.00    +0.128 C 
ATOM     31  C   UNL     1      34.240 -13.372 -22.103  0.00  0.00    +0.103 C 
ATOM     32  C   UNL     1      33.810 -12.568 -23.172  0.00  0.00    +0.134 C 
ATOM     33  C   UNL     1      34.505 -15.412 -25.060  0.00  0.00    +0.135 C 
ATOM     34  C   UNL     1      34.813 -14.204 -20.098  0.00  0.00    +0.251 C 
ATOM     35  H   UNL     1      35.279 -16.997 -23.434  0.00  0.00    +0.148 HD
ENDBRANCH  23  24
ENDBRANCH  22  23
ENDBRANCH   6  22
TORSDOF 5
ENDMDL
MODEL 3
REMARK VINA RESULT:     -12.6      2.032      2.467
REMARK  Name = 15602701
REMARK  5 active torsions:
REMARK  status: ('A' for Active; 'I' for Inactive)
REMARK    1  A    between atoms: N_5  and  C_12
REMARK    2  A    between atoms: C_6  and  C_22
REMARK    3  A    between atoms: C_13  and  C_21
REMARK    4  A    between atoms: C_22  and  C_23
REMARK    5  A    between atoms: C_23  and  N_24
REMARK                            x       y       z     vdW  Elec       q    Type
REMARK                         _______ _______ _______ _____ _____    ______ ____
ROOT
ATOM      1  S   UNL     1      34.498 -20.363 -19.798  0.00  0.00    -0.056 S 
ATOM      2  O   UNL     1      37.734 -20.947 -16.520  0.00  0.00    -0.252 OA
ATOM      3  N   UNL     1      36.854 -19.644 -19.011  0.00  0.00    -0.223 NA
ATOM      4  N   UNL     1      35.693 -21.252 -17.641  0.00  0.00    -0.248 N 
ATOM      5  N   UNL     1      36.119 -22.416 -15.687  0.00  0.00    -0.268 N 
ATOM      6  C   UNL     1      35.364 -19.232 -20.723  0.00  0.00    +0.031 C 
ATOM      7  C   UNL     1      36.577 -18.962 -20.180  0.00  0.00    +0.103 C 
ATOM      8  C   UNL     1      35.829 -20.412 -18.715  0.00  0.00    +0.166 C 
ATOM      9  C   UNL     1      36.635 -21.483 -16.603  0.00  0.00    +0.310 C 
ATOM     10  H   UNL     1      34.847 -21.753 -17.582  0.00  0.00    +0.158 HD
ATOM     11  H   UNL     1      35.219 -22.763 -15.885  0.00  0.00    +0.156 HD
ENDROOT
BRANCH   5  12
ATOM     12  C   UNL     1      36.734 -22.918 -14.516  0.00  0.00    +0.052 C 
ATOM     13  C   UNL     1      38.564 -24.056 -13.461  0.00  0.00    +0.073 C 
ATOM     14  C   UNL     1      37.957 -23.562 -14.615  0.00  0.00    +0.019 C 
ATOM     15  C   UNL     1      36.102 -22.755 -13.295  0.00  0.00    +0.015 C 
ATOM     16  C   UNL     1      37.940 -23.900 -12.223  0.00  0.00    +0.004 C 
ATOM     17  C   UNL     1      36.708 -23.250 -12.140  0.00  0.00    +0.001 C 
BRANCH  13  21
ATOM     18  F   UNL     1      39.841 -26.055 -13.143  0.00  0.00    -0.166 F 
ATOM     19  F   UNL     1      40.396 -24.788 -14.813  0.00  0.00    -0.166 F 
ATOM     20  F   UNL     1      40.840 -24.158 -12.779  0.00  0.00    -0.166 F 
ATOM     21  C   UNL     1      39.881 -24.751 -13.548  0.00  0.00    +0.419 C 
ENDBRANCH  13  21
ENDBRANCH   5  12
BRANCH   6  22
ATOM     22  C   UNL     1      34.747 -18.670 -21.982  0.00  0.00    +0.056 C 
BRANCH  22  23
ATOM     23  C   UNL     1      35.636 -17.627 -22.658  0.00  0.00    +0.093 C 
BRANCH  23  24
ATOM     24  N   UNL     1      35.239 -16.299 -22.295  0.00  0.00    -0.320 N 
ATOM     25  N   UNL     1      34.344 -13.422 -21.657  0.00  0.00    -0.220 N 
ATOM     26  N   UNL     1      33.872 -12.164 -21.751  0.00  0.00    -0.178 NA
ATOM     27  N   UNL     1      34.546 -15.730 -24.511  0.00  0.00    -0.232 NA
ATOM     28  N   UNL     1      33.635 -13.539 -25.073  0.00  0.00    -0.245 NA
ATOM     29  C   UNL     1      34.330 -14.105 -22.838  0.00  0.00    +0.185 C 
ATOM     30  C   UNL     1      34.705 -15.381 -23.215  0.00  0.00    +0.128 C 
ATOM     31  C   UNL     1      33.807 -13.222 -23.769  0.00  0.00    +0.103 C 
ATOM     32  C   UNL     1      33.546 -12.047 -23.043  0.00  0.00    +0.134 C 
ATOM     33  C   UNL     1      34.798 -13.899 -20.372  0.00  0.00    +0.135 C 
ATOM     34  C   UNL     1      34.028 -14.801 -25.349  0.00  0.00    +0.251 C 
ATOM     35  H   UNL     1      35.345 -16.017 -21.358  0.00  0.00    +0.148 HD
ENDBRANCH  23  24
ENDBRANCH  22  23
ENDBRANCH   6  22
TORSDOF 5
ENDMDL
MODEL 4
REMARK VINA RESULT:     -12.5      2.094      2.992
REMARK  Name = 15602701
REMARK  5 active torsions:
REMARK  status: ('A' for Active; 'I' for Inactive)
REMARK    1  A    between atoms: N_5  and  C_12
REMARK    2  A    between atoms: C_6  and  C_22
REMARK    3  A    between atoms: C_13  and  C_21
REMARK    4  A    between atoms: C_22  and  C_23
REMARK    5  A    between atoms: C_23  and  N_24
REMARK                            x       y       z     vdW  Elec       q    Type
REMARK                         _______ _______ _______ _____ _____    ______ ____
ROOT
ATOM      1  S   UNL     1      34.455 -20.373 -19.727  0.00  0.00    -0.056 S 
ATOM      2  O   UNL     1      37.731 -20.989 -16.494  0.00  0.00    -0.252 OA
ATOM      3  N   UNL     1      36.827 -19.675 -18.971  0.00  0.00    -0.223 NA
ATOM      4  N   UNL     1      35.672 -21.276 -17.589  0.00  0.00    -0.248 N 
ATOM      5  N   UNL     1      36.116 -22.447 -15.643  0.00  0.00    -0.268 N 
ATOM      6  C   UNL     1      35.317 -19.247 -20.661  0.00  0.00    +0.031 C 
ATOM      7  C   UNL     1      36.540 -18.988 -20.134  0.00  0.00    +0.103 C 
ATOM      8  C   UNL     1      35.800 -20.435 -18.662  0.00  0.00    +0.166 C 
ATOM      9  C   UNL     1      36.626 -21.517 -16.564  0.00  0.00    +0.310 C 
ATOM     10  H   UNL     1      34.823 -21.771 -17.519  0.00  0.00    +0.158 HD
ATOM     11  H   UNL     1      35.211 -22.787 -15.829  0.00  0.00    +0.156 HD
ENDROOT
BRANCH   5  12
ATOM     12  C   UNL     1      36.743 -22.958 -14.482  0.00  0.00    +0.052 C 
ATOM     13  C   UNL     1      38.590 -24.090 -13.451  0.00  0.00    +0.073 C 
ATOM     14  C   UNL     1      37.972 -23.588 -14.596  0.00  0.00    +0.019 C 
ATOM     15  C   UNL     1      36.117 -22.814 -13.255  0.00  0.00    +0.015 C 
ATOM     16  C   UNL     1      37.972 -23.954 -12.207  0.00  0.00    +0.004 C 
ATOM     17  C   UNL     1      36.735 -23.316 -12.110  0.00  0.00    +0.001 C 
BRANCH  13  21
ATOM     18  F   UNL     1      39.886 -26.082 -13.169  0.00  0.00    -0.166 F 
ATOM     19  F   UNL     1      40.423 -24.784 -14.821  0.00  0.00    -0.166 F 
ATOM     20  F   UNL     1      40.869 -24.182 -12.780  0.00  0.00    -0.166 F 
ATOM     21  C   UNL     1      39.913 -24.772 -13.554  0.00  0.00    +0.419 C 
ENDBRANCH  13  21
ENDBRANCH   5  12
BRANCH   6  22
ATOM     22  C   UNL     1      34.687 -18.677 -21.911  0.00  0.00    +0.056 C 
BRANCH  22  23
ATOM     23  C   UNL     1      35.687 -17.910 -22.776  0.00  0.00    +0.093 C 
BRANCH  23  24
ATOM     24  N   UNL     1      35.141 -16.656 -23.203  0.00  0.00    -0.320 N 
ATOM     25  N   UNL     1      33.982 -13.910 -23.982  0.00  0.00    -0.220 N 
ATOM     26  N   UNL     1      33.527 -12.643 -23.951  0.00  0.00    -0.178 NA
ATOM     27  N   UNL     1      35.252 -15.683 -21.023  0.00  0.00    -0.232 NA
ATOM     28  N   UNL     1      34.520 -13.401 -20.571  0.00  0.00    -0.245 NA
ATOM     29  C   UNL     1      34.406 -14.373 -22.771  0.00  0.00    +0.185 C 
ATOM     30  C   UNL     1      34.935 -15.573 -22.332  0.00  0.00    +0.128 C 
ATOM     31  C   UNL     1      34.214 -13.324 -21.887  0.00  0.00    +0.103 C 
ATOM     32  C   UNL     1      33.671 -12.290 -22.669  0.00  0.00    +0.134 C 
ATOM     33  C   UNL     1      33.972 -14.621 -25.239  0.00  0.00    +0.135 C 
ATOM     34  C   UNL     1      35.029 -14.605 -20.234  0.00  0.00    +0.251 C 
ATOM     35  H   UNL     1      34.900 -16.548 -24.152  0.00  0.00    +0.148 HD
ENDBRANCH  23  24
ENDBRANCH  22  23
ENDBRANCH   6  22
TORSDOF 5
ENDMDL
MODEL 5
REMARK VINA RESULT:     -11.3      3.568      4.470
REMARK  Name = 15602701
REMARK  5 active torsions:
REMARK  status: ('A' for Active; 'I' for Inactive)
REMARK    1  A    between atoms: N_5  and  C_12
REMARK    2  A    between atoms: C_6  and  C_22
REMARK    3  A    between atoms: C_13  and  C_21
REMARK    4  A    between atoms: C_22  and  C_23
REMARK    5  A    between atoms: C_23  and  N_24
REMARK                            x       y       z     vdW  Elec       q    Type
REMARK                         _______ _______ _______ _____ _____    ______ ____
ROOT
ATOM      1  S   UNL     1      34.190 -19.292 -20.267  0.00  0.00    -0.056 S 
ATOM      2  O   UNL     1      33.663 -22.382 -16.842  0.00  0.00    -0.252 OA
ATOM      3  N   UNL     1      35.430 -20.931 -18.698  0.00  0.00    -0.223 NA
ATOM      4  N   UNL     1      33.037 -20.793 -18.454  0.00  0.00    -0.248 N 
ATOM      5  N   UNL     1      31.423 -21.780 -17.122  0.00  0.00    -0.268 N 
ATOM      6  C   UNL     1      35.878 -19.431 -20.393  0.00  0.00    +0.031 C 
ATOM      7  C   UNL     1      36.376 -20.329 -19.506  0.00  0.00    +0.103 C 
ATOM      8  C   UNL     1      34.244 -20.461 -19.011  0.00  0.00    +0.166 C 
ATOM      9  C   UNL     1      32.797 -21.725 -17.409  0.00  0.00    +0.310 C 
ATOM     10  H   UNL     1      32.245 -20.333 -18.819  0.00  0.00    +0.158 HD
ATOM     11  H   UNL     1      30.845 -21.193 -17.662  0.00  0.00    +0.156 HD
ENDROOT
BRANCH   5  12
ATOM     12  C   UNL     1      30.766 -22.577 -16.155  0.00  0.00    +0.052 C 
ATOM     13  C   UNL     1      30.699 -23.531 -13.954  0.00  0.00    +0.073 C 
ATOM     14  C   UNL     1      31.347 -22.746 -14.908  0.00  0.00    +0.019 C 
ATOM     15  C   UNL     1      29.555 -23.169 -16.473  0.00  0.00    +0.015 C 
ATOM     16  C   UNL     1      29.479 -24.134 -14.259  0.00  0.00    +0.004 C 
ATOM     17  C   UNL     1      28.907 -23.954 -15.518  0.00  0.00    +0.001 C 
BRANCH  13  21
ATOM     18  F   UNL     1      32.366 -22.894 -12.360  0.00  0.00    -0.166 F 
ATOM     19  F   UNL     1      30.440 -23.508 -11.577  0.00  0.00    -0.166 F 
ATOM     20  F   UNL     1      31.788 -24.989 -12.423  0.00  0.00    -0.166 F 
ATOM     21  C   UNL     1      31.310 -23.724 -12.607  0.00  0.00    +0.419 C 
ENDBRANCH  13  21
ENDBRANCH   5  12
BRANCH   6  22
ATOM     22  C   UNL     1      36.621 -18.601 -21.414  0.00  0.00    +0.056 C 
BRANCH  22  23
ATOM     23  C   UNL     1      35.696 -18.014 -22.480  0.00  0.00    +0.093 C 
BRANCH  23  24
ATOM     24  N   UNL     1      35.327 -16.668 -22.156  0.00  0.00    -0.320 N 
ATOM     25  N   UNL     1      34.489 -13.756 -21.604  0.00  0.00    -0.220 N 
ATOM     26  N   UNL     1      34.037 -12.494 -21.734  0.00  0.00    -0.178 NA
ATOM     27  N   UNL     1      34.609 -16.162 -24.380  0.00  0.00    -0.232 NA
ATOM     28  N   UNL     1      33.727 -13.977 -25.003  0.00  0.00    -0.245 NA
ATOM     29  C   UNL     1      34.446 -14.478 -22.760  0.00  0.00    +0.185 C 
ATOM     30  C   UNL     1      34.794 -15.772 -23.099  0.00  0.00    +0.128 C 
ATOM     31  C   UNL     1      33.924 -13.618 -23.713  0.00  0.00    +0.103 C 
ATOM     32  C   UNL     1      33.693 -12.415 -23.024  0.00  0.00    +0.134 C 
ATOM     33  C   UNL     1      34.955 -14.197 -20.310  0.00  0.00    +0.135 C 
ATOM     34  C   UNL     1      34.094 -15.253 -25.241  0.00  0.00    +0.251 C 
ATOM     35  H   UNL     1      35.451 -16.357 -21.231  0.00  0.00    +0.148 HD
ENDBRANCH  23  24
ENDBRANCH  22  23
ENDBRANCH   6  22
TORSDOF 5
ENDMDL
MODEL 6
REMARK VINA RESULT:     -11.3      5.464      8.841
REMARK  Name = 15602701
REMARK  5 active torsions:
REMARK  status: ('A' for Active; 'I' for Inactive)
REMARK    1  A    between atoms: N_5  and  C_12
REMARK    2  A    between atoms: C_6  and  C_22
REMARK    3  A    between atoms: C_13  and  C_21
REMARK    4  A    between atoms: C_22  and  C_23
REMARK    5  A    between atoms: C_23  and  N_24
REMARK                            x       y       z     vdW  Elec       q    Type
REMARK                         _______ _______ _______ _____ _____    ______ ____
ROOT
ATOM      1  S   UNL     1      34.263 -12.812 -23.783  0.00  0.00    -0.056 S 
ATOM      2  O   UNL     1      34.848 -15.404 -19.975  0.00  0.00    -0.252 OA
ATOM      3  N   UNL     1      34.162 -12.814 -21.200  0.00  0.00    -0.223 NA
ATOM      4  N   UNL     1      34.788 -14.883 -22.264  0.00  0.00    -0.248 N 
ATOM      5  N   UNL     1      35.366 -17.018 -21.583  0.00  0.00    -0.268 N 
ATOM      6  C   UNL     1      33.827 -11.383 -22.977  0.00  0.00    +0.031 C 
ATOM      7  C   UNL     1      33.822 -11.547 -21.631  0.00  0.00    +0.103 C 
ATOM      8  C   UNL     1      34.415 -13.565 -22.248  0.00  0.00    +0.166 C 
ATOM      9  C   UNL     1      34.987 -15.737 -21.147  0.00  0.00    +0.310 C 
ATOM     10  H   UNL     1      34.936 -15.285 -23.152  0.00  0.00    +0.158 HD
ATOM     11  H   UNL     1      35.438 -17.138 -22.558  0.00  0.00    +0.156 HD
ENDROOT
BRANCH   5  12
ATOM     12  C   UNL     1      35.658 -18.156 -20.795  0.00  0.00    +0.052 C 
ATOM     13  C   UNL     1      34.917 -20.132 -19.652  0.00  0.00    +0.073 C 
ATOM     14  C   UNL     1      34.629 -19.009 -20.429  0.00  0.00    +0.019 C 
ATOM     15  C   UNL     1      36.966 -18.394 -20.406  0.00  0.00    +0.015 C 
ATOM     16  C   UNL     1      36.230 -20.386 -19.253  0.00  0.00    +0.004 C 
ATOM     17  C   UNL     1      37.254 -19.517 -19.629  0.00  0.00    +0.001 C 
BRANCH  13  21
ATOM     18  F   UNL     1      34.170 -22.381 -19.327  0.00  0.00    -0.166 F 
ATOM     19  F   UNL     1      33.395 -20.880 -17.966  0.00  0.00    -0.166 F 
ATOM     20  F   UNL     1      32.710 -20.931 -20.029  0.00  0.00    -0.166 F 
ATOM     21  C   UNL     1      33.823 -21.062 -19.250  0.00  0.00    +0.419 C 
ENDBRANCH  13  21
ENDBRANCH   5  12
BRANCH   6  22
ATOM     22  C   UNL     1      33.509 -10.143 -23.779  0.00  0.00    +0.056 C 
BRANCH  22  23
ATOM     23  C   UNL     1      34.404  -8.959 -23.412  0.00  0.00    +0.093 C 
BRANCH  23  24
ATOM     24  N   UNL     1      33.800  -8.154 -22.392  0.00  0.00    -0.320 N 
ATOM     25  N   UNL     1      32.452  -6.329 -20.308  0.00  0.00    -0.220 N 
ATOM     26  N   UNL     1      31.770  -5.334 -19.710  0.00  0.00    -0.178 NA
ATOM     27  N   UNL     1      32.940  -6.552 -23.945  0.00  0.00    -0.232 NA
ATOM     28  N   UNL     1      31.651  -4.608 -23.237  0.00  0.00    -0.245 NA
ATOM     29  C   UNL     1      32.512  -6.217 -21.666  0.00  0.00    +0.185 C 
ATOM     30  C   UNL     1      33.084  -6.977 -22.669  0.00  0.00    +0.128 C 
ATOM     31  C   UNL     1      31.813  -5.060 -21.972  0.00  0.00    +0.103 C 
ATOM     32  C   UNL     1      31.382  -4.562 -20.730  0.00  0.00    +0.134 C 
ATOM     33  C   UNL     1      33.027  -7.369 -19.487  0.00  0.00    +0.135 C 
ATOM     34  C   UNL     1      32.242  -5.410 -24.147  0.00  0.00    +0.251 C 
ATOM     35  H   UNL     1      33.890  -8.439 -21.454  0.00  0.00    +0.148 HD
ENDBRANCH  23  24
ENDBRANCH  22  23
ENDBRANCH   6  22
TORSDOF 5
ENDMDL
MODEL 7
REMARK VINA RESULT:     -11.2      5.859     12.038
REMARK  Name = 15602701
REMARK  5 active torsions:
REMARK  status: ('A' for Active; 'I' for Inactive)
REMARK    1  A    between atoms: N_5  and  C_12
REMARK    2  A    between atoms: C_6  and  C_22
REMARK    3  A    between atoms: C_13  and  C_21
REMARK    4  A    between atoms: C_22  and  C_23
REMARK    5  A    between atoms: C_23  and  N_24
REMARK                            x       y       z     vdW  Elec       q    Type
REMARK                         _______ _______ _______ _____ _____    ______ ____
ROOT
ATOM      1  S   UNL     1      31.946 -22.273 -16.330  0.00  0.00    -0.056 S 
ATOM      2  O   UNL     1      35.538 -20.757 -18.852  0.00  0.00    -0.252 OA
ATOM      3  N   UNL     1      34.513 -22.376 -16.614  0.00  0.00    -0.223 NA
ATOM      4  N   UNL     1      33.301 -21.003 -18.179  0.00  0.00    -0.248 N 
ATOM      5  N   UNL     1      33.819 -19.656 -19.988  0.00  0.00    -0.268 N 
ATOM      6  C   UNL     1      32.853 -23.225 -15.257  0.00  0.00    +0.031 C 
ATOM      7  C   UNL     1      34.179 -23.173 -15.536  0.00  0.00    +0.103 C 
ATOM      8  C   UNL     1      33.416 -21.851 -17.110  0.00  0.00    +0.166 C 
ATOM      9  C   UNL     1      34.348 -20.497 -18.995  0.00  0.00    +0.310 C 
ATOM     10  H   UNL     1      32.389 -20.709 -18.409  0.00  0.00    +0.158 HD
ATOM     11  H   UNL     1      32.841 -19.540 -19.980  0.00  0.00    +0.156 HD
ENDROOT
BRANCH   5  12
ATOM     12  C   UNL     1      34.518 -18.955 -20.999  0.00  0.00    +0.052 C 
ATOM     13  C   UNL     1      34.685 -18.225 -23.279  0.00  0.00    +0.073 C 
ATOM     14  C   UNL     1      33.997 -18.917 -22.283  0.00  0.00    +0.019 C 
ATOM     15  C   UNL     1      35.707 -18.319 -20.685  0.00  0.00    +0.015 C 
ATOM     16  C   UNL     1      35.885 -17.579 -22.979  0.00  0.00    +0.004 C 
ATOM     17  C   UNL     1      36.396 -17.627 -21.681  0.00  0.00    +0.001 C 
BRANCH  13  21
ATOM     18  F   UNL     1      32.773 -18.168 -24.717  0.00  0.00    -0.166 F 
ATOM     19  F   UNL     1      34.525 -17.065 -25.364  0.00  0.00    -0.166 F 
ATOM     20  F   UNL     1      34.529 -19.239 -25.425  0.00  0.00    -0.166 F 
ATOM     21  C   UNL     1      34.139 -18.173 -24.666  0.00  0.00    +0.419 C 
ENDBRANCH  13  21
ENDBRANCH   5  12
BRANCH   6  22
ATOM     22  C   UNL     1      32.149 -23.989 -14.160  0.00  0.00    +0.056 C 
BRANCH  22  23
ATOM     23  C   UNL     1      32.971 -24.064 -12.874  0.00  0.00    +0.093 C 
BRANCH  23  24
ATOM     24  N   UNL     1      34.323 -24.450 -13.148  0.00  0.00    -0.320 N 
ATOM     25  N   UNL     1      37.270 -25.219 -13.607  0.00  0.00    -0.220 N 
ATOM     26  N   UNL     1      38.601 -25.380 -13.472  0.00  0.00    -0.178 NA
ATOM     27  N   UNL     1      35.171 -23.508 -11.121  0.00  0.00    -0.232 NA
ATOM     28  N   UNL     1      37.533 -23.603 -10.524  0.00  0.00    -0.245 NA
ATOM     29  C   UNL     1      36.687 -24.555 -12.568  0.00  0.00    +0.185 C 
ATOM     30  C   UNL     1      35.391 -24.172 -12.278  0.00  0.00    +0.128 C 
ATOM     31  C   UNL     1      37.719 -24.265 -11.690  0.00  0.00    +0.103 C 
ATOM     32  C   UNL     1      38.870 -24.795 -12.299  0.00  0.00    +0.134 C 
ATOM     33  C   UNL     1      36.624 -25.742 -14.788  0.00  0.00    +0.135 C 
ATOM     34  C   UNL     1      36.241 -23.268 -10.326  0.00  0.00    +0.251 C 
ATOM     35  H   UNL     1      34.513 -24.934 -13.984  0.00  0.00    +0.148 HD
ENDBRANCH  23  24
ENDBRANCH  22  23
ENDBRANCH   6  22
TORSDOF 5
ENDMDL
MODEL 8
REMARK VINA RESULT:     -11.0      5.151      8.072
REMARK  Name = 15602701
REMARK  5 active torsions:
REMARK  status: ('A' for Active; 'I' for Inactive)
REMARK    1  A    between atoms: N_5  and  C_12
REMARK    2  A    between atoms: C_6  and  C_22
REMARK    3  A    between atoms: C_13  and  C_21
REMARK    4  A    between atoms: C_22  and  C_23
REMARK    5  A    between atoms: C_23  and  N_24
REMARK                            x       y       z     vdW  Elec       q    Type
REMARK                         _______ _______ _______ _____ _____    ______ ____
ROOT
ATOM      1  S   UNL     1      34.032 -13.764 -24.543  0.00  0.00    -0.056 S 
ATOM      2  O   UNL     1      35.431 -15.596 -20.512  0.00  0.00    -0.252 OA
ATOM      3  N   UNL     1      34.754 -13.223 -22.120  0.00  0.00    -0.223 NA
ATOM      4  N   UNL     1      34.722 -15.548 -22.751  0.00  0.00    -0.248 N 
ATOM      5  N   UNL     1      35.187 -17.573 -21.733  0.00  0.00    -0.268 N 
ATOM      6  C   UNL     1      34.073 -12.143 -24.041  0.00  0.00    +0.031 C 
ATOM      7  C   UNL     1      34.472 -12.026 -22.750  0.00  0.00    +0.103 C 
ATOM      8  C   UNL     1      34.557 -14.206 -22.969  0.00  0.00    +0.166 C 
ATOM      9  C   UNL     1      35.145 -16.181 -21.551  0.00  0.00    +0.310 C 
ATOM     10  H   UNL     1      34.525 -16.143 -23.511  0.00  0.00    +0.158 HD
ATOM     11  H   UNL     1      34.929 -17.900 -22.625  0.00  0.00    +0.156 HD
ENDROOT
BRANCH   5  12
ATOM     12  C   UNL     1      35.554 -18.564 -20.791  0.00  0.00    +0.052 C 
ATOM     13  C   UNL     1      34.930 -20.316 -19.276  0.00  0.00    +0.073 C 
ATOM     14  C   UNL     1      34.568 -19.339 -20.203  0.00  0.00    +0.019 C 
ATOM     15  C   UNL     1      36.892 -18.740 -20.479  0.00  0.00    +0.015 C 
ATOM     16  C   UNL     1      36.273 -20.506 -18.950  0.00  0.00    +0.004 C 
ATOM     17  C   UNL     1      37.254 -19.717 -19.552  0.00  0.00    +0.001 C 
BRANCH  13  21
ATOM     18  F   UNL     1      34.248 -21.654 -17.413  0.00  0.00    -0.166 F 
ATOM     19  F   UNL     1      32.708 -20.499 -18.412  0.00  0.00    -0.166 F 
ATOM     20  F   UNL     1      33.552 -22.251 -19.384  0.00  0.00    -0.166 F 
ATOM     21  C   UNL     1      33.882 -21.161 -18.633  0.00  0.00    +0.419 C 
ENDBRANCH  13  21
ENDBRANCH   5  12
BRANCH   6  22
ATOM     22  C   UNL     1      33.692 -11.051 -25.014  0.00  0.00    +0.056 C 
BRANCH  22  23
ATOM     23  C   UNL     1      33.537  -9.689 -24.338  0.00  0.00    +0.093 C 
BRANCH  23  24
ATOM     24  N   UNL     1      32.985  -9.826 -23.023  0.00  0.00    -0.320 N 
ATOM     25  N   UNL     1      31.839  -9.978 -20.168  0.00  0.00    -0.220 N 
ATOM     26  N   UNL     1      31.471  -9.689 -18.905  0.00  0.00    -0.178 NA
ATOM     27  N   UNL     1      33.588  -7.608 -22.366  0.00  0.00    -0.232 NA
ATOM     28  N   UNL     1      33.088  -6.719 -20.152  0.00  0.00    -0.245 NA
ATOM     29  C   UNL     1      32.476  -8.955 -20.805  0.00  0.00    +0.185 C 
ATOM     30  C   UNL     1      33.016  -8.796 -22.068  0.00  0.00    +0.128 C 
ATOM     31  C   UNL     1      32.524  -7.920 -19.885  0.00  0.00    +0.103 C 
ATOM     32  C   UNL     1      31.892  -8.430 -18.737  0.00  0.00    +0.134 C 
ATOM     33  C   UNL     1      31.535 -11.288 -20.696  0.00  0.00    +0.135 C 
ATOM     34  C   UNL     1      33.588  -6.656 -21.404  0.00  0.00    +0.251 C 
ATOM     35  H   UNL     1      32.563 -10.681 -22.778  0.00  0.00    +0.148 HD
ENDBRANCH  23  24
ENDBRANCH  22  23
ENDBRANCH   6  22
TORSDOF 5
ENDMDL
MODEL 9
REMARK VINA RESULT:     -11.0      5.639      9.179
REMARK  Name = 15602701
REMARK  5 active torsions:
REMARK  status: ('A' for Active; 'I' for Inactive)
REMARK    1  A    between atoms: N_5  and  C_12
REMARK    2  A    between atoms: C_6  and  C_22
REMARK    3  A    between atoms: C_13  and  C_21
REMARK    4  A    between atoms: C_22  and  C_23
REMARK    5  A    between atoms: C_23  and  N_24
REMARK                            x       y       z     vdW  Elec       q    Type
REMARK                         _______ _______ _______ _____ _____    ______ ____
ROOT
ATOM      1  S   UNL     1      34.312 -12.531 -23.854  0.00  0.00    -0.056 S 
ATOM      2  O   UNL     1      34.592 -15.261 -20.108  0.00  0.00    -0.252 OA
ATOM      3  N   UNL     1      33.918 -12.653 -21.302  0.00  0.00    -0.223 NA
ATOM      4  N   UNL     1      34.766 -14.641 -22.367  0.00  0.00    -0.248 N 
ATOM      5  N   UNL     1      35.370 -16.775 -21.708  0.00  0.00    -0.268 N 
ATOM      6  C   UNL     1      33.715 -11.161 -23.048  0.00  0.00    +0.031 C 
ATOM      7  C   UNL     1      33.565 -11.384 -21.719  0.00  0.00    +0.103 C 
ATOM      8  C   UNL     1      34.327 -13.344 -22.342  0.00  0.00    +0.166 C 
ATOM      9  C   UNL     1      34.880 -15.534 -21.268  0.00  0.00    +0.310 C 
ATOM     10  H   UNL     1      35.034 -14.995 -23.247  0.00  0.00    +0.158 HD
ATOM     11  H   UNL     1      35.558 -16.848 -22.672  0.00  0.00    +0.156 HD
ENDROOT
BRANCH   5  12
ATOM     12  C   UNL     1      35.628 -17.933 -20.937  0.00  0.00    +0.052 C 
ATOM     13  C   UNL     1      34.827 -19.895 -19.812  0.00  0.00    +0.073 C 
ATOM     14  C   UNL     1      34.573 -18.753 -20.572  0.00  0.00    +0.019 C 
ATOM     15  C   UNL     1      36.930 -18.223 -20.564  0.00  0.00    +0.015 C 
ATOM     16  C   UNL     1      36.133 -20.202 -19.428  0.00  0.00    +0.004 C 
ATOM     17  C   UNL     1      37.184 -19.365 -19.804  0.00  0.00    +0.001 C 
BRANCH  13  21
ATOM     18  F   UNL     1      33.243 -20.558 -18.145  0.00  0.00    -0.166 F 
ATOM     19  F   UNL     1      32.605 -20.682 -20.214  0.00  0.00    -0.166 F 
ATOM     20  F   UNL     1      34.048 -22.111 -19.437  0.00  0.00    -0.166 F 
ATOM     21  C   UNL     1      33.704 -20.790 -19.410  0.00  0.00    +0.419 C 
ENDBRANCH  13  21
ENDBRANCH   5  12
BRANCH   6  22
ATOM     22  C   UNL     1      33.428  -9.901 -23.832  0.00  0.00    +0.056 C 
BRANCH  22  23
ATOM     23  C   UNL     1      34.384  -8.761 -23.484  0.00  0.00    +0.093 C 
BRANCH  23  24
ATOM     24  N   UNL     1      33.680  -7.519 -23.357  0.00  0.00    -0.320 N 
ATOM     25  N   UNL     1      32.155  -4.875 -22.938  0.00  0.00    -0.220 N 
ATOM     26  N   UNL     1      31.484  -3.842 -22.394  0.00  0.00    -0.178 NA
ATOM     27  N   UNL     1      33.361  -7.757 -21.000  0.00  0.00    -0.232 NA
ATOM     28  N   UNL     1      32.191  -6.086 -19.664  0.00  0.00    -0.245 NA
ATOM     29  C   UNL     1      32.509  -5.838 -22.038  0.00  0.00    +0.185 C 
ATOM     30  C   UNL     1      33.186  -7.040 -22.133  0.00  0.00    +0.128 C 
ATOM     31  C   UNL     1      32.033  -5.393 -20.816  0.00  0.00    +0.103 C 
ATOM     32  C   UNL     1      31.412  -4.163 -21.097  0.00  0.00    +0.134 C 
ATOM     33  C   UNL     1      32.418  -4.862 -24.358  0.00  0.00    +0.135 C 
ATOM     34  C   UNL     1      32.860  -7.243 -19.852  0.00  0.00    +0.251 C 
ATOM     35  H   UNL     1      33.537  -6.976 -24.166  0.00  0.00    +0.148 HD
ENDBRANCH  23  24
ENDBRANCH  22  23
ENDBRANCH   6  22
TORSDOF 5
ENDMDL
