MODEL 1
REMARK VINA RESULT:     -11.5      0.000      0.000
REMARK  Name = 4369497
REMARK  6 active torsions:
REMARK  status: ('A' for Active; 'I' for Inactive)
REMARK    1  A    between atoms: N_2  and  C_9
REMARK    2  A    between atoms: C_5  and  C_21
REMARK    3  A    between atoms: C_8  and  S_14
REMARK    4  A    between atoms: C_12  and  O_19
REMARK    5  A    between atoms: S_14  and  C_17
REMARK    6  A    between atoms: C_22  and  C_28
REMARK                            x       y       z     vdW  Elec       q    Type
REMARK                         _______ _______ _______ _____ _____    ______ ____
ROOT
ATOM      1  O   UNL     1      34.710 -20.239 -19.351  0.00  0.00    -0.424 OA
ATOM      2  N   UNL     1      34.436 -21.627 -17.542  0.00  0.00    -0.265 N 
ATOM      3  N   UNL     1      36.571 -20.704 -18.154  0.00  0.00    -0.193 NA
ATOM      4  C   UNL     1      35.279 -20.885 -18.297  0.00  0.00    +0.293 C 
ATOM      5  C   UNL     1      35.760 -19.591 -19.917  0.00  0.00    +0.168 C 
ATOM      6  C   UNL     1      36.886 -19.870 -19.197  0.00  0.00    +0.141 C 
ATOM      7  H   UNL     1      33.521 -21.704 -17.897  0.00  0.00    +0.157 HD
ENDROOT
BRANCH   2   9
ATOM      8  C   UNL     1      36.191 -23.045 -14.607  0.00  0.00    +0.107 C 
ATOM      9  C   UNL     1      34.662 -22.311 -16.315  0.00  0.00    +0.087 C 
ATOM     10  C   UNL     1      35.955 -22.377 -15.808  0.00  0.00    +0.036 C 
ATOM     11  C   UNL     1      35.133 -23.642 -13.922  0.00  0.00    +0.022 C 
ATOM     12  C   UNL     1      33.603 -22.903 -15.639  0.00  0.00    +0.152 C 
ATOM     13  C   UNL     1      33.839 -23.572 -14.438  0.00  0.00    +0.040 C 
BRANCH   8  14
ATOM     14  S   UNL     1      37.810 -23.135 -13.961  0.00  0.00    +0.009 S 
ATOM     15  O   UNL     1      38.741 -22.850 -15.044  0.00  0.00    -0.169 OA
ATOM     16  O   UNL     1      37.872 -22.358 -12.731  0.00  0.00    -0.169 OA
BRANCH  14  17
ATOM     17  C   UNL     1      38.009 -24.844 -13.505  0.00  0.00    +0.156 C 
ATOM     18  C   UNL     1      39.466 -25.199 -13.309  0.00  0.00    +0.028 C 
ENDBRANCH  14  17
ENDBRANCH   8  14
BRANCH  12  19
ATOM     19  O   UNL     1      32.332 -22.846 -16.127  0.00  0.00    -0.470 OA
ATOM     20  C   UNL     1      31.285 -22.628 -15.183  0.00  0.00    +0.253 C 
ENDBRANCH  12  19
ENDBRANCH   2   9
BRANCH   5  21
ATOM     21  C   UNL     1      35.460 -18.801 -21.087  0.00  0.00    +0.036 C 
ATOM     22  C   UNL     1      34.999 -16.658 -22.105  0.00  0.00    +0.018 C 
ATOM     23  C   UNL     1      35.291 -17.421 -20.973  0.00  0.00    +0.005 C 
ATOM     24  C   UNL     1      35.335 -19.419 -22.331  0.00  0.00    +0.003 C 
ATOM     25  C   UNL     1      34.875 -17.276 -23.349  0.00  0.00    +0.001 C 
ATOM     26  C   UNL     1      35.043 -18.656 -23.463  0.00  0.00    +0.000 C 
BRANCH  22  28
ATOM     27  N   UNL     1      34.668 -14.576 -23.160  0.00  0.00    -0.244 NA
ATOM     28  C   UNL     1      34.824 -15.227 -21.987  0.00  0.00    +0.081 C 
ATOM     29  C   UNL     1      34.822 -14.611 -20.747  0.00  0.00    +0.019 C 
ATOM     30  C   UNL     1      34.649 -13.232 -20.708  0.00  0.00    +0.003 C 
ATOM     31  C   UNL     1      34.502 -13.236 -23.083  0.00  0.00    +0.099 C 
ATOM     32  C   UNL     1      34.486 -12.524 -21.894  0.00  0.00    +0.021 C 
ENDBRANCH  22  28
ENDBRANCH   5  21
TORSDOF 6
ENDMDL
MODEL 2
REMARK VINA RESULT:     -11.5      2.171      2.876
REMARK  Name = 4369497
REMARK  6 active torsions:
REMARK  status: ('A' for Active; 'I' for Inactive)
REMARK    1  A    between atoms: N_2  and  C_9
REMARK    2  A    between atoms: C_5  and  C_21
REMARK    3  A    between atoms: C_8  and  S_14
REMARK    4  A    between atoms: C_12  and  O_19
REMARK    5  A    between atoms: S_14  and  C_17
REMARK    6  A    between atoms: C_22  and  C_28
REMARK                            x       y       z     vdW  Elec       q    Type
REMARK                         _______ _______ _______ _____ _____    ______ ____
ROOT
ATOM      1  O   UNL     1      36.402 -20.507 -18.001  0.00  0.00    -0.424 OA
ATOM      2  N   UNL     1      36.237 -21.707 -16.050  0.00  0.00    -0.265 N 
ATOM      3  N   UNL     1      34.784 -22.085 -17.929  0.00  0.00    -0.193 NA
ATOM      4  C   UNL     1      35.768 -21.486 -17.299  0.00  0.00    +0.293 C 
ATOM      5  C   UNL     1      35.742 -20.501 -19.187  0.00  0.00    +0.168 C 
ATOM      6  C   UNL     1      34.763 -21.454 -19.147  0.00  0.00    +0.141 C 
ATOM      7  H   UNL     1      36.917 -21.066 -15.743  0.00  0.00    +0.157 HD
ENDROOT
BRANCH   2   9
ATOM      8  C   UNL     1      36.604 -24.515 -13.665  0.00  0.00    +0.107 C 
ATOM      9  C   UNL     1      35.903 -22.722 -15.109  0.00  0.00    +0.087 C 
ATOM     10  C   UNL     1      36.917 -23.516 -14.587  0.00  0.00    +0.036 C 
ATOM     11  C   UNL     1      35.280 -24.712 -13.274  0.00  0.00    +0.022 C 
ATOM     12  C   UNL     1      34.582 -22.912 -14.725  0.00  0.00    +0.152 C 
ATOM     13  C   UNL     1      34.269 -23.911 -13.803  0.00  0.00    +0.040 C 
BRANCH   8  14
ATOM     14  S   UNL     1      37.869 -25.519 -13.001  0.00  0.00    +0.009 S 
ATOM     15  O   UNL     1      37.487 -25.881 -11.643  0.00  0.00    -0.169 OA
ATOM     16  O   UNL     1      38.196 -26.563 -13.963  0.00  0.00    -0.169 OA
BRANCH  14  17
ATOM     17  C   UNL     1      39.282 -24.443 -12.904  0.00  0.00    +0.156 C 
ATOM     18  C   UNL     1      40.456 -24.997 -13.679  0.00  0.00    +0.028 C 
ENDBRANCH  14  17
ENDBRANCH   8  14
BRANCH  12  19
ATOM     19  O   UNL     1      33.580 -22.140 -15.232  0.00  0.00    -0.470 OA
ATOM     20  C   UNL     1      32.328 -22.780 -15.472  0.00  0.00    +0.253 C 
ENDBRANCH  12  19
ENDBRANCH   2   9
BRANCH   5  21
ATOM     21  C   UNL     1      36.200 -19.542 -20.162  0.00  0.00    +0.036 C 
ATOM     22  C   UNL     1      35.794 -18.197 -22.128  0.00  0.00    +0.018 C 
ATOM     23  C   UNL     1      35.348 -19.123 -21.184  0.00  0.00    +0.005 C 
ATOM     24  C   UNL     1      37.498 -19.037 -20.085  0.00  0.00    +0.003 C 
ATOM     25  C   UNL     1      37.091 -17.691 -22.050  0.00  0.00    +0.001 C 
ATOM     26  C   UNL     1      37.943 -18.111 -21.029  0.00  0.00    +0.000 C 
BRANCH  22  28
ATOM     27  N   UNL     1      34.920 -16.432 -23.425  0.00  0.00    -0.244 NA
ATOM     28  C   UNL     1      34.910 -17.761 -23.187  0.00  0.00    +0.081 C 
ATOM     29  C   UNL     1      34.130 -18.672 -23.881  0.00  0.00    +0.019 C 
ATOM     30  C   UNL     1      33.304 -18.183 -24.887  0.00  0.00    +0.003 C 
ATOM     31  C   UNL     1      34.104 -15.994 -24.410  0.00  0.00    +0.099 C 
ATOM     32  C   UNL     1      33.284 -16.821 -25.163  0.00  0.00    +0.021 C 
ENDBRANCH  22  28
ENDBRANCH   5  21
TORSDOF 6
ENDMDL
MODEL 3
REMARK VINA RESULT:     -11.4      6.108     12.454
REMARK  Name = 4369497
REMARK  6 active torsions:
REMARK  status: ('A' for Active; 'I' for Inactive)
REMARK    1  A    between atoms: N_2  and  C_9
REMARK    2  A    between atoms: C_5  and  C_21
REMARK    3  A    between atoms: C_8  and  S_14
REMARK    4  A    between atoms: C_12  and  O_19
REMARK    5  A    between atoms: S_14  and  C_17
REMARK    6  A    between atoms: C_22  and  C_28
REMARK                            x       y       z     vdW  Elec       q    Type
REMARK                         _______ _______ _______ _____ _____    ______ ____
ROOT
ATOM      1  O   UNL     1      34.460 -13.817 -23.251  0.00  0.00    -0.424 OA
ATOM      2  N   UNL     1      34.129 -11.567 -23.576  0.00  0.00    -0.265 N 
ATOM      3  N   UNL     1      34.620 -12.506 -21.416  0.00  0.00    -0.193 NA
ATOM      4  C   UNL     1      34.403 -12.569 -22.709  0.00  0.00    +0.293 C 
ATOM      5  C   UNL     1      34.742 -14.604 -22.183  0.00  0.00    +0.168 C 
ATOM      6  C   UNL     1      34.839 -13.815 -21.072  0.00  0.00    +0.141 C 
ATOM      7  H   UNL     1      33.896 -11.859 -24.487  0.00  0.00    +0.157 HD
ENDROOT
BRANCH   2   9
ATOM      8  C   UNL     1      33.278  -8.235 -22.205  0.00  0.00    +0.107 C 
ATOM      9  C   UNL     1      34.125 -10.158 -23.379  0.00  0.00    +0.087 C 
ATOM     10  C   UNL     1      33.292  -9.615 -22.408  0.00  0.00    +0.036 C 
ATOM     11  C   UNL     1      34.097  -7.409 -22.976  0.00  0.00    +0.022 C 
ATOM     12  C   UNL     1      34.943  -9.342 -24.151  0.00  0.00    +0.152 C 
ATOM     13  C   UNL     1      34.929  -7.962 -23.948  0.00  0.00    +0.040 C 
BRANCH   8  14
ATOM     14  S   UNL     1      32.236  -7.541 -20.989  0.00  0.00    +0.009 S 
ATOM     15  O   UNL     1      31.350  -6.590 -21.647  0.00  0.00    -0.169 OA
ATOM     16  O   UNL     1      31.673  -8.614 -20.181  0.00  0.00    -0.169 OA
BRANCH  14  17
ATOM     17  C   UNL     1      33.337  -6.623 -19.935  0.00  0.00    +0.156 C 
ATOM     18  C   UNL     1      32.580  -5.859 -18.873  0.00  0.00    +0.028 C 
ENDBRANCH  14  17
ENDBRANCH   8  14
BRANCH  12  19
ATOM     19  O   UNL     1      35.763  -9.863 -25.106  0.00  0.00    -0.470 OA
ATOM     20  C   UNL     1      36.122  -9.007 -26.189  0.00  0.00    +0.253 C 
ENDBRANCH  12  19
ENDBRANCH   2   9
BRANCH   5  21
ATOM     21  C   UNL     1      34.867 -16.017 -22.452  0.00  0.00    +0.036 C 
ATOM     22  C   UNL     1      35.164 -18.280 -21.662  0.00  0.00    +0.018 C 
ATOM     23  C   UNL     1      35.041 -16.915 -21.400  0.00  0.00    +0.005 C 
ATOM     24  C   UNL     1      34.817 -16.482 -23.766  0.00  0.00    +0.003 C 
ATOM     25  C   UNL     1      35.113 -18.745 -22.975  0.00  0.00    +0.001 C 
ATOM     26  C   UNL     1      34.939 -17.847 -24.028  0.00  0.00    +0.000 C 
BRANCH  22  28
ATOM     27  N   UNL     1      34.209 -19.793 -20.126  0.00  0.00    -0.244 NA
ATOM     28  C   UNL     1      35.345 -19.213 -20.571  0.00  0.00    +0.081 C 
ATOM     29  C   UNL     1      36.604 -19.464 -20.052  0.00  0.00    +0.019 C 
ATOM     30  C   UNL     1      36.704 -20.373 -19.004  0.00  0.00    +0.003 C 
ATOM     31  C   UNL     1      34.346 -20.671 -19.106  0.00  0.00    +0.099 C 
ATOM     32  C   UNL     1      35.558 -20.991 -18.516  0.00  0.00    +0.021 C 
ENDBRANCH  22  28
ENDBRANCH   5  21
TORSDOF 6
ENDMDL
MODEL 4
REMARK VINA RESULT:     -11.3      1.339      1.716
REMARK  Name = 4369497
REMARK  6 active torsions:
REMARK  status: ('A' for Active; 'I' for Inactive)
REMARK    1  A    between atoms: N_2  and  C_9
REMARK    2  A    between atoms: C_5  and  C_21
REMARK    3  A    between atoms: C_8  and  S_14
REMARK    4  A    between atoms: C_12  and  O_19
REMARK    5  A    between atoms: S_14  and  C_17
REMARK    6  A    between atoms: C_22  and  C_28
REMARK                            x       y       z     vdW  Elec       q    Type
REMARK                         _______ _______ _______ _____ _____    ______ ____
ROOT
ATOM      1  O   UNL     1      33.830 -20.121 -19.619  0.00  0.00    -0.424 OA
ATOM      2  N   UNL     1      33.084 -21.457 -17.906  0.00  0.00    -0.265 N 
ATOM      3  N   UNL     1      35.419 -21.025 -18.289  0.00  0.00    -0.193 NA
ATOM      4  C   UNL     1      34.138 -20.906 -18.550  0.00  0.00    +0.293 C 
ATOM      5  C   UNL     1      35.045 -19.713 -20.062  0.00  0.00    +0.168 C 
ATOM      6  C   UNL     1      36.008 -20.258 -19.261  0.00  0.00    +0.141 C 
ATOM      7  H   UNL     1      32.212 -21.317 -18.341  0.00  0.00    +0.157 HD
ENDROOT
BRANCH   2   9
ATOM      8  C   UNL     1      34.187 -23.438 -14.978  0.00  0.00    +0.107 C 
ATOM      9  C   UNL     1      33.036 -22.206 -16.697  0.00  0.00    +0.087 C 
ATOM     10  C   UNL     1      34.220 -22.701 -16.162  0.00  0.00    +0.036 C 
ATOM     11  C   UNL     1      32.970 -23.674 -14.339  0.00  0.00    +0.022 C 
ATOM     12  C   UNL     1      31.820 -22.438 -16.066  0.00  0.00    +0.152 C 
ATOM     13  C   UNL     1      31.787 -23.175 -14.882  0.00  0.00    +0.040 C 
BRANCH   8  14
ATOM     14  S   UNL     1      35.667 -24.064 -14.298  0.00  0.00    +0.009 S 
ATOM     15  O   UNL     1      35.523 -24.079 -12.849  0.00  0.00    -0.169 OA
ATOM     16  O   UNL     1      36.030 -25.287 -15.001  0.00  0.00    -0.169 OA
BRANCH  14  17
ATOM     17  C   UNL     1      36.895 -22.845 -14.712  0.00  0.00    +0.156 C 
ATOM     18  C   UNL     1      38.291 -23.420 -14.651  0.00  0.00    +0.028 C 
ENDBRANCH  14  17
ENDBRANCH   8  14
BRANCH  12  19
ATOM     19  O   UNL     1      30.653 -21.959 -16.581  0.00  0.00    -0.470 OA
ATOM     20  C   UNL     1      29.444 -22.391 -15.958  0.00  0.00    +0.253 C 
ENDBRANCH  12  19
ENDBRANCH   2   9
BRANCH   5  21
ATOM     21  C   UNL     1      35.040 -18.845 -21.215  0.00  0.00    +0.036 C 
ATOM     22  C   UNL     1      34.915 -16.628 -22.166  0.00  0.00    +0.018 C 
ATOM     23  C   UNL     1      34.923 -17.465 -21.050  0.00  0.00    +0.005 C 
ATOM     24  C   UNL     1      35.149 -19.388 -22.495  0.00  0.00    +0.003 C 
ATOM     25  C   UNL     1      35.025 -17.170 -23.446  0.00  0.00    +0.001 C 
ATOM     26  C   UNL     1      35.142 -18.551 -23.611  0.00  0.00    +0.000 C 
BRANCH  22  28
ATOM     27  N   UNL     1      34.669 -14.496 -23.144  0.00  0.00    -0.244 NA
ATOM     28  C   UNL     1      34.794 -15.196 -21.996  0.00  0.00    +0.081 C 
ATOM     29  C   UNL     1      34.809 -14.627 -20.733  0.00  0.00    +0.019 C 
ATOM     30  C   UNL     1      34.687 -13.245 -20.644  0.00  0.00    +0.003 C 
ATOM     31  C   UNL     1      34.553 -13.155 -23.017  0.00  0.00    +0.099 C 
ATOM     32  C   UNL     1      34.557 -12.488 -21.803  0.00  0.00    +0.021 C 
ENDBRANCH  22  28
ENDBRANCH   5  21
TORSDOF 6
ENDMDL
MODEL 5
REMARK VINA RESULT:     -11.2      6.064     12.200
REMARK  Name = 4369497
REMARK  6 active torsions:
REMARK  status: ('A' for Active; 'I' for Inactive)
REMARK    1  A    between atoms: N_2  and  C_9
REMARK    2  A    between atoms: C_5  and  C_21
REMARK    3  A    between atoms: C_8  and  S_14
REMARK    4  A    between atoms: C_12  and  O_19
REMARK    5  A    between atoms: S_14  and  C_17
REMARK    6  A    between atoms: C_22  and  C_28
REMARK                            x       y       z     vdW  Elec       q    Type
REMARK                         _______ _______ _______ _____ _____    ______ ____
ROOT
ATOM      1  O   UNL     1      34.342 -13.845 -23.176  0.00  0.00    -0.424 OA
ATOM      2  N   UNL     1      33.953 -11.605 -23.508  0.00  0.00    -0.265 N 
ATOM      3  N   UNL     1      34.699 -12.491 -21.399  0.00  0.00    -0.193 NA
ATOM      4  C   UNL     1      34.335 -12.586 -22.658  0.00  0.00    +0.293 C 
ATOM      5  C   UNL     1      34.753 -14.606 -22.130  0.00  0.00    +0.168 C 
ATOM      6  C   UNL     1      34.970 -13.791 -21.055  0.00  0.00    +0.141 C 
ATOM      7  H   UNL     1      33.620 -11.919 -24.379  0.00  0.00    +0.157 HD
ENDROOT
BRANCH   2   9
ATOM      8  C   UNL     1      33.324  -8.257 -22.058  0.00  0.00    +0.107 C 
ATOM      9  C   UNL     1      33.958 -10.192 -23.342  0.00  0.00    +0.087 C 
ATOM     10  C   UNL     1      33.327  -9.641 -22.232  0.00  0.00    +0.036 C 
ATOM     11  C   UNL     1      33.951  -7.435 -22.995  0.00  0.00    +0.022 C 
ATOM     12  C   UNL     1      34.584  -9.380 -24.280  0.00  0.00    +0.152 C 
ATOM     13  C   UNL     1      34.581  -7.996 -24.105  0.00  0.00    +0.040 C 
BRANCH   8  14
ATOM     14  S   UNL     1      32.535  -7.553 -20.669  0.00  0.00    +0.009 S 
ATOM     15  O   UNL     1      33.568  -7.026 -19.787  0.00  0.00    -0.169 OA
ATOM     16  O   UNL     1      31.461  -6.683 -21.126  0.00  0.00    -0.169 OA
BRANCH  14  17
ATOM     17  C   UNL     1      31.770  -8.934 -19.849  0.00  0.00    +0.156 C 
ATOM     18  C   UNL     1      32.430  -9.226 -18.521  0.00  0.00    +0.028 C 
ENDBRANCH  14  17
ENDBRANCH   8  14
BRANCH  12  19
ATOM     19  O   UNL     1      35.204  -9.909 -25.372  0.00  0.00    -0.470 OA
ATOM     20  C   UNL     1      36.240  -9.132 -25.968  0.00  0.00    +0.253 C 
ENDBRANCH  12  19
ENDBRANCH   2   9
BRANCH   5  21
ATOM     21  C   UNL     1      34.860 -16.023 -22.382  0.00  0.00    +0.036 C 
ATOM     22  C   UNL     1      35.157 -18.278 -21.567  0.00  0.00    +0.018 C 
ATOM     23  C   UNL     1      35.052 -16.908 -21.322  0.00  0.00    +0.005 C 
ATOM     24  C   UNL     1      34.775 -16.506 -23.688  0.00  0.00    +0.003 C 
ATOM     25  C   UNL     1      35.072 -18.761 -22.872  0.00  0.00    +0.001 C 
ATOM     26  C   UNL     1      34.880 -17.875 -23.933  0.00  0.00    +0.000 C 
BRANCH  22  28
ATOM     27  N   UNL     1      36.606 -19.208 -19.955  0.00  0.00    -0.244 NA
ATOM     28  C   UNL     1      35.356 -19.196 -20.467  0.00  0.00    +0.081 C 
ATOM     29  C   UNL     1      34.317 -19.986 -20.004  0.00  0.00    +0.019 C 
ATOM     30  C   UNL     1      34.579 -20.846 -18.944  0.00  0.00    +0.003 C 
ATOM     31  C   UNL     1      36.823 -20.057 -18.926  0.00  0.00    +0.099 C 
ATOM     32  C   UNL     1      35.854 -20.889 -18.389  0.00  0.00    +0.021 C 
ENDBRANCH  22  28
ENDBRANCH   5  21
TORSDOF 6
ENDMDL
MODEL 6
REMARK VINA RESULT:     -11.2      2.250      4.392
REMARK  Name = 4369497
REMARK  6 active torsions:
REMARK  status: ('A' for Active; 'I' for Inactive)
REMARK    1  A    between atoms: N_2  and  C_9
REMARK    2  A    between atoms: C_5  and  C_21
REMARK    3  A    between atoms: C_8  and  S_14
REMARK    4  A    between atoms: C_12  and  O_19
REMARK    5  A    between atoms: S_14  and  C_17
REMARK    6  A    between atoms: C_22  and  C_28
REMARK                            x       y       z     vdW  Elec       q    Type
REMARK                         _______ _______ _______ _____ _____    ______ ____
ROOT
ATOM      1  O   UNL     1      35.886 -20.525 -18.166  0.00  0.00    -0.424 OA
ATOM      2  N   UNL     1      35.565 -21.762 -16.257  0.00  0.00    -0.265 N 
ATOM      3  N   UNL     1      33.928 -21.647 -18.017  0.00  0.00    -0.193 NA
ATOM      4  C   UNL     1      35.077 -21.354 -17.451  0.00  0.00    +0.293 C 
ATOM      5  C   UNL     1      35.163 -20.281 -19.288  0.00  0.00    +0.168 C 
ATOM      6  C   UNL     1      33.979 -20.957 -19.201  0.00  0.00    +0.141 C 
ATOM      7  H   UNL     1      36.407 -21.332 -15.985  0.00  0.00    +0.157 HD
ENDROOT
BRANCH   2   9
ATOM      8  C   UNL     1      33.182 -23.633 -14.129  0.00  0.00    +0.107 C 
ATOM      9  C   UNL     1      35.054 -22.716 -15.333  0.00  0.00    +0.087 C 
ATOM     10  C   UNL     1      33.696 -22.704 -15.034  0.00  0.00    +0.036 C 
ATOM     11  C   UNL     1      34.030 -24.566 -13.531  0.00  0.00    +0.022 C 
ATOM     12  C   UNL     1      35.904 -23.641 -14.741  0.00  0.00    +0.152 C 
ATOM     13  C   UNL     1      35.391 -24.570 -13.836  0.00  0.00    +0.040 C 
BRANCH   8  14
ATOM     14  S   UNL     1      31.480 -23.629 -13.744  0.00  0.00    +0.009 S 
ATOM     15  O   UNL     1      30.930 -24.921 -14.129  0.00  0.00    -0.169 OA
ATOM     16  O   UNL     1      31.304 -23.145 -12.382  0.00  0.00    -0.169 OA
BRANCH  14  17
ATOM     17  C   UNL     1      30.786 -22.397 -14.825  0.00  0.00    +0.156 C 
ATOM     18  C   UNL     1      29.302 -22.607 -15.025  0.00  0.00    +0.028 C 
ENDBRANCH  14  17
ENDBRANCH   8  14
BRANCH  12  19
ATOM     19  O   UNL     1      37.237 -23.661 -15.026  0.00  0.00    -0.470 OA
ATOM     20  C   UNL     1      38.050 -24.548 -14.261  0.00  0.00    +0.253 C 
ENDBRANCH  12  19
ENDBRANCH   2   9
BRANCH   5  21
ATOM     21  C   UNL     1      35.778 -19.409 -20.260  0.00  0.00    +0.036 C 
ATOM     22  C   UNL     1      35.612 -18.033 -22.239  0.00  0.00    +0.018 C 
ATOM     23  C   UNL     1      35.015 -18.873 -21.298  0.00  0.00    +0.005 C 
ATOM     24  C   UNL     1      37.136 -19.107 -20.163  0.00  0.00    +0.003 C 
ATOM     25  C   UNL     1      36.969 -17.729 -22.141  0.00  0.00    +0.001 C 
ATOM     26  C   UNL     1      37.731 -18.266 -21.103  0.00  0.00    +0.000 C 
BRANCH  22  28
ATOM     27  N   UNL     1      34.944 -16.141 -23.478  0.00  0.00    -0.244 NA
ATOM     28  C   UNL     1      34.822 -17.476 -23.315  0.00  0.00    +0.081 C 
ATOM     29  C   UNL     1      34.015 -18.286 -24.097  0.00  0.00    +0.019 C 
ATOM     30  C   UNL     1      33.283 -17.684 -25.114  0.00  0.00    +0.003 C 
ATOM     31  C   UNL     1      34.217 -15.591 -24.477  0.00  0.00    +0.099 C 
ATOM     32  C   UNL     1      33.380 -16.311 -25.314  0.00  0.00    +0.021 C 
ENDBRANCH  22  28
ENDBRANCH   5  21
TORSDOF 6
ENDMDL
MODEL 7
REMARK VINA RESULT:     -11.1      2.723      5.119
REMARK  Name = 4369497
REMARK  6 active torsions:
REMARK  status: ('A' for Active; 'I' for Inactive)
REMARK    1  A    between atoms: N_2  and  C_9
REMARK    2  A    between atoms: C_5  and  C_21
REMARK    3  A    between atoms: C_8  and  S_14
REMARK    4  A    between atoms: C_12  and  O_19
REMARK    5  A    between atoms: S_14  and  C_17
REMARK    6  A    between atoms: C_22  and  C_28
REMARK                            x       y       z     vdW  Elec       q    Type
REMARK                         _______ _______ _______ _____ _____    ______ ____
ROOT
ATOM      1  O   UNL     1      34.742 -20.859 -17.899  0.00  0.00    -0.424 OA
ATOM      2  N   UNL     1      33.886 -22.041 -16.125  0.00  0.00    -0.265 N 
ATOM      3  N   UNL     1      32.615 -21.596 -18.119  0.00  0.00    -0.193 NA
ATOM      4  C   UNL     1      33.687 -21.532 -17.362  0.00  0.00    +0.293 C 
ATOM      5  C   UNL     1      34.274 -20.468 -19.111  0.00  0.00    +0.168 C 
ATOM      6  C   UNL     1      32.989 -20.911 -19.247  0.00  0.00    +0.141 C 
ATOM      7  H   UNL     1      34.735 -21.780 -15.701  0.00  0.00    +0.157 HD
ENDROOT
BRANCH   2   9
ATOM      8  C   UNL     1      30.876 -23.762 -14.827  0.00  0.00    +0.107 C 
ATOM      9  C   UNL     1      33.062 -22.895 -15.339  0.00  0.00    +0.087 C 
ATOM     10  C   UNL     1      31.695 -22.930 -15.590  0.00  0.00    +0.036 C 
ATOM     11  C   UNL     1      31.430 -24.552 -13.819  0.00  0.00    +0.022 C 
ATOM     12  C   UNL     1      33.621 -23.678 -14.337  0.00  0.00    +0.152 C 
ATOM     13  C   UNL     1      32.802 -24.510 -13.574  0.00  0.00    +0.040 C 
BRANCH   8  14
ATOM     14  S   UNL     1      29.158 -23.815 -15.132  0.00  0.00    +0.009 S 
ATOM     15  O   UNL     1      28.962 -24.180 -16.528  0.00  0.00    -0.169 OA
ATOM     16  O   UNL     1      28.516 -24.594 -14.083  0.00  0.00    -0.169 OA
BRANCH  14  17
ATOM     17  C   UNL     1      28.621 -22.131 -14.928  0.00  0.00    +0.156 C 
ATOM     18  C   UNL     1      27.558 -21.761 -15.937  0.00  0.00    +0.028 C 
ENDBRANCH  14  17
ENDBRANCH   8  14
BRANCH  12  19
ATOM     19  O   UNL     1      34.960 -23.650 -14.082  0.00  0.00    -0.470 OA
ATOM     20  C   UNL     1      35.736 -24.740 -14.577  0.00  0.00    +0.253 C 
ENDBRANCH  12  19
ENDBRANCH   2   9
BRANCH   5  21
ATOM     21  C   UNL     1      35.191 -19.714 -19.931  0.00  0.00    +0.036 C 
ATOM     22  C   UNL     1      35.600 -18.229 -21.793  0.00  0.00    +0.018 C 
ATOM     23  C   UNL     1      34.712 -18.956 -20.999  0.00  0.00    +0.005 C 
ATOM     24  C   UNL     1      36.558 -19.746 -19.656  0.00  0.00    +0.003 C 
ATOM     25  C   UNL     1      36.967 -18.261 -21.518  0.00  0.00    +0.001 C 
ATOM     26  C   UNL     1      37.446 -19.019 -20.449  0.00  0.00    +0.000 C 
BRANCH  22  28
ATOM     27  N   UNL     1      35.394 -16.126 -22.838  0.00  0.00    -0.244 NA
ATOM     28  C   UNL     1      35.104 -17.443 -22.901  0.00  0.00    +0.081 C 
ATOM     29  C   UNL     1      34.390 -18.036 -23.929  0.00  0.00    +0.019 C 
ATOM     30  C   UNL     1      33.943 -17.220 -24.962  0.00  0.00    +0.003 C 
ATOM     31  C   UNL     1      34.943 -15.364 -23.860  0.00  0.00    +0.099 C 
ATOM     32  C   UNL     1      34.220 -15.858 -24.935  0.00  0.00    +0.021 C 
ENDBRANCH  22  28
ENDBRANCH   5  21
TORSDOF 6
ENDMDL
MODEL 8
REMARK VINA RESULT:     -10.8      5.969     10.992
REMARK  Name = 4369497
REMARK  6 active torsions:
REMARK  status: ('A' for Active; 'I' for Inactive)
REMARK    1  A    between atoms: N_2  and  C_9
REMARK    2  A    between atoms: C_5  and  C_21
REMARK    3  A    between atoms: C_8  and  S_14
REMARK    4  A    between atoms: C_12  and  O_19
REMARK    5  A    between atoms: S_14  and  C_17
REMARK    6  A    between atoms: C_22  and  C_28
REMARK                            x       y       z     vdW  Elec       q    Type
REMARK                         _______ _______ _______ _____ _____    ______ ____
ROOT
ATOM      1  O   UNL     1      33.523 -10.409 -21.948  0.00  0.00    -0.424 OA
ATOM      2  N   UNL     1      34.328 -12.431 -22.683  0.00  0.00    -0.265 N 
ATOM      3  N   UNL     1      32.212 -12.211 -21.560  0.00  0.00    -0.193 NA
ATOM      4  C   UNL     1      33.334 -11.753 -22.065  0.00  0.00    +0.293 C 
ATOM      5  C   UNL     1      32.401  -9.996 -21.305  0.00  0.00    +0.168 C 
ATOM      6  C   UNL     1      31.607 -11.082 -21.068  0.00  0.00    +0.141 C 
ATOM      7  H   UNL     1      35.129 -11.897 -22.889  0.00  0.00    +0.157 HD
ENDROOT
BRANCH   2   9
ATOM      8  C   UNL     1      35.047 -16.062 -22.606  0.00  0.00    +0.107 C 
ATOM      9  C   UNL     1      34.398 -13.794 -23.085  0.00  0.00    +0.087 C 
ATOM     10  C   UNL     1      34.971 -14.723 -22.224  0.00  0.00    +0.036 C 
ATOM     11  C   UNL     1      34.549 -16.462 -23.846  0.00  0.00    +0.022 C 
ATOM     12  C   UNL     1      33.900 -14.185 -24.322  0.00  0.00    +0.152 C 
ATOM     13  C   UNL     1      33.975 -15.524 -24.704  0.00  0.00    +0.040 C 
BRANCH   8  14
ATOM     14  S   UNL     1      35.765 -17.237 -21.533  0.00  0.00    +0.009 S 
ATOM     15  O   UNL     1      37.087 -17.566 -22.049  0.00  0.00    -0.169 OA
ATOM     16  O   UNL     1      35.619 -16.775 -20.160  0.00  0.00    -0.169 OA
BRANCH  14  17
ATOM     17  C   UNL     1      34.737 -18.679 -21.706  0.00  0.00    +0.156 C 
ATOM     18  C   UNL     1      34.503 -19.356 -20.374  0.00  0.00    +0.028 C 
ENDBRANCH  14  17
ENDBRANCH   8  14
BRANCH  12  19
ATOM     19  O   UNL     1      33.337 -13.284 -25.175  0.00  0.00    -0.470 OA
ATOM     20  C   UNL     1      34.204 -12.650 -26.112  0.00  0.00    +0.253 C 
ENDBRANCH  12  19
ENDBRANCH   2   9
BRANCH   5  21
ATOM     21  C   UNL     1      32.313  -8.581 -21.033  0.00  0.00    +0.036 C 
ATOM     22  C   UNL     1      32.197  -6.301 -21.824  0.00  0.00    +0.018 C 
ATOM     23  C   UNL     1      32.280  -7.669 -22.088  0.00  0.00    +0.005 C 
ATOM     24  C   UNL     1      32.264  -8.127 -19.715  0.00  0.00    +0.003 C 
ATOM     25  C   UNL     1      32.147  -5.847 -20.506  0.00  0.00    +0.001 C 
ATOM     26  C   UNL     1      32.179  -6.760 -19.452  0.00  0.00    +0.000 C 
BRANCH  22  28
ATOM     27  N   UNL     1      31.765  -4.109 -22.577  0.00  0.00    -0.244 NA
ATOM     28  C   UNL     1      32.162  -5.354 -22.917  0.00  0.00    +0.081 C 
ATOM     29  C   UNL     1      32.519  -5.736 -24.199  0.00  0.00    +0.019 C 
ATOM     30  C   UNL     1      32.463  -4.774 -25.202  0.00  0.00    +0.003 C 
ATOM     31  C   UNL     1      31.722  -3.201 -23.578  0.00  0.00    +0.099 C 
ATOM     32  C   UNL     1      32.057  -3.480 -24.893  0.00  0.00    +0.021 C 
ENDBRANCH  22  28
ENDBRANCH   5  21
TORSDOF 6
ENDMDL
MODEL 9
REMARK VINA RESULT:     -10.6      5.886     11.952
REMARK  Name = 4369497
REMARK  6 active torsions:
REMARK  status: ('A' for Active; 'I' for Inactive)
REMARK    1  A    between atoms: N_2  and  C_9
REMARK    2  A    between atoms: C_5  and  C_21
REMARK    3  A    between atoms: C_8  and  S_14
REMARK    4  A    between atoms: C_12  and  O_19
REMARK    5  A    between atoms: S_14  and  C_17
REMARK    6  A    between atoms: C_22  and  C_28
REMARK                            x       y       z     vdW  Elec       q    Type
REMARK                         _______ _______ _______ _____ _____    ______ ____
ROOT
ATOM      1  O   UNL     1      34.092 -14.463 -22.329  0.00  0.00    -0.424 OA
ATOM      2  N   UNL     1      33.371 -12.298 -22.591  0.00  0.00    -0.265 N 
ATOM      3  N   UNL     1      34.553 -13.041 -20.632  0.00  0.00    -0.193 NA
ATOM      4  C   UNL     1      34.007 -13.205 -21.815  0.00  0.00    +0.293 C 
ATOM      5  C   UNL     1      34.760 -15.145 -21.364  0.00  0.00    +0.168 C 
ATOM      6  C   UNL     1      35.040 -14.289 -20.337  0.00  0.00    +0.141 C 
ATOM      7  H   UNL     1      32.946 -12.668 -23.398  0.00  0.00    +0.157 HD
ENDROOT
BRANCH   2   9
ATOM      8  C   UNL     1      33.981  -8.660 -22.910  0.00  0.00    +0.107 C 
ATOM      9  C   UNL     1      33.222 -10.892 -22.426  0.00  0.00    +0.087 C 
ATOM     10  C   UNL     1      34.116 -10.040 -23.064  0.00  0.00    +0.036 C 
ATOM     11  C   UNL     1      32.954  -8.144 -22.120  0.00  0.00    +0.022 C 
ATOM     12  C   UNL     1      32.196 -10.386 -21.638  0.00  0.00    +0.152 C 
ATOM     13  C   UNL     1      32.062  -9.006 -21.484  0.00  0.00    +0.040 C 
BRANCH   8  14
ATOM     14  S   UNL     1      35.098  -7.579 -23.706  0.00  0.00    +0.009 S 
ATOM     15  O   UNL     1      34.320  -6.591 -24.439  0.00  0.00    -0.169 OA
ATOM     16  O   UNL     1      36.099  -7.143 -22.743  0.00  0.00    -0.169 OA
BRANCH  14  17
ATOM     17  C   UNL     1      35.935  -8.606 -24.894  0.00  0.00    +0.156 C 
ATOM     18  C   UNL     1      36.101  -7.898 -26.219  0.00  0.00    +0.028 C 
ENDBRANCH  14  17
ENDBRANCH   8  14
BRANCH  12  19
ATOM     19  O   UNL     1      31.315 -11.212 -21.007  0.00  0.00    -0.470 OA
ATOM     20  C   UNL     1      30.737 -10.737 -19.793  0.00  0.00    +0.253 C 
ENDBRANCH  12  19
ENDBRANCH   2   9
BRANCH   5  21
ATOM     21  C   UNL     1      35.006 -16.542 -21.632  0.00  0.00    +0.036 C 
ATOM     22  C   UNL     1      35.302 -18.805 -20.839  0.00  0.00    +0.018 C 
ATOM     23  C   UNL     1      35.062 -17.455 -20.579  0.00  0.00    +0.005 C 
ATOM     24  C   UNL     1      35.191 -16.977 -22.944  0.00  0.00    +0.003 C 
ATOM     25  C   UNL     1      35.487 -19.240 -22.151  0.00  0.00    +0.001 C 
ATOM     26  C   UNL     1      35.430 -18.327 -23.204  0.00  0.00    +0.000 C 
BRANCH  22  28
ATOM     27  N   UNL     1      36.572 -19.872 -19.163  0.00  0.00    -0.244 NA
ATOM     28  C   UNL     1      35.360 -19.752 -19.747  0.00  0.00    +0.081 C 
ATOM     29  C   UNL     1      34.236 -20.463 -19.363  0.00  0.00    +0.019 C 
ATOM     30  C   UNL     1      34.364 -21.357 -18.305  0.00  0.00    +0.003 C 
ATOM     31  C   UNL     1      36.658 -20.751 -18.139  0.00  0.00    +0.099 C 
ATOM     32  C   UNL     1      35.595 -21.510 -17.677  0.00  0.00    +0.021 C 
ENDBRANCH  22  28
ENDBRANCH   5  21
TORSDOF 6
ENDMDL
