MODEL 1
REMARK VINA RESULT:     -12.8      0.000      0.000
REMARK  Name = 11987860
REMARK  5 active torsions:
REMARK  status: ('A' for Active; 'I' for Inactive)
REMARK    1  A    between atoms: N_2  and  C_19
REMARK    2  A    between atoms: C_3  and  C_11
REMARK    3  A    between atoms: N_9  and  O_17
REMARK    4  A    between atoms: C_19  and  C_20
REMARK    5  A    between atoms: C_23  and  C_26
REMARK                            x       y       z     vdW  Elec       q    Type
REMARK                         _______ _______ _______ _____ _____    ______ ____
ROOT
ATOM      1  O   UNL     1      34.074 -22.362 -14.429  0.00  0.00    -0.272 OA
ATOM      2  N   UNL     1      34.679 -22.841 -16.625  0.00  0.00    -0.298 N 
ATOM      3  C   UNL     1      34.869 -22.802 -15.254  0.00  0.00    +0.253 C 
ATOM      4  H   UNL     1      35.394 -23.220 -17.186  0.00  0.00    +0.150 HD
ENDROOT
BRANCH   3  11
ATOM      5  O   UNL     1      35.772 -24.185 -12.730  0.00  0.00    -0.327 OA
ATOM      6  O   UNL     1      36.021 -24.812 -14.953  0.00  0.00    -0.320 OA
ATOM      7  O   UNL     1      40.663 -23.999 -13.479  0.00  0.00    -0.250 OA
ATOM      8  N   UNL     1      38.452 -24.702 -13.389  0.00  0.00    -0.255 N 
ATOM      9  N   UNL     1      40.188 -26.200 -13.903  0.00  0.00    -0.181 N 
ATOM     10  C   UNL     1      36.501 -23.137 -13.384  0.00  0.00    +0.174 C 
ATOM     11  C   UNL     1      36.181 -23.395 -14.847  0.00  0.00    +0.222 C 
ATOM     12  C   UNL     1      36.049 -25.288 -13.599  0.00  0.00    +0.256 C 
ATOM     13  C   UNL     1      37.981 -23.351 -13.049  0.00  0.00    +0.128 C 
ATOM     14  C   UNL     1      37.459 -25.792 -13.292  0.00  0.00    +0.156 C 
ATOM     15  C   UNL     1      39.831 -24.906 -13.582  0.00  0.00    +0.326 C 
ATOM     16  H   UNL     1      39.526 -26.923 -13.985  0.00  0.00    +0.184 HD
BRANCH   9  17
ATOM     17  O   UNL     1      41.561 -26.411 -14.102  0.00  0.00    -0.294 OA
ATOM     18  H   UNL     1      41.738 -27.364 -14.154  0.00  0.00    +0.241 HD
ENDBRANCH   9  17
ENDBRANCH   3  11
BRANCH   2  19
ATOM     19  C   UNL     1      33.483 -22.350 -17.270  0.00  0.00    +0.116 C 
BRANCH  19  20
ATOM     20  C   UNL     1      33.829 -21.320 -18.309  0.00  0.00    -0.003 C 
ATOM     21  C   UNL     1      35.162 -21.079 -18.618  0.00  0.00    -0.003 C 
ATOM     22  C   UNL     1      32.813 -20.620 -18.946  0.00  0.00    -0.003 C 
ATOM     23  C   UNL     1      34.470 -19.415 -20.226  0.00  0.00    -0.000 C 
ATOM     24  C   UNL     1      35.483 -20.122 -19.581  0.00  0.00    -0.000 C 
ATOM     25  C   UNL     1      33.134 -19.664 -19.909  0.00  0.00    -0.000 C 
BRANCH  23  26
ATOM     26  C   UNL     1      34.803 -18.423 -21.227  0.00  0.00    -0.000 C 
ATOM     27  C   UNL     1      34.577 -18.691 -22.576  0.00  0.00    -0.000 C 
ATOM     28  C   UNL     1      35.348 -17.199 -20.840  0.00  0.00    -0.000 C 
ATOM     29  C   UNL     1      34.896 -17.735 -23.540  0.00  0.00    +0.000 C 
ATOM     30  C   UNL     1      35.667 -16.243 -21.803  0.00  0.00    +0.000 C 
ATOM     31  C   UNL     1      35.442 -16.510 -23.154  0.00  0.00    +0.000 C 
ENDBRANCH  23  26
ENDBRANCH  19  20
ENDBRANCH   2  19
TORSDOF 5
ENDMDL
MODEL 2
REMARK VINA RESULT:     -12.0      1.803      2.255
REMARK  Name = 11987860
REMARK  5 active torsions:
REMARK  status: ('A' for Active; 'I' for Inactive)
REMARK    1  A    between atoms: N_2  and  C_19
REMARK    2  A    between atoms: C_3  and  C_11
REMARK    3  A    between atoms: N_9  and  O_17
REMARK    4  A    between atoms: C_19  and  C_20
REMARK    5  A    between atoms: C_23  and  C_26
REMARK                            x       y       z     vdW  Elec       q    Type
REMARK                         _______ _______ _______ _____ _____    ______ ____
ROOT
ATOM      1  O   UNL     1      32.742 -22.936 -15.306  0.00  0.00    -0.272 OA
ATOM      2  N   UNL     1      34.465 -22.541 -16.821  0.00  0.00    -0.298 N 
ATOM      3  C   UNL     1      33.928 -22.745 -15.562  0.00  0.00    +0.253 C 
ATOM      4  H   UNL     1      35.436 -22.399 -16.899  0.00  0.00    +0.150 HD
ENDROOT
BRANCH   3  11
ATOM      5  O   UNL     1      34.897 -24.875 -13.659  0.00  0.00    -0.327 OA
ATOM      6  O   UNL     1      36.096 -23.438 -15.034  0.00  0.00    -0.320 OA
ATOM      7  O   UNL     1      37.371 -21.984 -10.491  0.00  0.00    -0.250 OA
ATOM      8  N   UNL     1      36.828 -23.416 -12.236  0.00  0.00    -0.255 N 
ATOM      9  N   UNL     1      39.066 -22.986 -11.663  0.00  0.00    -0.181 N 
ATOM     10  C   UNL     1      34.555 -23.538 -13.270  0.00  0.00    +0.174 C 
ATOM     11  C   UNL     1      34.973 -22.737 -14.492  0.00  0.00    +0.222 C 
ATOM     12  C   UNL     1      36.167 -24.658 -14.281  0.00  0.00    +0.256 C 
ATOM     13  C   UNL     1      35.387 -23.211 -12.027  0.00  0.00    +0.128 C 
ATOM     14  C   UNL     1      37.213 -24.486 -13.180  0.00  0.00    +0.156 C 
ATOM     15  C   UNL     1      37.735 -22.742 -11.397  0.00  0.00    +0.326 C 
ATOM     16  H   UNL     1      39.357 -23.589 -12.384  0.00  0.00    +0.184 HD
BRANCH   9  17
ATOM     17  O   UNL     1      39.976 -22.313 -10.834  0.00  0.00    -0.294 OA
ATOM     18  H   UNL     1      40.120 -21.414 -11.173  0.00  0.00    +0.241 HD
ENDBRANCH   9  17
ENDBRANCH   3  11
BRANCH   2  19
ATOM     19  C   UNL     1      33.668 -22.527 -18.027  0.00  0.00    +0.116 C 
BRANCH  19  20
ATOM     20  C   UNL     1      33.995 -21.319 -18.860  0.00  0.00    -0.003 C 
ATOM     21  C   UNL     1      35.321 -20.930 -19.013  0.00  0.00    -0.003 C 
ATOM     22  C   UNL     1      32.969 -20.607 -19.468  0.00  0.00    -0.003 C 
ATOM     23  C   UNL     1      34.601 -19.088 -20.400  0.00  0.00    -0.000 C 
ATOM     24  C   UNL     1      35.623 -19.809 -19.786  0.00  0.00    -0.000 C 
ATOM     25  C   UNL     1      33.273 -19.487 -20.241  0.00  0.00    -0.000 C 
BRANCH  23  26
ATOM     26  C   UNL     1      34.915 -17.926 -21.203  0.00  0.00    -0.000 C 
ATOM     27  C   UNL     1      35.209 -16.710 -20.585  0.00  0.00    -0.000 C 
ATOM     28  C   UNL     1      34.926 -18.022 -22.594  0.00  0.00    -0.000 C 
ATOM     29  C   UNL     1      35.513 -15.590 -21.359  0.00  0.00    +0.000 C 
ATOM     30  C   UNL     1      35.230 -16.903 -23.368  0.00  0.00    +0.000 C 
ATOM     31  C   UNL     1      35.523 -15.686 -22.751  0.00  0.00    +0.000 C 
ENDBRANCH  23  26
ENDBRANCH  19  20
ENDBRANCH   2  19
TORSDOF 5
ENDMDL
MODEL 3
REMARK VINA RESULT:     -11.3      8.346     12.494
REMARK  Name = 11987860
REMARK  5 active torsions:
REMARK  status: ('A' for Active; 'I' for Inactive)
REMARK    1  A    between atoms: N_2  and  C_19
REMARK    2  A    between atoms: C_3  and  C_11
REMARK    3  A    between atoms: N_9  and  O_17
REMARK    4  A    between atoms: C_19  and  C_20
REMARK    5  A    between atoms: C_23  and  C_26
REMARK                            x       y       z     vdW  Elec       q    Type
REMARK                         _______ _______ _______ _____ _____    ______ ____
ROOT
ATOM      1  O   UNL     1      33.026 -13.513 -24.051  0.00  0.00    -0.272 OA
ATOM      2  N   UNL     1      34.941 -13.749 -22.748  0.00  0.00    -0.298 N 
ATOM      3  C   UNL     1      33.760 -13.142 -23.139  0.00  0.00    +0.253 C 
ATOM      4  H   UNL     1      35.445 -13.356 -21.999  0.00  0.00    +0.150 HD
ENDROOT
BRANCH   3  11
ATOM      5  O   UNL     1      31.702 -12.697 -20.979  0.00  0.00    -0.327 OA
ATOM      6  O   UNL     1      33.976 -12.222 -21.002  0.00  0.00    -0.320 OA
ATOM      7  O   UNL     1      31.889  -7.754 -20.771  0.00  0.00    -0.250 OA
ATOM      8  N   UNL     1      32.228 -10.012 -20.350  0.00  0.00    -0.255 N 
ATOM      9  N   UNL     1      33.005  -8.365 -18.865  0.00  0.00    -0.181 N 
ATOM     10  C   UNL     1      31.934 -11.799 -22.074  0.00  0.00    +0.174 C 
ATOM     11  C   UNL     1      33.430 -11.952 -22.296  0.00  0.00    +0.222 C 
ATOM     12  C   UNL     1      32.834 -12.411 -20.153  0.00  0.00    +0.256 C 
ATOM     13  C   UNL     1      31.540 -10.400 -21.591  0.00  0.00    +0.128 C 
ATOM     14  C   UNL     1      32.563 -11.102 -19.411  0.00  0.00    +0.156 C 
ATOM     15  C   UNL     1      32.342  -8.643 -20.042  0.00  0.00    +0.326 C 
ATOM     16  H   UNL     1      33.366  -9.072 -18.284  0.00  0.00    +0.184 HD
BRANCH   9  17
ATOM     17  O   UNL     1      33.127  -7.002 -18.554  0.00  0.00    -0.294 OA
ATOM     18  H   UNL     1      32.362  -6.721 -18.026  0.00  0.00    +0.241 HD
ENDBRANCH   9  17
ENDBRANCH   3  11
BRANCH   2  19
ATOM     19  C   UNL     1      35.471 -14.932 -23.388  0.00  0.00    +0.116 C 
BRANCH  19  20
ATOM     20  C   UNL     1      35.315 -16.130 -22.494  0.00  0.00    -0.003 C 
ATOM     21  C   UNL     1      35.090 -17.381 -23.056  0.00  0.00    -0.003 C 
ATOM     22  C   UNL     1      35.398 -15.973 -21.116  0.00  0.00    -0.003 C 
ATOM     23  C   UNL     1      35.028 -18.344 -20.842  0.00  0.00    -0.000 C 
ATOM     24  C   UNL     1      34.946 -18.492 -22.225  0.00  0.00    -0.000 C 
ATOM     25  C   UNL     1      35.254 -17.085 -20.287  0.00  0.00    -0.000 C 
BRANCH  23  26
ATOM     26  C   UNL     1      34.879 -19.498 -19.980  0.00  0.00    -0.000 C 
ATOM     27  C   UNL     1      36.005 -20.097 -19.417  0.00  0.00    -0.000 C 
ATOM     28  C   UNL     1      33.609 -20.008 -19.711  0.00  0.00    -0.000 C 
ATOM     29  C   UNL     1      35.862 -21.208 -18.586  0.00  0.00    +0.000 C 
ATOM     30  C   UNL     1      33.465 -21.118 -18.880  0.00  0.00    +0.000 C 
ATOM     31  C   UNL     1      34.591 -21.719 -18.317  0.00  0.00    +0.000 C 
ENDBRANCH  23  26
ENDBRANCH  19  20
ENDBRANCH   2  19
TORSDOF 5
ENDMDL
MODEL 4
REMARK VINA RESULT:     -11.1      8.476     12.951
REMARK  Name = 11987860
REMARK  5 active torsions:
REMARK  status: ('A' for Active; 'I' for Inactive)
REMARK    1  A    between atoms: N_2  and  C_19
REMARK    2  A    between atoms: C_3  and  C_11
REMARK    3  A    between atoms: N_9  and  O_17
REMARK    4  A    between atoms: C_19  and  C_20
REMARK    5  A    between atoms: C_23  and  C_26
REMARK                            x       y       z     vdW  Elec       q    Type
REMARK                         _______ _______ _______ _____ _____    ______ ____
ROOT
ATOM      1  O   UNL     1      32.973 -14.713 -25.350  0.00  0.00    -0.272 OA
ATOM      2  N   UNL     1      34.661 -14.700 -23.747  0.00  0.00    -0.298 N 
ATOM      3  C   UNL     1      33.549 -14.194 -24.398  0.00  0.00    +0.253 C 
ATOM      4  H   UNL     1      35.035 -14.190 -22.992  0.00  0.00    +0.150 HD
ENDROOT
BRANCH   3  11
ATOM      5  O   UNL     1      34.855 -12.239 -22.508  0.00  0.00    -0.327 OA
ATOM      6  O   UNL     1      33.741 -11.869 -24.512  0.00  0.00    -0.320 OA
ATOM      7  O   UNL     1      30.831  -9.678 -21.178  0.00  0.00    -0.250 OA
ATOM      8  N   UNL     1      32.781 -10.366 -22.234  0.00  0.00    -0.255 N 
ATOM      9  N   UNL     1      31.890  -8.223 -22.596  0.00  0.00    -0.181 N 
ATOM     10  C   UNL     1      33.524 -12.751 -22.351  0.00  0.00    +0.174 C 
ATOM     11  C   UNL     1      33.075 -12.911 -23.794  0.00  0.00    +0.222 C 
ATOM     12  C   UNL     1      34.657 -11.297 -23.567  0.00  0.00    +0.256 C 
ATOM     13  C   UNL     1      32.727 -11.687 -21.590  0.00  0.00    +0.128 C 
ATOM     14  C   UNL     1      34.019 -10.042 -22.973  0.00  0.00    +0.156 C 
ATOM     15  C   UNL     1      31.767  -9.434 -21.948  0.00  0.00    +0.326 C 
ATOM     16  H   UNL     1      32.634  -8.027 -23.209  0.00  0.00    +0.184 HD
BRANCH   9  17
ATOM     17  O   UNL     1      30.879  -7.290 -22.320  0.00  0.00    -0.294 OA
ATOM     18  H   UNL     1      31.014  -6.496 -22.862  0.00  0.00    +0.241 HD
ENDBRANCH   9  17
ENDBRANCH   3  11
BRANCH   2  19
ATOM     19  C   UNL     1      35.300 -15.941 -24.123  0.00  0.00    +0.116 C 
BRANCH  19  20
ATOM     20  C   UNL     1      35.193 -16.947 -23.010  0.00  0.00    -0.003 C 
ATOM     21  C   UNL     1      34.627 -18.191 -23.263  0.00  0.00    -0.003 C 
ATOM     22  C   UNL     1      35.661 -16.622 -21.744  0.00  0.00    -0.003 C 
ATOM     23  C   UNL     1      34.995 -18.806 -20.956  0.00  0.00    -0.000 C 
ATOM     24  C   UNL     1      34.528 -19.123 -22.231  0.00  0.00    -0.000 C 
ATOM     25  C   UNL     1      35.562 -17.555 -20.713  0.00  0.00    -0.000 C 
BRANCH  23  26
ATOM     26  C   UNL     1      34.893 -19.774 -19.885  0.00  0.00    -0.000 C 
ATOM     27  C   UNL     1      36.044 -20.219 -19.236  0.00  0.00    -0.000 C 
ATOM     28  C   UNL     1      33.644 -20.260 -19.502  0.00  0.00    -0.000 C 
ATOM     29  C   UNL     1      35.946 -21.152 -18.203  0.00  0.00    +0.000 C 
ATOM     30  C   UNL     1      33.545 -21.192 -18.469  0.00  0.00    +0.000 C 
ATOM     31  C   UNL     1      34.696 -21.639 -17.820  0.00  0.00    +0.000 C 
ENDBRANCH  23  26
ENDBRANCH  19  20
ENDBRANCH   2  19
TORSDOF 5
ENDMDL
MODEL 5
REMARK VINA RESULT:     -10.8      3.912      6.330
REMARK  Name = 11987860
REMARK  5 active torsions:
REMARK  status: ('A' for Active; 'I' for Inactive)
REMARK    1  A    between atoms: N_2  and  C_19
REMARK    2  A    between atoms: C_3  and  C_11
REMARK    3  A    between atoms: N_9  and  O_17
REMARK    4  A    between atoms: C_19  and  C_20
REMARK    5  A    between atoms: C_23  and  C_26
REMARK                            x       y       z     vdW  Elec       q    Type
REMARK                         _______ _______ _______ _____ _____    ______ ____
ROOT
ATOM      1  O   UNL     1      34.600 -23.418 -16.072  0.00  0.00    -0.272 OA
ATOM      2  N   UNL     1      34.007 -21.752 -17.586  0.00  0.00    -0.298 N 
ATOM      3  C   UNL     1      33.760 -22.702 -16.609  0.00  0.00    +0.253 C 
ATOM      4  H   UNL     1      33.246 -21.237 -17.941  0.00  0.00    +0.150 HD
ENDROOT
BRANCH   3  11
ATOM      5  O   UNL     1      32.359 -23.594 -14.091  0.00  0.00    -0.327 OA
ATOM      6  O   UNL     1      32.091 -21.660 -15.350  0.00  0.00    -0.320 OA
ATOM      7  O   UNL     1      27.759 -23.968 -15.882  0.00  0.00    -0.250 OA
ATOM      8  N   UNL     1      29.687 -23.189 -14.850  0.00  0.00    -0.255 N 
ATOM      9  N   UNL     1      27.646 -22.041 -14.648  0.00  0.00    -0.181 N 
ATOM     10  C   UNL     1      31.983 -24.001 -15.414  0.00  0.00    +0.174 C 
ATOM     11  C   UNL     1      32.314 -22.763 -16.232  0.00  0.00    +0.222 C 
ATOM     12  C   UNL     1      31.850 -22.257 -14.067  0.00  0.00    +0.256 C 
ATOM     13  C   UNL     1      30.483 -24.309 -15.374  0.00  0.00    +0.128 C 
ATOM     14  C   UNL     1      30.339 -22.328 -13.842  0.00  0.00    +0.156 C 
ATOM     15  C   UNL     1      28.318 -23.124 -15.175  0.00  0.00    +0.326 C 
ATOM     16  H   UNL     1      28.091 -21.369 -14.084  0.00  0.00    +0.184 HD
BRANCH   9  17
ATOM     17  O   UNL     1      26.283 -21.967 -14.972  0.00  0.00    -0.294 OA
ATOM     18  H   UNL     1      25.778 -21.699 -14.187  0.00  0.00    +0.241 HD
ENDBRANCH   9  17
ENDBRANCH   3  11
BRANCH   2  19
ATOM     19  C   UNL     1      35.326 -21.481 -18.108  0.00  0.00    +0.116 C 
BRANCH  19  20
ATOM     20  C   UNL     1      35.259 -20.455 -19.205  0.00  0.00    -0.003 C 
ATOM     21  C   UNL     1      34.033 -20.154 -19.788  0.00  0.00    -0.003 C 
ATOM     22  C   UNL     1      36.421 -19.820 -19.624  0.00  0.00    -0.003 C 
ATOM     23  C   UNL     1      35.132 -18.560 -21.232  0.00  0.00    -0.000 C 
ATOM     24  C   UNL     1      33.971 -19.202 -20.805  0.00  0.00    -0.000 C 
ATOM     25  C   UNL     1      36.357 -18.869 -20.641  0.00  0.00    -0.000 C 
BRANCH  23  26
ATOM     26  C   UNL     1      35.067 -17.571 -22.287  0.00  0.00    -0.000 C 
ATOM     27  C   UNL     1      34.633 -17.939 -23.560  0.00  0.00    -0.000 C 
ATOM     28  C   UNL     1      35.436 -16.252 -22.029  0.00  0.00    -0.000 C 
ATOM     29  C   UNL     1      34.569 -16.986 -24.578  0.00  0.00    +0.000 C 
ATOM     30  C   UNL     1      35.373 -15.299 -23.046  0.00  0.00    +0.000 C 
ATOM     31  C   UNL     1      34.940 -15.666 -24.321  0.00  0.00    +0.000 C 
ENDBRANCH  23  26
ENDBRANCH  19  20
ENDBRANCH   2  19
TORSDOF 5
ENDMDL
MODEL 6
REMARK VINA RESULT:     -10.5     10.407     14.122
REMARK  Name = 11987860
REMARK  5 active torsions:
REMARK  status: ('A' for Active; 'I' for Inactive)
REMARK    1  A    between atoms: N_2  and  C_19
REMARK    2  A    between atoms: C_3  and  C_11
REMARK    3  A    between atoms: N_9  and  O_17
REMARK    4  A    between atoms: C_19  and  C_20
REMARK    5  A    between atoms: C_23  and  C_26
REMARK                            x       y       z     vdW  Elec       q    Type
REMARK                         _______ _______ _______ _____ _____    ______ ____
ROOT
ATOM      1  O   UNL     1      31.895 -12.380 -19.470  0.00  0.00    -0.272 OA
ATOM      2  N   UNL     1      32.262 -10.768 -21.109  0.00  0.00    -0.298 N 
ATOM      3  C   UNL     1      32.240 -12.057 -20.604  0.00  0.00    +0.253 C 
ATOM      4  H   UNL     1      32.560 -10.634 -22.038  0.00  0.00    +0.150 HD
ENDROOT
BRANCH   3  11
ATOM      5  O   UNL     1      34.773 -12.363 -22.212  0.00  0.00    -0.327 OA
ATOM      6  O   UNL     1      33.605 -13.921 -20.947  0.00  0.00    -0.320 OA
ATOM      7  O   UNL     1      33.149 -15.636 -25.554  0.00  0.00    -0.250 OA
ATOM      8  N   UNL     1      34.136 -14.663 -23.691  0.00  0.00    -0.255 N 
ATOM      9  N   UNL     1      34.463 -16.934 -24.199  0.00  0.00    -0.181 N 
ATOM     10  C   UNL     1      33.451 -12.446 -22.761  0.00  0.00    +0.174 C 
ATOM     11  C   UNL     1      32.671 -13.070 -21.616  0.00  0.00    +0.222 C 
ATOM     12  C   UNL     1      34.871 -13.631 -21.557  0.00  0.00    +0.256 C 
ATOM     13  C   UNL     1      33.537 -13.354 -23.992  0.00  0.00    +0.128 C 
ATOM     14  C   UNL     1      35.151 -14.695 -22.618  0.00  0.00    +0.156 C 
ATOM     15  C   UNL     1      33.868 -15.742 -24.555  0.00  0.00    +0.326 C 
ATOM     16  H   UNL     1      35.035 -17.019 -23.403  0.00  0.00    +0.184 HD
BRANCH   9  17
ATOM     17  O   UNL     1      34.196 -18.016 -25.052  0.00  0.00    -0.294 OA
ATOM     18  H   UNL     1      34.364 -17.752 -25.971  0.00  0.00    +0.241 HD
ENDBRANCH   9  17
ENDBRANCH   3  11
BRANCH   2  19
ATOM     19  C   UNL     1      31.869  -9.610 -20.339  0.00  0.00    +0.116 C 
BRANCH  19  20
ATOM     20  C   UNL     1      31.975  -8.363 -21.171  0.00  0.00    -0.003 C 
ATOM     21  C   UNL     1      32.259  -7.150 -20.554  0.00  0.00    -0.003 C 
ATOM     22  C   UNL     1      31.788  -8.436 -22.545  0.00  0.00    -0.003 C 
ATOM     23  C   UNL     1      32.171  -6.057 -22.706  0.00  0.00    -0.000 C 
ATOM     24  C   UNL     1      32.357  -5.992 -21.326  0.00  0.00    -0.000 C 
ATOM     25  C   UNL     1      31.886  -7.279 -23.316  0.00  0.00    -0.000 C 
BRANCH  23  26
ATOM     26  C   UNL     1      32.273  -4.856 -23.508  0.00  0.00    -0.000 C 
ATOM     27  C   UNL     1      32.428  -4.952 -24.890  0.00  0.00    -0.000 C 
ATOM     28  C   UNL     1      32.216  -3.603 -22.897  0.00  0.00    -0.000 C 
ATOM     29  C   UNL     1      32.526  -3.794 -25.663  0.00  0.00    +0.000 C 
ATOM     30  C   UNL     1      32.313  -2.446 -23.669  0.00  0.00    +0.000 C 
ATOM     31  C   UNL     1      32.469  -2.541 -25.053  0.00  0.00    +0.000 C 
ENDBRANCH  23  26
ENDBRANCH  19  20
ENDBRANCH   2  19
TORSDOF 5
ENDMDL
MODEL 7
REMARK VINA RESULT:     -10.3      3.043      4.876
REMARK  Name = 11987860
REMARK  5 active torsions:
REMARK  status: ('A' for Active; 'I' for Inactive)
REMARK    1  A    between atoms: N_2  and  C_19
REMARK    2  A    between atoms: C_3  and  C_11
REMARK    3  A    between atoms: N_9  and  O_17
REMARK    4  A    between atoms: C_19  and  C_20
REMARK    5  A    between atoms: C_23  and  C_26
REMARK                            x       y       z     vdW  Elec       q    Type
REMARK                         _______ _______ _______ _____ _____    ______ ____
ROOT
ATOM      1  O   UNL     1      37.454 -21.390 -15.524  0.00  0.00    -0.272 OA
ATOM      2  N   UNL     1      36.165 -21.150 -17.448  0.00  0.00    -0.298 N 
ATOM      3  C   UNL     1      36.377 -21.444 -16.112  0.00  0.00    +0.253 C 
ATOM      4  H   UNL     1      35.251 -21.229 -17.805  0.00  0.00    +0.150 HD
ENDROOT
BRANCH   3  11
ATOM      5  O   UNL     1      34.738 -23.976 -16.122  0.00  0.00    -0.327 OA
ATOM      6  O   UNL     1      35.505 -22.695 -14.342  0.00  0.00    -0.320 OA
ATOM      7  O   UNL     1      30.600 -22.203 -14.063  0.00  0.00    -0.250 OA
ATOM      8  N   UNL     1      32.661 -23.220 -14.392  0.00  0.00    -0.255 N 
ATOM      9  N   UNL     1      31.518 -23.414 -12.348  0.00  0.00    -0.181 N 
ATOM     10  C   UNL     1      34.194 -22.659 -16.285  0.00  0.00    +0.174 C 
ATOM     11  C   UNL     1      35.113 -21.826 -15.408  0.00  0.00    +0.222 C 
ATOM     12  C   UNL     1      34.999 -23.986 -14.715  0.00  0.00    +0.256 C 
ATOM     13  C   UNL     1      32.753 -22.708 -15.767  0.00  0.00    +0.128 C 
ATOM     14  C   UNL     1      33.675 -24.215 -13.987  0.00  0.00    +0.156 C 
ATOM     15  C   UNL     1      31.523 -22.898 -13.627  0.00  0.00    +0.326 C 
ATOM     16  H   UNL     1      32.253 -23.968 -12.000  0.00  0.00    +0.184 HD
BRANCH   9  17
ATOM     17  O   UNL     1      30.389 -23.093 -11.577  0.00  0.00    -0.294 OA
ATOM     18  H   UNL     1      30.125 -22.176 -11.757  0.00  0.00    +0.241 HD
ENDBRANCH   9  17
ENDBRANCH   3  11
BRANCH   2  19
ATOM     19  C   UNL     1      37.220 -20.732 -18.342  0.00  0.00    +0.116 C 
BRANCH  19  20
ATOM     20  C   UNL     1      36.662 -19.905 -19.466  0.00  0.00    -0.003 C 
ATOM     21  C   UNL     1      37.469 -18.960 -20.089  0.00  0.00    -0.003 C 
ATOM     22  C   UNL     1      35.347 -20.094 -19.870  0.00  0.00    -0.003 C 
ATOM     23  C   UNL     1      35.632 -18.376 -21.544  0.00  0.00    -0.000 C 
ATOM     24  C   UNL     1      36.951 -18.193 -21.132  0.00  0.00    -0.000 C 
ATOM     25  C   UNL     1      34.830 -19.327 -20.913  0.00  0.00    -0.000 C 
BRANCH  23  26
ATOM     26  C   UNL     1      35.095 -17.581 -22.627  0.00  0.00    -0.000 C 
ATOM     27  C   UNL     1      35.278 -16.198 -22.635  0.00  0.00    -0.000 C 
ATOM     28  C   UNL     1      34.396 -18.197 -23.664  0.00  0.00    -0.000 C 
ATOM     29  C   UNL     1      34.761 -15.432 -23.679  0.00  0.00    +0.000 C 
ATOM     30  C   UNL     1      33.878 -17.432 -24.709  0.00  0.00    +0.000 C 
ATOM     31  C   UNL     1      34.060 -16.048 -24.717  0.00  0.00    +0.000 C 
ENDBRANCH  23  26
ENDBRANCH  19  20
ENDBRANCH   2  19
TORSDOF 5
ENDMDL
MODEL 8
REMARK VINA RESULT:     -10.2     10.895     14.966
REMARK  Name = 11987860
REMARK  5 active torsions:
REMARK  status: ('A' for Active; 'I' for Inactive)
REMARK    1  A    between atoms: N_2  and  C_19
REMARK    2  A    between atoms: C_3  and  C_11
REMARK    3  A    between atoms: N_9  and  O_17
REMARK    4  A    between atoms: C_19  and  C_20
REMARK    5  A    between atoms: C_23  and  C_26
REMARK                            x       y       z     vdW  Elec       q    Type
REMARK                         _______ _______ _______ _____ _____    ______ ____
ROOT
ATOM      1  O   UNL     1      34.977  -8.609 -24.774  0.00  0.00    -0.272 OA
ATOM      2  N   UNL     1      33.478 -10.201 -23.975  0.00  0.00    -0.298 N 
ATOM      3  C   UNL     1      34.135  -8.983 -23.962  0.00  0.00    +0.253 C 
ATOM      4  H   UNL     1      32.820 -10.387 -23.267  0.00  0.00    +0.150 HD
ENDROOT
BRANCH   3  11
ATOM      5  O   UNL     1      31.513  -8.763 -22.486  0.00  0.00    -0.327 OA
ATOM      6  O   UNL     1      33.680  -8.947 -21.671  0.00  0.00    -0.320 OA
ATOM      7  O   UNL     1      32.297  -4.440 -20.202  0.00  0.00    -0.250 OA
ATOM      8  N   UNL     1      32.141  -6.707 -20.680  0.00  0.00    -0.255 N 
ATOM      9  N   UNL     1      32.542  -5.946 -18.494  0.00  0.00    -0.181 N 
ATOM     10  C   UNL     1      32.252  -7.644 -22.996  0.00  0.00    +0.174 C 
ATOM     11  C   UNL     1      33.688  -8.111 -22.831  0.00  0.00    +0.222 C 
ATOM     12  C   UNL     1      32.293  -9.096 -21.334  0.00  0.00    +0.256 C 
ATOM     13  C   UNL     1      31.907  -6.444 -22.108  0.00  0.00    +0.128 C 
ATOM     14  C   UNL     1      31.954  -8.100 -20.225  0.00  0.00    +0.156 C 
ATOM     15  C   UNL     1      32.324  -5.613 -19.814  0.00  0.00    +0.326 C 
ATOM     16  H   UNL     1      32.564  -6.880 -18.183  0.00  0.00    +0.184 HD
BRANCH   9  17
ATOM     17  O   UNL     1      32.731  -4.861 -17.624  0.00  0.00    -0.294 OA
ATOM     18  H   UNL     1      33.094  -4.109 -18.120  0.00  0.00    +0.241 HD
ENDBRANCH   9  17
ENDBRANCH   3  11
BRANCH   2  19
ATOM     19  C   UNL     1      33.713 -11.214 -24.979  0.00  0.00    +0.116 C 
BRANCH  19  20
ATOM     20  C   UNL     1      34.041 -12.531 -24.333  0.00  0.00    -0.003 C 
ATOM     21  C   UNL     1      33.853 -13.710 -25.045  0.00  0.00    -0.003 C 
ATOM     22  C   UNL     1      34.526 -12.555 -23.032  0.00  0.00    -0.003 C 
ATOM     23  C   UNL     1      34.645 -14.965 -23.140  0.00  0.00    -0.000 C 
ATOM     24  C   UNL     1      34.157 -14.932 -24.445  0.00  0.00    -0.000 C 
ATOM     25  C   UNL     1      34.830 -13.777 -22.433  0.00  0.00    -0.000 C 
BRANCH  23  26
ATOM     26  C   UNL     1      34.961 -16.234 -22.517  0.00  0.00    -0.000 C 
ATOM     27  C   UNL     1      34.853 -17.416 -23.249  0.00  0.00    -0.000 C 
ATOM     28  C   UNL     1      35.376 -16.272 -21.186  0.00  0.00    -0.000 C 
ATOM     29  C   UNL     1      35.159 -18.638 -22.649  0.00  0.00    +0.000 C 
ATOM     30  C   UNL     1      35.682 -17.493 -20.586  0.00  0.00    +0.000 C 
ATOM     31  C   UNL     1      35.573 -18.677 -21.317  0.00  0.00    +0.000 C 
ENDBRANCH  23  26
ENDBRANCH  19  20
ENDBRANCH   2  19
TORSDOF 5
ENDMDL
MODEL 9
REMARK VINA RESULT:     -10.0     10.001     14.246
REMARK  Name = 11987860
REMARK  5 active torsions:
REMARK  status: ('A' for Active; 'I' for Inactive)
REMARK    1  A    between atoms: N_2  and  C_19
REMARK    2  A    between atoms: C_3  and  C_11
REMARK    3  A    between atoms: N_9  and  O_17
REMARK    4  A    between atoms: C_19  and  C_20
REMARK    5  A    between atoms: C_23  and  C_26
REMARK                            x       y       z     vdW  Elec       q    Type
REMARK                         _______ _______ _______ _____ _____    ______ ____
ROOT
ATOM      1  O   UNL     1      34.816 -10.393 -24.817  0.00  0.00    -0.272 OA
ATOM      2  N   UNL     1      33.884 -11.987 -23.400  0.00  0.00    -0.298 N 
ATOM      3  C   UNL     1      34.280 -10.710 -23.758  0.00  0.00    +0.253 C 
ATOM      4  H   UNL     1      33.463 -12.117 -22.519  0.00  0.00    +0.150 HD
ENDROOT
BRANCH   3  11
ATOM      5  O   UNL     1      32.904  -8.028 -23.872  0.00  0.00    -0.327 OA
ATOM      6  O   UNL     1      32.558  -9.830 -22.448  0.00  0.00    -0.320 OA
ATOM      7  O   UNL     1      34.244  -6.308 -19.427  0.00  0.00    -0.250 OA
ATOM      8  N   UNL     1      33.061  -7.285 -21.169  0.00  0.00    -0.255 N 
ATOM      9  N   UNL     1      32.042  -6.847 -19.098  0.00  0.00    -0.181 N 
ATOM     10  C   UNL     1      34.144  -8.274 -23.194  0.00  0.00    +0.174 C 
ATOM     11  C   UNL     1      33.959  -9.700 -22.703  0.00  0.00    +0.222 C 
ATOM     12  C   UNL     1      31.977  -8.621 -22.958  0.00  0.00    +0.256 C 
ATOM     13  C   UNL     1      34.235  -7.255 -22.054  0.00  0.00    +0.128 C 
ATOM     14  C   UNL     1      31.773  -7.653 -21.792  0.00  0.00    +0.156 C 
ATOM     15  C   UNL     1      33.188  -6.777 -19.862  0.00  0.00    +0.326 C 
ATOM     16  H   UNL     1      31.200  -7.220 -19.444  0.00  0.00    +0.184 HD
BRANCH   9  17
ATOM     17  O   UNL     1      32.162  -6.347 -17.792  0.00  0.00    -0.294 OA
ATOM     18  H   UNL     1      33.014  -6.621 -17.417  0.00  0.00    +0.241 HD
ENDBRANCH   9  17
ENDBRANCH   3  11
BRANCH   2  19
ATOM     19  C   UNL     1      34.061 -13.139 -24.255  0.00  0.00    +0.116 C 
BRANCH  19  20
ATOM     20  C   UNL     1      34.455 -14.342 -23.444  0.00  0.00    -0.003 C 
ATOM     21  C   UNL     1      34.679 -14.206 -22.079  0.00  0.00    -0.003 C 
ATOM     22  C   UNL     1      34.590 -15.575 -24.068  0.00  0.00    -0.003 C 
ATOM     23  C   UNL     1      35.183 -16.564 -21.945  0.00  0.00    -0.000 C 
ATOM     24  C   UNL     1      35.045 -15.322 -21.327  0.00  0.00    -0.000 C 
ATOM     25  C   UNL     1      34.956 -16.691 -23.315  0.00  0.00    -0.000 C 
BRANCH  23  26
ATOM     26  C   UNL     1      35.562 -17.723 -21.164  0.00  0.00    -0.000 C 
ATOM     27  C   UNL     1      34.582 -18.596 -20.693  0.00  0.00    -0.000 C 
ATOM     28  C   UNL     1      36.906 -17.967 -20.886  0.00  0.00    -0.000 C 
ATOM     29  C   UNL     1      34.946 -19.714 -19.941  0.00  0.00    +0.000 C 
ATOM     30  C   UNL     1      37.271 -19.084 -20.135  0.00  0.00    +0.000 C 
ATOM     31  C   UNL     1      36.291 -19.958 -19.662  0.00  0.00    +0.000 C 
ENDBRANCH  23  26
ENDBRANCH  19  20
ENDBRANCH   2  19
TORSDOF 5
ENDMDL
