MODEL 1
REMARK VINA RESULT:     -12.4      0.000      0.000
REMARK  Name = 5326869
REMARK  6 active torsions:
REMARK  status: ('A' for Active; 'I' for Inactive)
REMARK    1  A    between atoms: N_2  and  C_11
REMARK    2  A    between atoms: C_3  and  C_25
REMARK    3  A    between atoms: N_5  and  C_14
REMARK    4  A    between atoms: C_14  and  C_15
REMARK    5  A    between atoms: C_15  and  C_17
REMARK    6  A    between atoms: C_23  and  N_30
REMARK                            x       y       z     vdW  Elec       q    Type
REMARK                         _______ _______ _______ _____ _____    ______ ____
ROOT
ATOM      1  O   UNL     1      32.865 -20.532 -20.016  0.00  0.00    -0.270 OA
ATOM      2  N   UNL     1      34.935 -19.467 -19.685  0.00  0.00    -0.280 N 
ATOM      3  C   UNL     1      33.903 -20.366 -19.385  0.00  0.00    +0.250 C 
ATOM      4  H   UNL     1      35.700 -19.466 -19.065  0.00  0.00    +0.155 HD
ENDROOT
BRANCH   2  11
ATOM      5  N   UNL     1      34.975 -14.964 -21.666  0.00  0.00    -0.286 N 
ATOM      6  C   UNL     1      35.019 -16.339 -21.608  0.00  0.00    +0.053 C 
ATOM      7  C   UNL     1      35.171 -16.801 -22.917  0.00  0.00    +0.015 C 
ATOM      8  C   UNL     1      35.094 -14.543 -22.964  0.00  0.00    +0.065 C 
ATOM      9  C   UNL     1      34.936 -17.199 -20.507  0.00  0.00    +0.029 C 
ATOM     10  C   UNL     1      35.217 -15.656 -23.761  0.00  0.00    +0.017 C 
ATOM     11  C   UNL     1      35.012 -18.573 -20.754  0.00  0.00    +0.052 C 
ATOM     12  C   UNL     1      35.245 -18.190 -23.141  0.00  0.00    +0.003 C 
ATOM     13  C   UNL     1      35.163 -19.063 -22.050  0.00  0.00    +0.015 C 
BRANCH   5  14
ATOM     14  C   UNL     1      34.828 -14.078 -20.531  0.00  0.00    +0.100 C 
BRANCH  14  15
ATOM     15  C   UNL     1      33.399 -14.024 -19.981  0.00  0.00    +0.048 C 
BRANCH  15  17
ATOM     16  N   UNL     1      31.422 -10.298 -20.738  0.00  0.00    -0.242 NA
ATOM     17  C   UNL     1      32.704 -12.712 -20.247  0.00  0.00    -0.017 C 
ATOM     18  C   UNL     1      32.928 -12.052 -21.440  0.00  0.00    +0.016 C 
ATOM     19  C   UNL     1      31.851 -12.188 -19.293  0.00  0.00    +0.016 C 
ATOM     20  C   UNL     1      32.265 -10.851 -21.637  0.00  0.00    +0.099 C 
ATOM     21  C   UNL     1      31.236 -10.981 -19.586  0.00  0.00    +0.099 C 
ENDBRANCH  15  17
ENDBRANCH  14  15
ENDBRANCH   5  14
ENDBRANCH   2  11
BRANCH   3  25
ATOM     22  F   UNL     1      36.804 -22.342 -16.058  0.00  0.00    -0.204 F 
ATOM     23  C   UNL     1      33.179 -22.446 -16.354  0.00  0.00    +0.050 C 
ATOM     24  C   UNL     1      32.994 -21.690 -17.511  0.00  0.00    +0.019 C 
ATOM     25  C   UNL     1      34.099 -21.173 -18.153  0.00  0.00    +0.057 C 
ATOM     26  C   UNL     1      34.465 -22.666 -15.863  0.00  0.00    +0.044 C 
ATOM     27  C   UNL     1      35.382 -21.375 -17.688  0.00  0.00    +0.034 C 
ATOM     28  C   UNL     1      35.568 -22.131 -16.530  0.00  0.00    +0.142 C 
BRANCH  23  30
ATOM     29  O   UNL     1      29.830 -23.817 -14.212  0.00  0.00    -0.350 OA
ATOM     30  N   UNL     1      32.074 -22.982 -15.685  0.00  0.00    -0.303 N 
ATOM     31  C   UNL     1      32.239 -23.568 -14.350  0.00  0.00    +0.123 C 
ATOM     32  C   UNL     1      30.751 -22.402 -15.953  0.00  0.00    +0.123 C 
ATOM     33  C   UNL     1      31.072 -24.501 -14.048  0.00  0.00    +0.164 C 
ATOM     34  C   UNL     1      29.663 -23.396 -15.566  0.00  0.00    +0.164 C 
ENDBRANCH  23  30
ENDBRANCH   3  25
TORSDOF 6
ENDMDL
MODEL 2
REMARK VINA RESULT:     -12.1      2.405      3.280
REMARK  Name = 5326869
REMARK  6 active torsions:
REMARK  status: ('A' for Active; 'I' for Inactive)
REMARK    1  A    between atoms: N_2  and  C_11
REMARK    2  A    between atoms: C_3  and  C_25
REMARK    3  A    between atoms: N_5  and  C_14
REMARK    4  A    between atoms: C_14  and  C_15
REMARK    5  A    between atoms: C_15  and  C_17
REMARK    6  A    between atoms: C_23  and  N_30
REMARK                            x       y       z     vdW  Elec       q    Type
REMARK                         _______ _______ _______ _____ _____    ______ ____
ROOT
ATOM      1  O   UNL     1      36.843 -20.552 -19.547  0.00  0.00    -0.270 OA
ATOM      2  N   UNL     1      34.774 -19.438 -19.629  0.00  0.00    -0.280 N 
ATOM      3  C   UNL     1      35.706 -20.360 -19.133  0.00  0.00    +0.250 C 
ATOM      4  H   UNL     1      33.902 -19.419 -19.173  0.00  0.00    +0.155 HD
ENDROOT
BRANCH   2  11
ATOM      5  N   UNL     1      34.989 -14.937 -21.602  0.00  0.00    -0.286 N 
ATOM      6  C   UNL     1      35.016 -16.312 -21.541  0.00  0.00    +0.053 C 
ATOM      7  C   UNL     1      35.253 -16.775 -22.837  0.00  0.00    +0.015 C 
ATOM      8  C   UNL     1      35.199 -14.517 -22.888  0.00  0.00    +0.065 C 
ATOM      9  C   UNL     1      34.851 -17.171 -20.449  0.00  0.00    +0.029 C 
ATOM     10  C   UNL     1      35.366 -15.632 -23.676  0.00  0.00    +0.017 C 
ATOM     11  C   UNL     1      34.931 -18.546 -20.691  0.00  0.00    +0.052 C 
ATOM     12  C   UNL     1      35.330 -18.166 -23.055  0.00  0.00    +0.003 C 
ATOM     13  C   UNL     1      35.167 -19.037 -21.973  0.00  0.00    +0.015 C 
BRANCH   5  14
ATOM     14  C   UNL     1      34.771 -14.049 -20.480  0.00  0.00    +0.100 C 
BRANCH  14  15
ATOM     15  C   UNL     1      33.311 -13.992 -20.020  0.00  0.00    +0.048 C 
BRANCH  15  17
ATOM     16  N   UNL     1      31.480 -10.166 -20.634  0.00  0.00    -0.242 NA
ATOM     17  C   UNL     1      32.668 -12.645 -20.236  0.00  0.00    -0.017 C 
ATOM     18  C   UNL     1      32.814 -12.007 -21.453  0.00  0.00    +0.016 C 
ATOM     19  C   UNL     1      31.939 -12.067 -19.213  0.00  0.00    +0.016 C 
ATOM     20  C   UNL     1      32.203 -10.773 -21.601  0.00  0.00    +0.099 C 
ATOM     21  C   UNL     1      31.367 -10.830 -19.462  0.00  0.00    +0.099 C 
ENDBRANCH  15  17
ENDBRANCH  14  15
ENDBRANCH   5  14
ENDBRANCH   2  11
BRANCH   3  25
ATOM     22  F   UNL     1      32.171 -22.727 -16.834  0.00  0.00    -0.204 F 
ATOM     23  C   UNL     1      35.687 -22.372 -15.972  0.00  0.00    +0.050 C 
ATOM     24  C   UNL     1      36.134 -21.583 -17.032  0.00  0.00    +0.019 C 
ATOM     25  C   UNL     1      35.231 -21.198 -18.001  0.00  0.00    +0.057 C 
ATOM     26  C   UNL     1      34.350 -22.758 -15.904  0.00  0.00    +0.044 C 
ATOM     27  C   UNL     1      33.902 -21.567 -17.958  0.00  0.00    +0.034 C 
ATOM     28  C   UNL     1      33.456 -22.356 -16.897  0.00  0.00    +0.142 C 
BRANCH  23  30
ATOM     29  O   UNL     1      38.387 -23.322 -12.890  0.00  0.00    -0.350 OA
ATOM     30  N   UNL     1      36.583 -22.775 -14.976  0.00  0.00    -0.303 N 
ATOM     31  C   UNL     1      38.028 -22.633 -15.189  0.00  0.00    +0.123 C 
ATOM     32  C   UNL     1      36.146 -22.693 -13.575  0.00  0.00    +0.123 C 
ATOM     33  C   UNL     1      38.782 -23.559 -14.241  0.00  0.00    +0.164 C 
ATOM     34  C   UNL     1      37.000 -23.615 -12.714  0.00  0.00    +0.164 C 
ENDBRANCH  23  30
ENDBRANCH   3  25
TORSDOF 6
ENDMDL
MODEL 3
REMARK VINA RESULT:     -12.1      3.707     11.041
REMARK  Name = 5326869
REMARK  6 active torsions:
REMARK  status: ('A' for Active; 'I' for Inactive)
REMARK    1  A    between atoms: N_2  and  C_11
REMARK    2  A    between atoms: C_3  and  C_25
REMARK    3  A    between atoms: N_5  and  C_14
REMARK    4  A    between atoms: C_14  and  C_15
REMARK    5  A    between atoms: C_15  and  C_17
REMARK    6  A    between atoms: C_23  and  N_30
REMARK                            x       y       z     vdW  Elec       q    Type
REMARK                         _______ _______ _______ _____ _____    ______ ____
ROOT
ATOM      1  O   UNL     1      33.174 -20.267 -19.639  0.00  0.00    -0.270 OA
ATOM      2  N   UNL     1      35.136 -20.676 -18.410  0.00  0.00    -0.280 N 
ATOM      3  C   UNL     1      34.378 -20.125 -19.450  0.00  0.00    +0.250 C 
ATOM      4  H   UNL     1      36.096 -20.457 -18.412  0.00  0.00    +0.155 HD
ENDROOT
BRANCH   2  11
ATOM      5  N   UNL     1      35.588 -22.826 -14.008  0.00  0.00    -0.286 N 
ATOM      6  C   UNL     1      35.024 -22.489 -15.217  0.00  0.00    +0.053 C 
ATOM      7  C   UNL     1      33.798 -23.153 -15.298  0.00  0.00    +0.015 C 
ATOM      8  C   UNL     1      34.763 -23.677 -13.323  0.00  0.00    +0.065 C 
ATOM      9  C   UNL     1      35.502 -21.657 -16.237  0.00  0.00    +0.029 C 
ATOM     10  C   UNL     1      33.646 -23.898 -14.095  0.00  0.00    +0.017 C 
ATOM     11  C   UNL     1      34.699 -21.499 -17.371  0.00  0.00    +0.052 C 
ATOM     12  C   UNL     1      33.006 -22.977 -16.451  0.00  0.00    +0.003 C 
ATOM     13  C   UNL     1      33.471 -22.148 -17.478  0.00  0.00    +0.015 C 
BRANCH   5  14
ATOM     14  C   UNL     1      36.866 -22.358 -13.516  0.00  0.00    +0.100 C 
BRANCH  14  15
ATOM     15  C   UNL     1      37.483 -23.270 -12.451  0.00  0.00    +0.048 C 
BRANCH  15  17
ATOM     16  N   UNL     1      39.960 -26.363 -14.085  0.00  0.00    -0.242 NA
ATOM     17  C   UNL     1      38.355 -24.358 -13.027  0.00  0.00    -0.017 C 
ATOM     18  C   UNL     1      39.723 -24.173 -13.090  0.00  0.00    +0.016 C 
ATOM     19  C   UNL     1      37.773 -25.527 -13.483  0.00  0.00    +0.016 C 
ATOM     20  C   UNL     1      40.479 -25.202 -13.626  0.00  0.00    +0.099 C 
ATOM     21  C   UNL     1      38.617 -26.495 -14.001  0.00  0.00    +0.099 C 
ENDBRANCH  15  17
ENDBRANCH  14  15
ENDBRANCH   5  14
ENDBRANCH   2  11
BRANCH   3  25
ATOM     22  F   UNL     1      38.538 -18.232 -21.030  0.00  0.00    -0.204 F 
ATOM     23  C   UNL     1      35.178 -17.956 -22.399  0.00  0.00    +0.050 C 
ATOM     24  C   UNL     1      34.462 -18.723 -21.480  0.00  0.00    +0.019 C 
ATOM     25  C   UNL     1      35.139 -19.306 -20.429  0.00  0.00    +0.057 C 
ATOM     26  C   UNL     1      36.554 -17.790 -22.247  0.00  0.00    +0.044 C 
ATOM     27  C   UNL     1      36.500 -19.157 -20.256  0.00  0.00    +0.034 C 
ATOM     28  C   UNL     1      37.216 -18.390 -21.176  0.00  0.00    +0.142 C 
BRANCH  23  30
ATOM     29  O   UNL     1      33.386 -16.240 -25.794  0.00  0.00    -0.350 OA
ATOM     30  N   UNL     1      34.516 -17.353 -23.473  0.00  0.00    -0.303 N 
ATOM     31  C   UNL     1      34.918 -16.017 -23.925  0.00  0.00    +0.123 C 
ATOM     32  C   UNL     1      33.950 -18.222 -24.514  0.00  0.00    +0.123 C 
ATOM     33  C   UNL     1      33.786 -15.381 -24.726  0.00  0.00    +0.164 C 
ATOM     34  C   UNL     1      32.870 -17.470 -25.284  0.00  0.00    +0.164 C 
ENDBRANCH  23  30
ENDBRANCH   3  25
TORSDOF 6
ENDMDL
MODEL 4
REMARK VINA RESULT:     -11.9      0.988      1.457
REMARK  Name = 5326869
REMARK  6 active torsions:
REMARK  status: ('A' for Active; 'I' for Inactive)
REMARK    1  A    between atoms: N_2  and  C_11
REMARK    2  A    between atoms: C_3  and  C_25
REMARK    3  A    between atoms: N_5  and  C_14
REMARK    4  A    between atoms: C_14  and  C_15
REMARK    5  A    between atoms: C_15  and  C_17
REMARK    6  A    between atoms: C_23  and  N_30
REMARK                            x       y       z     vdW  Elec       q    Type
REMARK                         _______ _______ _______ _____ _____    ______ ____
ROOT
ATOM      1  O   UNL     1      34.084 -20.847 -19.877  0.00  0.00    -0.270 OA
ATOM      2  N   UNL     1      35.734 -19.205 -19.544  0.00  0.00    -0.280 N 
ATOM      3  C   UNL     1      35.005 -20.360 -19.230  0.00  0.00    +0.250 C 
ATOM      4  H   UNL     1      36.444 -18.957 -18.908  0.00  0.00    +0.155 HD
ENDROOT
BRANCH   2  11
ATOM      5  N   UNL     1      34.899 -14.852 -21.678  0.00  0.00    -0.286 N 
ATOM      6  C   UNL     1      35.162 -16.199 -21.576  0.00  0.00    +0.053 C 
ATOM      7  C   UNL     1      35.272 -16.696 -22.875  0.00  0.00    +0.015 C 
ATOM      8  C   UNL     1      34.838 -14.482 -22.995  0.00  0.00    +0.065 C 
ATOM      9  C   UNL     1      35.310 -17.007 -20.442  0.00  0.00    +0.029 C 
ATOM     10  C   UNL     1      35.066 -15.602 -23.761  0.00  0.00    +0.017 C 
ATOM     11  C   UNL     1      35.578 -18.364 -20.646  0.00  0.00    +0.052 C 
ATOM     12  C   UNL     1      35.544 -18.068 -23.056  0.00  0.00    +0.003 C 
ATOM     13  C   UNL     1      35.694 -18.888 -21.932  0.00  0.00    +0.015 C 
BRANCH   5  14
ATOM     14  C   UNL     1      34.711 -13.944 -20.566  0.00  0.00    +0.100 C 
BRANCH  14  15
ATOM     15  C   UNL     1      33.272 -13.911 -20.041  0.00  0.00    +0.048 C 
BRANCH  15  17
ATOM     16  N   UNL     1      31.385 -10.089 -20.487  0.00  0.00    -0.242 NA
ATOM     17  C   UNL     1      32.609 -12.565 -20.198  0.00  0.00    -0.017 C 
ATOM     18  C   UNL     1      32.673 -11.912 -21.414  0.00  0.00    +0.016 C 
ATOM     19  C   UNL     1      31.944 -12.005 -19.123  0.00  0.00    +0.016 C 
ATOM     20  C   UNL     1      32.047 -10.679 -21.507  0.00  0.00    +0.099 C 
ATOM     21  C   UNL     1      31.350 -10.769 -19.319  0.00  0.00    +0.099 C 
ENDBRANCH  15  17
ENDBRANCH  14  15
ENDBRANCH   5  14
ENDBRANCH   2  11
BRANCH   3  25
ATOM     22  F   UNL     1      38.360 -21.653 -15.996  0.00  0.00    -0.204 F 
ATOM     23  C   UNL     1      34.774 -22.270 -16.015  0.00  0.00    +0.050 C 
ATOM     24  C   UNL     1      34.411 -21.641 -17.206  0.00  0.00    +0.019 C 
ATOM     25  C   UNL     1      35.390 -21.032 -17.962  0.00  0.00    +0.057 C 
ATOM     26  C   UNL     1      36.107 -22.274 -15.607  0.00  0.00    +0.044 C 
ATOM     27  C   UNL     1      36.716 -21.021 -17.580  0.00  0.00    +0.034 C 
ATOM     28  C   UNL     1      37.079 -21.650 -16.389  0.00  0.00    +0.142 C 
BRANCH  23  30
ATOM     29  O   UNL     1      31.914 -24.391 -13.778  0.00  0.00    -0.350 OA
ATOM     30  N   UNL     1      33.800 -22.896 -15.230  0.00  0.00    -0.303 N 
ATOM     31  C   UNL     1      32.456 -23.122 -15.774  0.00  0.00    +0.123 C 
ATOM     32  C   UNL     1      34.241 -23.875 -14.227  0.00  0.00    +0.123 C 
ATOM     33  C   UNL     1      31.469 -23.338 -14.632  0.00  0.00    +0.164 C 
ATOM     34  C   UNL     1      33.159 -24.051 -13.168  0.00  0.00    +0.164 C 
ENDBRANCH  23  30
ENDBRANCH   3  25
TORSDOF 6
ENDMDL
MODEL 5
REMARK VINA RESULT:     -11.7      4.371     11.139
REMARK  Name = 5326869
REMARK  6 active torsions:
REMARK  status: ('A' for Active; 'I' for Inactive)
REMARK    1  A    between atoms: N_2  and  C_11
REMARK    2  A    between atoms: C_3  and  C_25
REMARK    3  A    between atoms: N_5  and  C_14
REMARK    4  A    between atoms: C_14  and  C_15
REMARK    5  A    between atoms: C_15  and  C_17
REMARK    6  A    between atoms: C_23  and  N_30
REMARK                            x       y       z     vdW  Elec       q    Type
REMARK                         _______ _______ _______ _____ _____    ______ ____
ROOT
ATOM      1  O   UNL     1      31.896 -13.400 -20.222  0.00  0.00    -0.270 OA
ATOM      2  N   UNL     1      33.560 -12.643 -21.701  0.00  0.00    -0.280 N 
ATOM      3  C   UNL     1      32.589 -12.509 -20.699  0.00  0.00    +0.250 C 
ATOM      4  H   UNL     1      34.024 -11.816 -21.965  0.00  0.00    +0.155 HD
ENDROOT
BRANCH   2  11
ATOM      5  N   UNL     1      35.534 -17.144 -21.923  0.00  0.00    -0.286 N 
ATOM      6  C   UNL     1      34.929 -15.987 -22.360  0.00  0.00    +0.053 C 
ATOM      7  C   UNL     1      34.719 -16.127 -23.733  0.00  0.00    +0.015 C 
ATOM      8  C   UNL     1      35.713 -18.007 -22.970  0.00  0.00    +0.065 C 
ATOM      9  C   UNL     1      34.556 -14.839 -21.650  0.00  0.00    +0.029 C 
ATOM     10  C   UNL     1      35.218 -17.406 -24.104  0.00  0.00    +0.017 C 
ATOM     11  C   UNL     1      33.949 -13.805 -22.369  0.00  0.00    +0.052 C 
ATOM     12  C   UNL     1      34.105 -15.070 -24.435  0.00  0.00    +0.003 C 
ATOM     13  C   UNL     1      33.726 -13.917 -23.740  0.00  0.00    +0.015 C 
BRANCH   5  14
ATOM     14  C   UNL     1      35.930 -17.423 -20.559  0.00  0.00    +0.100 C 
BRANCH  14  15
ATOM     15  C   UNL     1      36.367 -18.874 -20.335  0.00  0.00    +0.048 C 
BRANCH  15  17
ATOM     16  N   UNL     1      33.237 -21.384 -18.828  0.00  0.00    -0.242 NA
ATOM     17  C   UNL     1      35.265 -19.757 -19.804  0.00  0.00    -0.017 C 
ATOM     18  C   UNL     1      33.952 -19.477 -20.129  0.00  0.00    +0.016 C 
ATOM     19  C   UNL     1      35.585 -20.835 -19.000  0.00  0.00    +0.016 C 
ATOM     20  C   UNL     1      32.977 -20.318 -19.617  0.00  0.00    +0.099 C 
ATOM     21  C   UNL     1      34.537 -21.615 -18.539  0.00  0.00    +0.099 C 
ENDBRANCH  15  17
ENDBRANCH  14  15
ENDBRANCH   5  14
ENDBRANCH   2  11
BRANCH   3  25
ATOM     22  F   UNL     1      31.964  -9.399 -17.049  0.00  0.00    -0.204 F 
ATOM     23  C   UNL     1      32.109  -8.793 -20.633  0.00  0.00    +0.050 C 
ATOM     24  C   UNL     1      32.304 -10.091 -21.106  0.00  0.00    +0.019 C 
ATOM     25  C   UNL     1      32.379 -11.126 -20.197  0.00  0.00    +0.057 C 
ATOM     26  C   UNL     1      31.994  -8.560 -19.264  0.00  0.00    +0.044 C 
ATOM     27  C   UNL     1      32.269 -10.922 -18.837  0.00  0.00    +0.034 C 
ATOM     28  C   UNL     1      32.074  -9.624 -18.365  0.00  0.00    +0.142 C 
BRANCH  23  30
ATOM     29  O   UNL     1      32.144  -5.597 -23.366  0.00  0.00    -0.350 OA
ATOM     30  N   UNL     1      32.029  -7.727 -21.534  0.00  0.00    -0.303 N 
ATOM     31  C   UNL     1      32.232  -6.352 -21.062  0.00  0.00    +0.123 C 
ATOM     32  C   UNL     1      32.409  -7.969 -22.933  0.00  0.00    +0.123 C 
ATOM     33  C   UNL     1      31.623  -5.370 -22.057  0.00  0.00    +0.164 C 
ATOM     34  C   UNL     1      31.791  -6.901 -23.828  0.00  0.00    +0.164 C 
ENDBRANCH  23  30
ENDBRANCH   3  25
TORSDOF 6
ENDMDL
MODEL 6
REMARK VINA RESULT:     -11.6      5.153     11.636
REMARK  Name = 5326869
REMARK  6 active torsions:
REMARK  status: ('A' for Active; 'I' for Inactive)
REMARK    1  A    between atoms: N_2  and  C_11
REMARK    2  A    between atoms: C_3  and  C_25
REMARK    3  A    between atoms: N_5  and  C_14
REMARK    4  A    between atoms: C_14  and  C_15
REMARK    5  A    between atoms: C_15  and  C_17
REMARK    6  A    between atoms: C_23  and  N_30
REMARK                            x       y       z     vdW  Elec       q    Type
REMARK                         _______ _______ _______ _____ _____    ______ ____
ROOT
ATOM      1  O   UNL     1      32.852 -12.210 -22.251  0.00  0.00    -0.270 OA
ATOM      2  N   UNL     1      34.386 -12.666 -23.973  0.00  0.00    -0.280 N 
ATOM      3  C   UNL     1      33.682 -11.849 -23.078  0.00  0.00    +0.250 C 
ATOM      4  H   UNL     1      35.018 -12.206 -24.571  0.00  0.00    +0.155 HD
ENDROOT
BRANCH   2  11
ATOM      5  N   UNL     1      35.131 -17.302 -22.503  0.00  0.00    -0.286 N 
ATOM      6  C   UNL     1      34.716 -16.263 -23.306  0.00  0.00    +0.053 C 
ATOM      7  C   UNL     1      34.120 -16.828 -24.434  0.00  0.00    +0.015 C 
ATOM      8  C   UNL     1      34.818 -18.501 -23.085  0.00  0.00    +0.065 C 
ATOM      9  C   UNL     1      34.823 -14.880 -23.120  0.00  0.00    +0.029 C 
ATOM     10  C   UNL     1      34.191 -18.241 -24.282  0.00  0.00    +0.017 C 
ATOM     11  C   UNL     1      34.303 -14.052 -24.119  0.00  0.00    +0.052 C 
ATOM     12  C   UNL     1      33.602 -15.973 -25.428  0.00  0.00    +0.003 C 
ATOM     13  C   UNL     1      33.701 -14.588 -25.256  0.00  0.00    +0.015 C 
BRANCH   5  14
ATOM     14  C   UNL     1      35.801 -17.165 -21.228  0.00  0.00    +0.100 C 
BRANCH  14  15
ATOM     15  C   UNL     1      36.674 -18.369 -20.863  0.00  0.00    +0.048 C 
BRANCH  15  17
ATOM     16  N   UNL     1      34.663 -21.253 -18.413  0.00  0.00    -0.242 NA
ATOM     17  C   UNL     1      35.966 -19.383 -20.000  0.00  0.00    -0.017 C 
ATOM     18  C   UNL     1      34.589 -19.487 -20.061  0.00  0.00    +0.016 C 
ATOM     19  C   UNL     1      36.705 -20.197 -19.161  0.00  0.00    +0.016 C 
ATOM     20  C   UNL     1      33.987 -20.434 -19.249  0.00  0.00    +0.099 C 
ATOM     21  C   UNL     1      36.007 -21.113 -18.390  0.00  0.00    +0.099 C 
ENDBRANCH  15  17
ENDBRANCH  14  15
ENDBRANCH   5  14
ENDBRANCH   2  11
BRANCH   3  25
ATOM     22  F   UNL     1      35.919  -8.138 -25.223  0.00  0.00    -0.204 F 
ATOM     23  C   UNL     1      33.643  -8.168 -22.385  0.00  0.00    +0.050 C 
ATOM     24  C   UNL     1      33.373  -9.533 -22.286  0.00  0.00    +0.019 C 
ATOM     25  C   UNL     1      33.970 -10.395 -23.181  0.00  0.00    +0.057 C 
ATOM     26  C   UNL     1      34.503  -7.697 -23.376  0.00  0.00    +0.044 C 
ATOM     27  C   UNL     1      34.824  -9.955 -24.172  0.00  0.00    +0.034 C 
ATOM     28  C   UNL     1      35.094  -8.590 -24.270  0.00  0.00    +0.142 C 
BRANCH  23  30
ATOM     29  O   UNL     1      31.625  -5.611 -19.725  0.00  0.00    -0.350 OA
ATOM     30  N   UNL     1      33.051  -7.271 -21.489  0.00  0.00    -0.303 N 
ATOM     31  C   UNL     1      32.324  -6.102 -21.996  0.00  0.00    +0.123 C 
ATOM     32  C   UNL     1      32.577  -7.791 -20.199  0.00  0.00    +0.123 C 
ATOM     33  C   UNL     1      32.212  -5.049 -20.899  0.00  0.00    +0.164 C 
ATOM     34  C   UNL     1      32.452  -6.649 -19.198  0.00  0.00    +0.164 C 
ENDBRANCH  23  30
ENDBRANCH   3  25
TORSDOF 6
ENDMDL
MODEL 7
REMARK VINA RESULT:     -11.1      3.747      9.766
REMARK  Name = 5326869
REMARK  6 active torsions:
REMARK  status: ('A' for Active; 'I' for Inactive)
REMARK    1  A    between atoms: N_2  and  C_11
REMARK    2  A    between atoms: C_3  and  C_25
REMARK    3  A    between atoms: N_5  and  C_14
REMARK    4  A    between atoms: C_14  and  C_15
REMARK    5  A    between atoms: C_15  and  C_17
REMARK    6  A    between atoms: C_23  and  N_30
REMARK                            x       y       z     vdW  Elec       q    Type
REMARK                         _______ _______ _______ _____ _____    ______ ____
ROOT
ATOM      1  O   UNL     1      34.154 -20.194 -19.297  0.00  0.00    -0.270 OA
ATOM      2  N   UNL     1      36.321 -20.408 -18.410  0.00  0.00    -0.280 N 
ATOM      3  C   UNL     1      35.357 -19.960 -19.323  0.00  0.00    +0.250 C 
ATOM      4  H   UNL     1      37.247 -20.123 -18.585  0.00  0.00    +0.155 HD
ENDROOT
BRANCH   2  11
ATOM      5  N   UNL     1      33.575 -23.070 -15.315  0.00  0.00    -0.286 N 
ATOM      6  C   UNL     1      34.699 -22.478 -15.846  0.00  0.00    +0.053 C 
ATOM      7  C   UNL     1      35.771 -22.816 -15.018  0.00  0.00    +0.015 C 
ATOM      8  C   UNL     1      33.899 -23.769 -14.183  0.00  0.00    +0.065 C 
ATOM      9  C   UNL     1      34.846 -21.677 -16.984  0.00  0.00    +0.029 C 
ATOM     10  C   UNL     1      35.252 -23.631 -13.973  0.00  0.00    +0.017 C 
ATOM     11  C   UNL     1      36.129 -21.209 -17.283  0.00  0.00    +0.052 C 
ATOM     12  C   UNL     1      37.055 -22.333 -15.340  0.00  0.00    +0.003 C 
ATOM     13  C   UNL     1      37.218 -21.531 -16.475  0.00  0.00    +0.015 C 
BRANCH   5  14
ATOM     14  C   UNL     1      32.238 -22.978 -15.862  0.00  0.00    +0.100 C 
BRANCH  14  15
ATOM     15  C   UNL     1      31.148 -23.445 -14.892  0.00  0.00    +0.048 C 
BRANCH  15  17
ATOM     16  N   UNL     1      27.206 -22.217 -16.039  0.00  0.00    -0.242 NA
ATOM     17  C   UNL     1      29.761 -23.012 -15.297  0.00  0.00    -0.017 C 
ATOM     18  C   UNL     1      29.080 -23.727 -16.264  0.00  0.00    +0.016 C 
ATOM     19  C   UNL     1      29.189 -21.908 -14.693  0.00  0.00    +0.016 C 
ATOM     20  C   UNL     1      27.809 -23.290 -16.599  0.00  0.00    +0.099 C 
ATOM     21  C   UNL     1      27.913 -21.552 -15.099  0.00  0.00    +0.099 C 
ENDBRANCH  15  17
ENDBRANCH  14  15
ENDBRANCH   5  14
ENDBRANCH   2  11
BRANCH   3  25
ATOM     22  F   UNL     1      39.008 -17.720 -21.567  0.00  0.00    -0.204 F 
ATOM     23  C   UNL     1      35.496 -17.954 -22.485  0.00  0.00    +0.050 C 
ATOM     24  C   UNL     1      35.005 -18.724 -21.430  0.00  0.00    +0.019 C 
ATOM     25  C   UNL     1      35.878 -19.137 -20.446  0.00  0.00    +0.057 C 
ATOM     26  C   UNL     1      36.847 -17.615 -22.531  0.00  0.00    +0.044 C 
ATOM     27  C   UNL     1      37.220 -18.815 -20.468  0.00  0.00    +0.034 C 
ATOM     28  C   UNL     1      37.710 -18.045 -21.523  0.00  0.00    +0.142 C 
BRANCH  23  30
ATOM     29  O   UNL     1      33.090 -16.728 -25.708  0.00  0.00    -0.350 OA
ATOM     30  N   UNL     1      34.631 -17.522 -23.496  0.00  0.00    -0.303 N 
ATOM     31  C   UNL     1      34.762 -16.167 -24.042  0.00  0.00    +0.123 C 
ATOM     32  C   UNL     1      34.100 -18.525 -24.430  0.00  0.00    +0.123 C 
ATOM     33  C   UNL     1      33.462 -15.760 -24.728  0.00  0.00    +0.164 C 
ATOM     34  C   UNL     1      32.836 -17.992 -25.095  0.00  0.00    +0.164 C 
ENDBRANCH  23  30
ENDBRANCH   3  25
TORSDOF 6
ENDMDL
MODEL 8
REMARK VINA RESULT:     -11.0      5.091     11.988
REMARK  Name = 5326869
REMARK  6 active torsions:
REMARK  status: ('A' for Active; 'I' for Inactive)
REMARK    1  A    between atoms: N_2  and  C_11
REMARK    2  A    between atoms: C_3  and  C_25
REMARK    3  A    between atoms: N_5  and  C_14
REMARK    4  A    between atoms: C_14  and  C_15
REMARK    5  A    between atoms: C_15  and  C_17
REMARK    6  A    between atoms: C_23  and  N_30
REMARK                            x       y       z     vdW  Elec       q    Type
REMARK                         _______ _______ _______ _____ _____    ______ ____
ROOT
ATOM      1  O   UNL     1      33.851 -10.583 -23.756  0.00  0.00    -0.270 OA
ATOM      2  N   UNL     1      33.191 -12.253 -22.238  0.00  0.00    -0.280 N 
ATOM      3  C   UNL     1      33.334 -10.938 -22.703  0.00  0.00    +0.250 C 
ATOM      4  H   UNL     1      32.748 -12.356 -21.365  0.00  0.00    +0.155 HD
ENDROOT
BRANCH   2  11
ATOM      5  N   UNL     1      35.275 -16.709 -22.294  0.00  0.00    -0.286 N 
ATOM      6  C   UNL     1      34.634 -15.588 -22.771  0.00  0.00    +0.053 C 
ATOM      7  C   UNL     1      34.407 -15.793 -24.133  0.00  0.00    +0.015 C 
ATOM      8  C   UNL     1      35.460 -17.613 -23.305  0.00  0.00    +0.065 C 
ATOM      9  C   UNL     1      34.243 -14.419 -22.108  0.00  0.00    +0.029 C 
ATOM     10  C   UNL     1      34.933 -17.075 -24.456  0.00  0.00    +0.017 C 
ATOM     11  C   UNL     1      33.600 -13.433 -22.861  0.00  0.00    +0.052 C 
ATOM     12  C   UNL     1      33.757 -14.784 -24.872  0.00  0.00    +0.003 C 
ATOM     13  C   UNL     1      33.359 -13.611 -24.222  0.00  0.00    +0.015 C 
BRANCH   5  14
ATOM     14  C   UNL     1      35.697 -16.918 -20.926  0.00  0.00    +0.100 C 
BRANCH  14  15
ATOM     15  C   UNL     1      36.469 -18.225 -20.717  0.00  0.00    +0.048 C 
BRANCH  15  17
ATOM     16  N   UNL     1      34.173 -21.264 -18.753  0.00  0.00    -0.242 NA
ATOM     17  C   UNL     1      35.660 -19.293 -20.025  0.00  0.00    -0.017 C 
ATOM     18  C   UNL     1      34.287 -19.315 -20.178  0.00  0.00    +0.016 C 
ATOM     19  C   UNL     1      36.305 -20.238 -19.248  0.00  0.00    +0.016 C 
ATOM     20  C   UNL     1      33.590 -20.318 -19.523  0.00  0.00    +0.099 C 
ATOM     21  C   UNL     1      35.518 -21.199 -18.635  0.00  0.00    +0.099 C 
ENDBRANCH  15  17
ENDBRANCH  14  15
ENDBRANCH   5  14
ENDBRANCH   2  11
BRANCH   3  25
ATOM     22  F   UNL     1      31.644  -9.544 -18.392  0.00  0.00    -0.204 F 
ATOM     23  C   UNL     1      32.226  -7.600 -21.412  0.00  0.00    +0.050 C 
ATOM     24  C   UNL     1      32.708  -8.591 -22.267  0.00  0.00    +0.019 C 
ATOM     25  C   UNL     1      32.819  -9.882 -21.794  0.00  0.00    +0.057 C 
ATOM     26  C   UNL     1      31.866  -7.922 -20.104  0.00  0.00    +0.044 C 
ATOM     27  C   UNL     1      32.470 -10.226 -20.504  0.00  0.00    +0.034 C 
ATOM     28  C   UNL     1      31.988  -9.235 -19.649  0.00  0.00    +0.142 C 
BRANCH  23  30
ATOM     29  O   UNL     1      31.583  -3.672 -22.769  0.00  0.00    -0.350 OA
ATOM     30  N   UNL     1      32.104  -6.283 -21.868  0.00  0.00    -0.303 N 
ATOM     31  C   UNL     1      31.902  -6.018 -23.297  0.00  0.00    +0.123 C 
ATOM     32  C   UNL     1      31.522  -5.286 -20.959  0.00  0.00    +0.123 C 
ATOM     33  C   UNL     1      32.291  -4.579 -23.614  0.00  0.00    +0.164 C 
ATOM     34  C   UNL     1      31.931  -3.886 -21.400  0.00  0.00    +0.164 C 
ENDBRANCH  23  30
ENDBRANCH   3  25
TORSDOF 6
ENDMDL
MODEL 9
REMARK VINA RESULT:     -10.8      3.505     10.745
REMARK  Name = 5326869
REMARK  6 active torsions:
REMARK  status: ('A' for Active; 'I' for Inactive)
REMARK    1  A    between atoms: N_2  and  C_11
REMARK    2  A    between atoms: C_3  and  C_25
REMARK    3  A    between atoms: N_5  and  C_14
REMARK    4  A    between atoms: C_14  and  C_15
REMARK    5  A    between atoms: C_15  and  C_17
REMARK    6  A    between atoms: C_23  and  N_30
REMARK                            x       y       z     vdW  Elec       q    Type
REMARK                         _______ _______ _______ _____ _____    ______ ____
ROOT
ATOM      1  O   UNL     1      32.501 -20.900 -19.964  0.00  0.00    -0.270 OA
ATOM      2  N   UNL     1      33.876 -20.925 -18.057  0.00  0.00    -0.280 N 
ATOM      3  C   UNL     1      33.530 -20.591 -19.373  0.00  0.00    +0.250 C 
ATOM      4  H   UNL     1      34.747 -20.591 -17.742  0.00  0.00    +0.155 HD
ENDROOT
BRANCH   2  11
ATOM      5  N   UNL     1      33.409 -23.959 -14.213  0.00  0.00    -0.286 N 
ATOM      6  C   UNL     1      33.030 -23.150 -15.260  0.00  0.00    +0.053 C 
ATOM      7  C   UNL     1      31.634 -23.163 -15.305  0.00  0.00    +0.015 C 
ATOM      8  C   UNL     1      32.304 -24.481 -13.596  0.00  0.00    +0.065 C 
ATOM      9  C   UNL     1      33.809 -22.416 -16.163  0.00  0.00    +0.029 C 
ATOM     10  C   UNL     1      31.190 -24.006 -14.249  0.00  0.00    +0.017 C 
ATOM     11  C   UNL     1      33.138 -21.672 -17.138  0.00  0.00    +0.052 C 
ATOM     12  C   UNL     1      30.981 -22.405 -16.297  0.00  0.00    +0.003 C 
ATOM     13  C   UNL     1      31.746 -21.666 -17.206  0.00  0.00    +0.015 C 
BRANCH   5  14
ATOM     14  C   UNL     1      34.772 -24.229 -13.809  0.00  0.00    +0.100 C 
BRANCH  14  15
ATOM     15  C   UNL     1      35.084 -23.785 -12.376  0.00  0.00    +0.048 C 
BRANCH  15  17
ATOM     16  N   UNL     1      39.264 -23.178 -11.652  0.00  0.00    -0.242 NA
ATOM     17  C   UNL     1      36.555 -23.571 -12.122  0.00  0.00    -0.017 C 
ATOM     18  C   UNL     1      36.966 -22.479 -11.381  0.00  0.00    +0.016 C 
ATOM     19  C   UNL     1      37.472 -24.470 -12.634  0.00  0.00    +0.016 C 
ATOM     20  C   UNL     1      38.328 -22.328 -11.175  0.00  0.00    +0.099 C 
ATOM     21  C   UNL     1      38.811 -24.229 -12.371  0.00  0.00    +0.099 C 
ENDBRANCH  15  17
ENDBRANCH  14  15
ENDBRANCH   5  14
ENDBRANCH   2  11
BRANCH   3  25
ATOM     22  F   UNL     1      38.085 -19.085 -19.981  0.00  0.00    -0.204 F 
ATOM     23  C   UNL     1      35.099 -18.332 -21.918  0.00  0.00    +0.050 C 
ATOM     24  C   UNL     1      34.145 -19.073 -21.219  0.00  0.00    +0.019 C 
ATOM     25  C   UNL     1      34.544 -19.800 -20.117  0.00  0.00    +0.057 C 
ATOM     26  C   UNL     1      36.428 -18.336 -21.500  0.00  0.00    +0.044 C 
ATOM     27  C   UNL     1      35.854 -19.821 -19.683  0.00  0.00    +0.034 C 
ATOM     28  C   UNL     1      36.807 -19.080 -20.382  0.00  0.00    +0.142 C 
BRANCH  23  30
ATOM     29  O   UNL     1      34.173 -16.202 -25.423  0.00  0.00    -0.350 OA
ATOM     30  N   UNL     1      34.720 -17.586 -23.039  0.00  0.00    -0.303 N 
ATOM     31  C   UNL     1      35.362 -16.295 -23.310  0.00  0.00    +0.123 C 
ATOM     32  C   UNL     1      34.244 -18.310 -24.226  0.00  0.00    +0.123 C 
ATOM     33  C   UNL     1      34.481 -15.467 -24.239  0.00  0.00    +0.164 C 
ATOM     34  C   UNL     1      33.423 -17.375 -25.105  0.00  0.00    +0.164 C 
ENDBRANCH  23  30
ENDBRANCH   3  25
TORSDOF 6
ENDMDL
