MODEL 1
REMARK VINA RESULT:     -13.3      0.000      0.000
REMARK  Name = 11167602
REMARK  6 active torsions:
REMARK  status: ('A' for Active; 'I' for Inactive)
REMARK    1  A    between atoms: C_2  and  N_10
REMARK    2  A    between atoms: C_3  and  O_25
REMARK    3  A    between atoms: N_9  and  C_15
REMARK    4  A    between atoms: C_16  and  C_24
REMARK    5  A    between atoms: O_25  and  C_27
REMARK    6  A    between atoms: C_29  and  C_34
REMARK                            x       y       z     vdW  Elec       q    Type
REMARK                         _______ _______ _______ _____ _____    ______ ____
ROOT
ATOM      1  F   UNL     1      33.387 -20.578 -19.535  0.00  0.00    -0.203 F 
ATOM      2  C   UNL     1      35.713 -20.254 -19.187  0.00  0.00    +0.079 C 
ATOM      3  C   UNL     1      35.722 -18.328 -21.178  0.00  0.00    +0.148 C 
ATOM      4  C   UNL     1      34.532 -19.954 -19.845  0.00  0.00    +0.157 C 
ATOM      5  C   UNL     1      36.899 -19.610 -19.502  0.00  0.00    +0.020 C 
ATOM      6  C   UNL     1      34.536 -18.985 -20.847  0.00  0.00    +0.068 C 
ATOM      7  C   UNL     1      36.904 -18.642 -20.506  0.00  0.00    +0.039 C 
ENDROOT
BRANCH   2  10
ATOM      8  O   UNL     1      37.207 -20.354 -16.602  0.00  0.00    -0.252 OA
ATOM      9  N   UNL     1      36.148 -22.410 -16.227  0.00  0.00    -0.268 N 
ATOM     10  N   UNL     1      35.712 -21.236 -18.168  0.00  0.00    -0.266 N 
ATOM     11  C   UNL     1      36.437 -21.236 -16.966  0.00  0.00    +0.308 C 
ATOM     12  H   UNL     1      35.508 -23.030 -16.645  0.00  0.00    +0.156 HD
ATOM     13  H   UNL     1      35.131 -22.016 -18.323  0.00  0.00    +0.156 HD
BRANCH   9  15
ATOM     14 CL   UNL     1      38.244 -24.052 -10.950  0.00  0.00    -0.082 Cl
ATOM     15  C   UNL     1      36.650 -22.802 -14.986  0.00  0.00    +0.052 C 
ATOM     16  C   UNL     1      38.349 -23.904 -13.669  0.00  0.00    +0.083 C 
ATOM     17  C   UNL     1      37.848 -23.513 -14.911  0.00  0.00    +0.019 C 
ATOM     18  C   UNL     1      35.953 -22.484 -13.820  0.00  0.00    +0.016 C 
ATOM     19  C   UNL     1      37.653 -23.585 -12.504  0.00  0.00    +0.062 C 
ATOM     20  C   UNL     1      36.455 -22.876 -12.579  0.00  0.00    +0.013 C 
BRANCH  16  24
ATOM     21  F   UNL     1      40.595 -24.069 -12.862  0.00  0.00    -0.166 F 
ATOM     22  F   UNL     1      39.510 -25.927 -13.137  0.00  0.00    -0.166 F 
ATOM     23  F   UNL     1      40.194 -24.803 -14.868  0.00  0.00    -0.166 F 
ATOM     24  C   UNL     1      39.637 -24.662 -13.631  0.00  0.00    +0.419 C 
ENDBRANCH  16  24
ENDBRANCH   9  15
ENDBRANCH   2  10
BRANCH   3  25
ATOM     25  O   UNL     1      35.727 -17.382 -22.157  0.00  0.00    -0.453 OA
BRANCH  25  27
ATOM     26  N   UNL     1      34.473 -13.552 -21.141  0.00  0.00    -0.239 NA
ATOM     27  C   UNL     1      35.310 -16.106 -21.819  0.00  0.00    +0.149 C 
ATOM     28  C   UNL     1      34.989 -15.214 -22.820  0.00  0.00    +0.061 C 
ATOM     29  C   UNL     1      34.575 -13.950 -22.430  0.00  0.00    +0.137 C 
ATOM     30  C   UNL     1      35.225 -15.755 -20.488  0.00  0.00    +0.058 C 
ATOM     31  C   UNL     1      34.802 -14.467 -20.202  0.00  0.00    +0.102 C 
BRANCH  29  34
ATOM     32  O   UNL     1      33.605 -13.286 -24.458  0.00  0.00    -0.268 OA
ATOM     33  N   UNL     1      34.577 -11.629 -23.159  0.00  0.00    -0.298 N 
ATOM     34  C   UNL     1      34.219 -12.956 -23.427  0.00  0.00    +0.264 C 
ATOM     35  C   UNL     1      34.273 -10.525 -24.040  0.00  0.00    +0.111 C 
ATOM     36  H   UNL     1      35.063 -11.437 -22.325  0.00  0.00    +0.150 HD
ENDBRANCH  29  34
ENDBRANCH  25  27
ENDBRANCH   3  25
TORSDOF 6
ENDMDL
MODEL 2
REMARK VINA RESULT:     -12.5      4.627     11.746
REMARK  Name = 11167602
REMARK  6 active torsions:
REMARK  status: ('A' for Active; 'I' for Inactive)
REMARK    1  A    between atoms: C_2  and  N_10
REMARK    2  A    between atoms: C_3  and  O_25
REMARK    3  A    between atoms: N_9  and  C_15
REMARK    4  A    between atoms: C_16  and  C_24
REMARK    5  A    between atoms: O_25  and  C_27
REMARK    6  A    between atoms: C_29  and  C_34
REMARK                            x       y       z     vdW  Elec       q    Type
REMARK                         _______ _______ _______ _____ _____    ______ ____
ROOT
ATOM      1  F   UNL     1      37.187 -20.595 -16.817  0.00  0.00    -0.203 F 
ATOM      2  C   UNL     1      35.258 -21.293 -18.014  0.00  0.00    +0.079 C 
ATOM      3  C   UNL     1      34.464 -22.789 -15.822  0.00  0.00    +0.148 C 
ATOM      4  C   UNL     1      36.048 -21.299 -16.876  0.00  0.00    +0.157 C 
ATOM      5  C   UNL     1      34.079 -22.018 -18.078  0.00  0.00    +0.020 C 
ATOM      6  C   UNL     1      35.648 -22.052 -15.772  0.00  0.00    +0.068 C 
ATOM      7  C   UNL     1      33.680 -22.772 -16.975  0.00  0.00    +0.039 C 
ENDROOT
BRANCH   2  10
ATOM      8  O   UNL     1      33.672 -19.484 -19.783  0.00  0.00    -0.252 OA
ATOM      9  N   UNL     1      35.664 -19.111 -20.958  0.00  0.00    -0.268 N 
ATOM     10  N   UNL     1      35.660 -20.529 -19.135  0.00  0.00    -0.266 N 
ATOM     11  C   UNL     1      34.871 -19.690 -19.938  0.00  0.00    +0.308 C 
ATOM     12  H   UNL     1      36.614 -19.368 -20.958  0.00  0.00    +0.156 HD
ATOM     13  H   UNL     1      36.611 -20.594 -19.382  0.00  0.00    +0.156 HD
BRANCH   9  15
ATOM     14 CL   UNL     1      34.025 -15.383 -25.243  0.00  0.00    -0.082 Cl
ATOM     15  C   UNL     1      35.277 -18.224 -21.963  0.00  0.00    +0.052 C 
ATOM     16  C   UNL     1      34.817 -15.970 -22.702  0.00  0.00    +0.083 C 
ATOM     17  C   UNL     1      35.204 -16.856 -21.696  0.00  0.00    +0.019 C 
ATOM     18  C   UNL     1      34.964 -18.704 -23.234  0.00  0.00    +0.016 C 
ATOM     19  C   UNL     1      34.506 -16.451 -23.973  0.00  0.00    +0.062 C 
ATOM     20  C   UNL     1      34.578 -17.818 -24.240  0.00  0.00    +0.013 C 
BRANCH  16  24
ATOM     21  F   UNL     1      35.523 -13.738 -23.195  0.00  0.00    -0.166 F 
ATOM     22  F   UNL     1      33.496 -13.990 -22.464  0.00  0.00    -0.166 F 
ATOM     23  F   UNL     1      35.178 -14.243 -21.109  0.00  0.00    -0.166 F 
ATOM     24  C   UNL     1      34.754 -14.513 -22.377  0.00  0.00    +0.419 C 
ENDBRANCH  16  24
ENDBRANCH   9  15
ENDBRANCH   2  10
BRANCH   3  25
ATOM     25  O   UNL     1      34.074 -23.524 -14.744  0.00  0.00    -0.453 OA
BRANCH  25  27
ATOM     26  N   UNL     1      36.986 -24.586 -11.976  0.00  0.00    -0.239 NA
ATOM     27  C   UNL     1      35.044 -23.879 -13.822  0.00  0.00    +0.149 C 
ATOM     28  C   UNL     1      36.160 -24.566 -14.248  0.00  0.00    +0.061 C 
ATOM     29  C   UNL     1      37.102 -24.897 -13.287  0.00  0.00    +0.137 C 
ATOM     30  C   UNL     1      34.872 -23.535 -12.498  0.00  0.00    +0.058 C 
ATOM     31  C   UNL     1      35.870 -23.912 -11.615  0.00  0.00    +0.102 C 
BRANCH  29  34
ATOM     32  O   UNL     1      38.262 -26.844 -13.885  0.00  0.00    -0.268 OA
ATOM     33  N   UNL     1      39.488 -24.878 -13.768  0.00  0.00    -0.298 N 
ATOM     34  C   UNL     1      38.305 -25.621 -13.658  0.00  0.00    +0.264 C 
ATOM     35  C   UNL     1      40.759 -25.449 -14.150  0.00  0.00    +0.111 C 
ATOM     36  H   UNL     1      39.451 -23.914 -13.573  0.00  0.00    +0.150 HD
ENDBRANCH  29  34
ENDBRANCH  25  27
ENDBRANCH   3  25
TORSDOF 6
ENDMDL
MODEL 3
REMARK VINA RESULT:     -12.3      1.172      1.589
REMARK  Name = 11167602
REMARK  6 active torsions:
REMARK  status: ('A' for Active; 'I' for Inactive)
REMARK    1  A    between atoms: C_2  and  N_10
REMARK    2  A    between atoms: C_3  and  O_25
REMARK    3  A    between atoms: N_9  and  C_15
REMARK    4  A    between atoms: C_16  and  C_24
REMARK    5  A    between atoms: O_25  and  C_27
REMARK    6  A    between atoms: C_29  and  C_34
REMARK                            x       y       z     vdW  Elec       q    Type
REMARK                         _______ _______ _______ _____ _____    ______ ____
ROOT
ATOM      1  F   UNL     1      37.571 -20.910 -18.955  0.00  0.00    -0.203 F 
ATOM      2  C   UNL     1      35.208 -20.677 -19.014  0.00  0.00    +0.079 C 
ATOM      3  C   UNL     1      35.467 -18.761 -20.997  0.00  0.00    +0.148 C 
ATOM      4  C   UNL     1      36.473 -20.333 -19.463  0.00  0.00    +0.157 C 
ATOM      5  C   UNL     1      34.070 -20.085 -19.537  0.00  0.00    +0.020 C 
ATOM      6  C   UNL     1      36.603 -19.368 -20.461  0.00  0.00    +0.068 C 
ATOM      7  C   UNL     1      34.201 -19.119 -20.534  0.00  0.00    +0.039 C 
ENDROOT
BRANCH   2  10
ATOM      8  O   UNL     1      36.352 -20.774 -16.256  0.00  0.00    -0.252 OA
ATOM      9  N   UNL     1      35.249 -22.827 -16.018  0.00  0.00    -0.268 N 
ATOM     10  N   UNL     1      35.072 -21.657 -18.002  0.00  0.00    -0.266 N 
ATOM     11  C   UNL     1      35.634 -21.656 -16.716  0.00  0.00    +0.308 C 
ATOM     12  H   UNL     1      34.668 -23.447 -16.514  0.00  0.00    +0.156 HD
ATOM     13  H   UNL     1      34.515 -22.437 -18.229  0.00  0.00    +0.156 HD
BRANCH   9  15
ATOM     14 CL   UNL     1      36.631 -24.469 -10.511  0.00  0.00    -0.082 Cl
ATOM     15  C   UNL     1      35.584 -23.217 -14.721  0.00  0.00    +0.052 C 
ATOM     16  C   UNL     1      37.210 -24.053 -13.141  0.00  0.00    +0.083 C 
ATOM     17  C   UNL     1      36.876 -23.663 -14.439  0.00  0.00    +0.019 C 
ATOM     18  C   UNL     1      34.627 -23.162 -13.708  0.00  0.00    +0.016 C 
ATOM     19  C   UNL     1      36.253 -23.997 -12.128  0.00  0.00    +0.062 C 
ATOM     20  C   UNL     1      34.962 -23.552 -12.411  0.00  0.00    +0.013 C 
BRANCH  16  24
ATOM     21  F   UNL     1      39.391 -24.539 -13.993  0.00  0.00    -0.166 F 
ATOM     22  F   UNL     1      39.277 -23.750 -11.976  0.00  0.00    -0.166 F 
ATOM     23  F   UNL     1      38.643 -25.790 -12.381  0.00  0.00    -0.166 F 
ATOM     24  C   UNL     1      38.604 -24.521 -12.879  0.00  0.00    +0.419 C 
ENDBRANCH  16  24
ENDBRANCH   9  15
ENDBRANCH   2  10
BRANCH   3  25
ATOM     25  O   UNL     1      35.594 -17.819 -21.971  0.00  0.00    -0.453 OA
BRANCH  25  27
ATOM     26  N   UNL     1      34.643 -13.893 -20.994  0.00  0.00    -0.239 NA
ATOM     27  C   UNL     1      35.278 -16.510 -21.646  0.00  0.00    +0.149 C 
ATOM     28  C   UNL     1      34.969 -15.622 -22.653  0.00  0.00    +0.061 C 
ATOM     29  C   UNL     1      34.657 -14.324 -22.275  0.00  0.00    +0.137 C 
ATOM     30  C   UNL     1      35.279 -16.127 -20.322  0.00  0.00    +0.058 C 
ATOM     31  C   UNL     1      34.955 -14.808 -20.048  0.00  0.00    +0.102 C 
BRANCH  29  34
ATOM     32  O   UNL     1      33.808 -13.672 -24.360  0.00  0.00    -0.268 OA
ATOM     33  N   UNL     1      34.576 -11.991 -22.960  0.00  0.00    -0.298 N 
ATOM     34  C   UNL     1      34.320 -13.330 -23.279  0.00  0.00    +0.264 C 
ATOM     35  C   UNL     1      34.275 -10.887 -23.842  0.00  0.00    +0.111 C 
ATOM     36  H   UNL     1      34.985 -11.791 -22.087  0.00  0.00    +0.150 HD
ENDBRANCH  29  34
ENDBRANCH  25  27
ENDBRANCH   3  25
TORSDOF 6
ENDMDL
MODEL 4
REMARK VINA RESULT:     -12.2      7.739     13.682
REMARK  Name = 11167602
REMARK  6 active torsions:
REMARK  status: ('A' for Active; 'I' for Inactive)
REMARK    1  A    between atoms: C_2  and  N_10
REMARK    2  A    between atoms: C_3  and  O_25
REMARK    3  A    between atoms: N_9  and  C_15
REMARK    4  A    between atoms: C_16  and  C_24
REMARK    5  A    between atoms: O_25  and  C_27
REMARK    6  A    between atoms: C_29  and  C_34
REMARK                            x       y       z     vdW  Elec       q    Type
REMARK                         _______ _______ _______ _____ _____    ______ ____
ROOT
ATOM      1  F   UNL     1      33.052 -13.315 -24.622  0.00  0.00    -0.203 F 
ATOM      2  C   UNL     1      33.694 -13.327 -22.336  0.00  0.00    +0.079 C 
ATOM      3  C   UNL     1      35.055 -15.703 -22.753  0.00  0.00    +0.148 C 
ATOM      4  C   UNL     1      33.696 -13.894 -23.600  0.00  0.00    +0.157 C 
ATOM      5  C   UNL     1      34.360 -13.922 -21.276  0.00  0.00    +0.020 C 
ATOM      6  C   UNL     1      34.381 -15.091 -23.809  0.00  0.00    +0.068 C 
ATOM      7  C   UNL     1      35.044 -15.119 -21.486  0.00  0.00    +0.039 C 
ENDROOT
BRANCH   2  10
ATOM      8  O   UNL     1      34.363 -10.545 -23.193  0.00  0.00    -0.252 OA
ATOM      9  N   UNL     1      32.389  -9.885 -22.117  0.00  0.00    -0.268 N 
ATOM     10  N   UNL     1      33.000 -12.113 -22.120  0.00  0.00    -0.266 N 
ATOM     11  C   UNL     1      33.359 -10.824 -22.545  0.00  0.00    +0.308 C 
ATOM     12  H   UNL     1      31.635 -10.255 -21.605  0.00  0.00    +0.156 HD
ATOM     13  H   UNL     1      32.163 -12.180 -21.606  0.00  0.00    +0.156 HD
BRANCH   9  15
ATOM     14 CL   UNL     1      32.281  -4.048 -23.042  0.00  0.00    -0.082 Cl
ATOM     15  C   UNL     1      32.361  -8.506 -22.326  0.00  0.00    +0.052 C 
ATOM     16  C   UNL     1      32.087  -6.265 -21.468  0.00  0.00    +0.083 C 
ATOM     17  C   UNL     1      32.114  -7.644 -21.258  0.00  0.00    +0.019 C 
ATOM     18  C   UNL     1      32.579  -7.991 -23.604  0.00  0.00    +0.016 C 
ATOM     19  C   UNL     1      32.306  -5.749 -22.745  0.00  0.00    +0.062 C 
ATOM     20  C   UNL     1      32.552  -6.612 -23.813  0.00  0.00    +0.013 C 
BRANCH  16  24
ATOM     21  F   UNL     1      32.774  -4.414 -20.117  0.00  0.00    -0.166 F 
ATOM     22  F   UNL     1      30.640  -4.698 -20.384  0.00  0.00    -0.166 F 
ATOM     23  F   UNL     1      31.767  -6.064 -19.121  0.00  0.00    -0.166 F 
ATOM     24  C   UNL     1      31.822  -5.375 -20.297  0.00  0.00    +0.419 C 
ENDBRANCH  16  24
ENDBRANCH   9  15
ENDBRANCH   2  10
BRANCH   3  25
ATOM     25  O   UNL     1      35.725 -16.871 -22.958  0.00  0.00    -0.453 OA
BRANCH  25  27
ATOM     26  N   UNL     1      36.197 -19.424 -19.713  0.00  0.00    -0.239 NA
ATOM     27  C   UNL     1      35.881 -17.721 -21.876  0.00  0.00    +0.149 C 
ATOM     28  C   UNL     1      34.789 -18.412 -21.398  0.00  0.00    +0.061 C 
ATOM     29  C   UNL     1      34.998 -19.252 -20.315  0.00  0.00    +0.137 C 
ATOM     30  C   UNL     1      37.127 -17.857 -21.302  0.00  0.00    +0.058 C 
ATOM     31  C   UNL     1      37.232 -18.720 -20.223  0.00  0.00    +0.102 C 
BRANCH  29  34
ATOM     32  O   UNL     1      32.754 -19.924 -20.242  0.00  0.00    -0.268 OA
ATOM     33  N   UNL     1      34.188 -20.856 -18.675  0.00  0.00    -0.298 N 
ATOM     34  C   UNL     1      33.896 -20.014 -19.755  0.00  0.00    +0.264 C 
ATOM     35  C   UNL     1      33.206 -21.694 -18.026  0.00  0.00    +0.111 C 
ATOM     36  H   UNL     1      35.113 -20.878 -18.339  0.00  0.00    +0.150 HD
ENDBRANCH  29  34
ENDBRANCH  25  27
ENDBRANCH   3  25
TORSDOF 6
ENDMDL
MODEL 5
REMARK VINA RESULT:     -12.1      6.145     12.726
REMARK  Name = 11167602
REMARK  6 active torsions:
REMARK  status: ('A' for Active; 'I' for Inactive)
REMARK    1  A    between atoms: C_2  and  N_10
REMARK    2  A    between atoms: C_3  and  O_25
REMARK    3  A    between atoms: N_9  and  C_15
REMARK    4  A    between atoms: C_16  and  C_24
REMARK    5  A    between atoms: O_25  and  C_27
REMARK    6  A    between atoms: C_29  and  C_34
REMARK                            x       y       z     vdW  Elec       q    Type
REMARK                         _______ _______ _______ _____ _____    ______ ____
ROOT
ATOM      1  F   UNL     1      34.594 -16.868 -24.532  0.00  0.00    -0.203 F 
ATOM      2  C   UNL     1      34.976 -15.820 -22.436  0.00  0.00    +0.079 C 
ATOM      3  C   UNL     1      35.717 -18.267 -21.371  0.00  0.00    +0.148 C 
ATOM      4  C   UNL     1      34.960 -16.944 -23.246  0.00  0.00    +0.157 C 
ATOM      5  C   UNL     1      35.356 -15.893 -21.106  0.00  0.00    +0.020 C 
ATOM      6  C   UNL     1      35.334 -18.176 -22.710  0.00  0.00    +0.068 C 
ATOM      7  C   UNL     1      35.728 -17.126 -20.570  0.00  0.00    +0.039 C 
ENDROOT
BRANCH   2  10
ATOM      8  O   UNL     1      34.678 -13.158 -21.114  0.00  0.00    -0.252 OA
ATOM      9  N   UNL     1      34.073 -12.332 -23.221  0.00  0.00    -0.268 N 
ATOM     10  N   UNL     1      34.599 -14.568 -22.978  0.00  0.00    -0.266 N 
ATOM     11  C   UNL     1      34.473 -13.340 -22.310  0.00  0.00    +0.308 C 
ATOM     12  H   UNL     1      33.946 -12.625 -24.152  0.00  0.00    +0.156 HD
ATOM     13  H   UNL     1      34.401 -14.557 -23.942  0.00  0.00    +0.156 HD
BRANCH   9  15
ATOM     14 CL   UNL     1      33.029  -6.612 -22.155  0.00  0.00    -0.082 Cl
ATOM     15  C   UNL     1      33.834 -10.980 -22.974  0.00  0.00    +0.052 C 
ATOM     16  C   UNL     1      34.420  -8.658 -23.298  0.00  0.00    +0.083 C 
ATOM     17  C   UNL     1      34.660 -10.010 -23.545  0.00  0.00    +0.019 C 
ATOM     18  C   UNL     1      32.771 -10.597 -22.156  0.00  0.00    +0.016 C 
ATOM     19  C   UNL     1      33.357  -8.276 -22.481  0.00  0.00    +0.062 C 
ATOM     20  C   UNL     1      32.533  -9.245 -21.910  0.00  0.00    +0.013 C 
BRANCH  16  24
ATOM     21  F   UNL     1      34.660  -6.631 -24.545  0.00  0.00    -0.166 F 
ATOM     22  F   UNL     1      36.171  -7.047 -23.046  0.00  0.00    -0.166 F 
ATOM     23  F   UNL     1      36.125  -8.200 -24.890  0.00  0.00    -0.166 F 
ATOM     24  C   UNL     1      35.325  -7.651 -23.931  0.00  0.00    +0.419 C 
ENDBRANCH  16  24
ENDBRANCH   9  15
ENDBRANCH   2  10
BRANCH   3  25
ATOM     25  O   UNL     1      36.082 -19.469 -20.848  0.00  0.00    -0.453 OA
BRANCH  25  27
ATOM     26  N   UNL     1      33.540 -21.206 -18.057  0.00  0.00    -0.239 NA
ATOM     27  C   UNL     1      35.235 -20.049 -19.918  0.00  0.00    +0.149 C 
ATOM     28  C   UNL     1      35.774 -20.731 -18.848  0.00  0.00    +0.061 C 
ATOM     29  C   UNL     1      34.884 -21.291 -17.945  0.00  0.00    +0.137 C 
ATOM     30  C   UNL     1      33.872 -19.931 -20.083  0.00  0.00    +0.058 C 
ATOM     31  C   UNL     1      33.067 -20.527 -19.126  0.00  0.00    +0.102 C 
BRANCH  29  34
ATOM     32  O   UNL     1      34.709 -22.954 -16.302  0.00  0.00    -0.268 OA
ATOM     33  N   UNL     1      36.627 -21.651 -16.285  0.00  0.00    -0.298 N 
ATOM     34  C   UNL     1      35.376 -22.024 -16.791  0.00  0.00    +0.264 C 
ATOM     35  C   UNL     1      37.260 -22.298 -15.159  0.00  0.00    +0.111 C 
ATOM     36  H   UNL     1      37.101 -20.905 -16.719  0.00  0.00    +0.150 HD
ENDBRANCH  29  34
ENDBRANCH  25  27
ENDBRANCH   3  25
TORSDOF 6
ENDMDL
MODEL 6
REMARK VINA RESULT:     -12.0      1.584      2.069
REMARK  Name = 11167602
REMARK  6 active torsions:
REMARK  status: ('A' for Active; 'I' for Inactive)
REMARK    1  A    between atoms: C_2  and  N_10
REMARK    2  A    between atoms: C_3  and  O_25
REMARK    3  A    between atoms: N_9  and  C_15
REMARK    4  A    between atoms: C_16  and  C_24
REMARK    5  A    between atoms: O_25  and  C_27
REMARK    6  A    between atoms: C_29  and  C_34
REMARK                            x       y       z     vdW  Elec       q    Type
REMARK                         _______ _______ _______ _____ _____    ______ ____
ROOT
ATOM      1  F   UNL     1      33.191 -20.004 -20.093  0.00  0.00    -0.203 F 
ATOM      2  C   UNL     1      35.467 -20.132 -19.431  0.00  0.00    +0.079 C 
ATOM      3  C   UNL     1      36.131 -18.345 -21.440  0.00  0.00    +0.148 C 
ATOM      4  C   UNL     1      34.469 -19.636 -20.253  0.00  0.00    +0.157 C 
ATOM      5  C   UNL     1      36.790 -19.753 -19.592  0.00  0.00    +0.020 C 
ATOM      6  C   UNL     1      34.803 -18.736 -21.265  0.00  0.00    +0.068 C 
ATOM      7  C   UNL     1      37.124 -18.854 -20.605  0.00  0.00    +0.039 C 
ENDROOT
BRANCH   2  10
ATOM      8  O   UNL     1      36.839 -20.709 -16.841  0.00  0.00    -0.252 OA
ATOM      9  N   UNL     1      35.143 -22.276 -16.449  0.00  0.00    -0.268 N 
ATOM     10  N   UNL     1      35.132 -21.045 -18.403  0.00  0.00    -0.266 N 
ATOM     11  C   UNL     1      35.814 -21.279 -17.199  0.00  0.00    +0.308 C 
ATOM     12  H   UNL     1      34.329 -22.646 -16.863  0.00  0.00    +0.156 HD
ATOM     13  H   UNL     1      34.320 -21.582 -18.552  0.00  0.00    +0.156 HD
BRANCH   9  15
ATOM     14 CL   UNL     1      36.540 -24.501 -11.154  0.00  0.00    -0.082 Cl
ATOM     15  C   UNL     1      35.481 -22.804 -15.203  0.00  0.00    +0.052 C 
ATOM     16  C   UNL     1      37.118 -23.781 -13.718  0.00  0.00    +0.083 C 
ATOM     17  C   UNL     1      36.780 -23.254 -14.965  0.00  0.00    +0.019 C 
ATOM     18  C   UNL     1      34.521 -22.881 -14.195  0.00  0.00    +0.016 C 
ATOM     19  C   UNL     1      36.157 -23.856 -12.710  0.00  0.00    +0.062 C 
ATOM     20  C   UNL     1      34.859 -23.407 -12.948  0.00  0.00    +0.013 C 
BRANCH  16  24
ATOM     21  F   UNL     1      38.625 -25.601 -13.348  0.00  0.00    -0.166 F 
ATOM     22  F   UNL     1      39.362 -23.939 -14.532  0.00  0.00    -0.166 F 
ATOM     23  F   UNL     1      39.086 -23.705 -12.387  0.00  0.00    -0.166 F 
ATOM     24  C   UNL     1      38.520 -24.249 -13.503  0.00  0.00    +0.419 C 
ENDBRANCH  16  24
ENDBRANCH   9  15
ENDBRANCH   2  10
BRANCH   3  25
ATOM     25  O   UNL     1      36.457 -17.466 -22.428  0.00  0.00    -0.453 OA
BRANCH  25  27
ATOM     26  N   UNL     1      33.865 -14.295 -23.129  0.00  0.00    -0.239 NA
ATOM     27  C   UNL     1      35.593 -16.410 -22.661  0.00  0.00    +0.149 C 
ATOM     28  C   UNL     1      35.285 -15.550 -21.629  0.00  0.00    +0.061 C 
ATOM     29  C   UNL     1      34.417 -14.508 -21.913  0.00  0.00    +0.137 C 
ATOM     30  C   UNL     1      35.059 -16.242 -23.921  0.00  0.00    +0.058 C 
ATOM     31  C   UNL     1      34.201 -15.170 -24.103  0.00  0.00    +0.102 C 
BRANCH  29  34
ATOM     32  O   UNL     1      34.895 -13.142 -20.069  0.00  0.00    -0.268 OA
ATOM     33  N   UNL     1      32.712 -13.132 -20.853  0.00  0.00    -0.298 N 
ATOM     34  C   UNL     1      34.046 -13.560 -20.877  0.00  0.00    +0.264 C 
ATOM     35  C   UNL     1      32.196 -12.177 -19.900  0.00  0.00    +0.111 C 
ATOM     36  H   UNL     1      32.093 -13.504 -21.521  0.00  0.00    +0.150 HD
ENDBRANCH  29  34
ENDBRANCH  25  27
ENDBRANCH   3  25
TORSDOF 6
ENDMDL
MODEL 7
REMARK VINA RESULT:     -11.7      5.400     10.946
REMARK  Name = 11167602
REMARK  6 active torsions:
REMARK  status: ('A' for Active; 'I' for Inactive)
REMARK    1  A    between atoms: C_2  and  N_10
REMARK    2  A    between atoms: C_3  and  O_25
REMARK    3  A    between atoms: N_9  and  C_15
REMARK    4  A    between atoms: C_16  and  C_24
REMARK    5  A    between atoms: O_25  and  C_27
REMARK    6  A    between atoms: C_29  and  C_34
REMARK                            x       y       z     vdW  Elec       q    Type
REMARK                         _______ _______ _______ _____ _____    ______ ____
ROOT
ATOM      1  F   UNL     1      37.223 -20.560 -17.137  0.00  0.00    -0.203 F 
ATOM      2  C   UNL     1      35.278 -21.271 -18.299  0.00  0.00    +0.079 C 
ATOM      3  C   UNL     1      34.542 -22.785 -16.099  0.00  0.00    +0.148 C 
ATOM      4  C   UNL     1      36.090 -21.275 -17.177  0.00  0.00    +0.157 C 
ATOM      5  C   UNL     1      34.105 -22.007 -18.344  0.00  0.00    +0.020 C 
ATOM      6  C   UNL     1      35.719 -22.037 -16.069  0.00  0.00    +0.068 C 
ATOM      7  C   UNL     1      33.735 -22.770 -17.236  0.00  0.00    +0.039 C 
ENDROOT
BRANCH   2  10
ATOM      8  O   UNL     1      33.703 -19.288 -19.883  0.00  0.00    -0.252 OA
ATOM      9  N   UNL     1      35.623 -19.019 -21.198  0.00  0.00    -0.268 N 
ATOM     10  N   UNL     1      35.650 -20.498 -19.424  0.00  0.00    -0.266 N 
ATOM     11  C   UNL     1      34.868 -19.576 -20.137  0.00  0.00    +0.308 C 
ATOM     12  H   UNL     1      36.548 -19.345 -21.280  0.00  0.00    +0.156 HD
ATOM     13  H   UNL     1      36.572 -20.623 -19.747  0.00  0.00    +0.156 HD
BRANCH   9  15
ATOM     14 CL   UNL     1      33.956 -15.028 -25.227  0.00  0.00    -0.082 Cl
ATOM     15  C   UNL     1      35.230 -18.070 -22.142  0.00  0.00    +0.052 C 
ATOM     16  C   UNL     1      34.744 -15.777 -22.728  0.00  0.00    +0.083 C 
ATOM     17  C   UNL     1      35.138 -16.725 -21.783  0.00  0.00    +0.019 C 
ATOM     18  C   UNL     1      34.928 -18.467 -23.444  0.00  0.00    +0.016 C 
ATOM     19  C   UNL     1      34.444 -16.174 -24.030  0.00  0.00    +0.062 C 
ATOM     20  C   UNL     1      34.535 -17.518 -24.389  0.00  0.00    +0.013 C 
BRANCH  16  24
ATOM     21  F   UNL     1      33.395 -13.839 -22.345  0.00  0.00    -0.166 F 
ATOM     22  F   UNL     1      35.094 -14.131 -21.028  0.00  0.00    -0.166 F 
ATOM     23  F   UNL     1      35.413 -13.525 -23.092  0.00  0.00    -0.166 F 
ATOM     24  C   UNL     1      34.661 -14.346 -22.304  0.00  0.00    +0.419 C 
ENDBRANCH  16  24
ENDBRANCH   9  15
ENDBRANCH   2  10
BRANCH   3  25
ATOM     25  O   UNL     1      34.180 -23.529 -15.018  0.00  0.00    -0.453 OA
BRANCH  25  27
ATOM     26  N   UNL     1      30.420 -22.858 -13.380  0.00  0.00    -0.239 NA
ATOM     27  C   UNL     1      32.927 -23.304 -14.472  0.00  0.00    +0.149 C 
ATOM     28  C   UNL     1      31.911 -22.849 -15.283  0.00  0.00    +0.061 C 
ATOM     29  C   UNL     1      30.675 -22.642 -14.690  0.00  0.00    +0.137 C 
ATOM     30  C   UNL     1      32.725 -23.542 -13.129  0.00  0.00    +0.058 C 
ATOM     31  C   UNL     1      31.455 -23.303 -12.632  0.00  0.00    +0.102 C 
BRANCH  29  34
ATOM     32  O   UNL     1      29.725 -21.775 -16.650  0.00  0.00    -0.268 OA
ATOM     33  N   UNL     1      28.292 -22.184 -14.872  0.00  0.00    -0.298 N 
ATOM     34  C   UNL     1      29.554 -22.163 -15.479  0.00  0.00    +0.264 C 
ATOM     35  C   UNL     1      27.079 -21.763 -15.534  0.00  0.00    +0.111 C 
ATOM     36  H   UNL     1      28.228 -22.502 -13.943  0.00  0.00    +0.150 HD
ENDBRANCH  29  34
ENDBRANCH  25  27
ENDBRANCH   3  25
TORSDOF 6
ENDMDL
MODEL 8
REMARK VINA RESULT:     -11.6      7.071     13.892
REMARK  Name = 11167602
REMARK  6 active torsions:
REMARK  status: ('A' for Active; 'I' for Inactive)
REMARK    1  A    between atoms: C_2  and  N_10
REMARK    2  A    between atoms: C_3  and  O_25
REMARK    3  A    between atoms: N_9  and  C_15
REMARK    4  A    between atoms: C_16  and  C_24
REMARK    5  A    between atoms: O_25  and  C_27
REMARK    6  A    between atoms: C_29  and  C_34
REMARK                            x       y       z     vdW  Elec       q    Type
REMARK                         _______ _______ _______ _____ _____    ______ ____
ROOT
ATOM      1  F   UNL     1      34.323 -13.286 -20.082  0.00  0.00    -0.203 F 
ATOM      2  C   UNL     1      33.537 -13.239 -22.322  0.00  0.00    +0.079 C 
ATOM      3  C   UNL     1      34.916 -15.587 -22.833  0.00  0.00    +0.148 C 
ATOM      4  C   UNL     1      34.270 -13.830 -21.306  0.00  0.00    +0.157 C 
ATOM      5  C   UNL     1      33.478 -13.799 -23.589  0.00  0.00    +0.020 C 
ATOM      6  C   UNL     1      34.964 -15.012 -21.563  0.00  0.00    +0.068 C 
ATOM      7  C   UNL     1      34.173 -14.980 -23.846  0.00  0.00    +0.039 C 
ENDROOT
BRANCH   2  10
ATOM      8  O   UNL     1      34.365 -10.394 -22.699  0.00  0.00    -0.252 OA
ATOM      9  N   UNL     1      32.250  -9.813 -21.873  0.00  0.00    -0.268 N 
ATOM     10  N   UNL     1      32.831 -12.041 -22.064  0.00  0.00    -0.266 N 
ATOM     11  C   UNL     1      33.267 -10.721 -22.259  0.00  0.00    +0.308 C 
ATOM     12  H   UNL     1      31.419 -10.221 -21.538  0.00  0.00    +0.156 HD
ATOM     13  H   UNL     1      31.921 -12.146 -21.703  0.00  0.00    +0.156 HD
BRANCH   9  15
ATOM     14 CL   UNL     1      32.339  -3.904 -21.967  0.00  0.00    -0.082 Cl
ATOM     15  C   UNL     1      32.270  -8.419 -21.905  0.00  0.00    +0.052 C 
ATOM     16  C   UNL     1      32.078  -6.350 -23.139  0.00  0.00    +0.083 C 
ATOM     17  C   UNL     1      32.058  -7.745 -23.108  0.00  0.00    +0.019 C 
ATOM     18  C   UNL     1      32.503  -7.698 -20.734  0.00  0.00    +0.016 C 
ATOM     19  C   UNL     1      32.309  -5.630 -21.967  0.00  0.00    +0.062 C 
ATOM     20  C   UNL     1      32.522  -6.304 -20.765  0.00  0.00    +0.013 C 
BRANCH  16  24
ATOM     21  F   UNL     1      31.097  -4.530 -24.341  0.00  0.00    -0.166 F 
ATOM     22  F   UNL     1      32.993  -5.286 -25.076  0.00  0.00    -0.166 F 
ATOM     23  F   UNL     1      31.181  -6.460 -25.337  0.00  0.00    -0.166 F 
ATOM     24  C   UNL     1      31.843  -5.667 -24.447  0.00  0.00    +0.419 C 
ENDBRANCH  16  24
ENDBRANCH   9  15
ENDBRANCH   2  10
BRANCH   3  25
ATOM     25  O   UNL     1      35.593 -16.741 -23.085  0.00  0.00    -0.453 OA
BRANCH  25  27
ATOM     26  N   UNL     1      36.259 -19.326 -19.900  0.00  0.00    -0.239 NA
ATOM     27  C   UNL     1      35.814 -17.601 -22.023  0.00  0.00    +0.149 C 
ATOM     28  C   UNL     1      34.755 -18.310 -21.498  0.00  0.00    +0.061 C 
ATOM     29  C   UNL     1      35.029 -19.160 -20.437  0.00  0.00    +0.137 C 
ATOM     30  C   UNL     1      37.089 -17.731 -21.515  0.00  0.00    +0.058 C 
ATOM     31  C   UNL     1      37.259 -18.605 -20.454  0.00  0.00    +0.102 C 
BRANCH  29  34
ATOM     32  O   UNL     1      32.795 -19.845 -20.246  0.00  0.00    -0.268 OA
ATOM     33  N   UNL     1      34.324 -20.806 -18.790  0.00  0.00    -0.298 N 
ATOM     34  C   UNL     1      33.965 -19.941 -19.831  0.00  0.00    +0.264 C 
ATOM     35  C   UNL     1      33.386 -21.664 -18.103  0.00  0.00    +0.111 C 
ATOM     36  H   UNL     1      35.267 -20.831 -18.510  0.00  0.00    +0.150 HD
ENDBRANCH  29  34
ENDBRANCH  25  27
ENDBRANCH   3  25
TORSDOF 6
ENDMDL
MODEL 9
REMARK VINA RESULT:     -11.4      3.977      5.147
REMARK  Name = 11167602
REMARK  6 active torsions:
REMARK  status: ('A' for Active; 'I' for Inactive)
REMARK    1  A    between atoms: C_2  and  N_10
REMARK    2  A    between atoms: C_3  and  O_25
REMARK    3  A    between atoms: N_9  and  C_15
REMARK    4  A    between atoms: C_16  and  C_24
REMARK    5  A    between atoms: O_25  and  C_27
REMARK    6  A    between atoms: C_29  and  C_34
REMARK                            x       y       z     vdW  Elec       q    Type
REMARK                         _______ _______ _______ _____ _____    ______ ____
ROOT
ATOM      1  F   UNL     1      37.619 -18.886 -19.524  0.00  0.00    -0.203 F 
ATOM      2  C   UNL     1      35.440 -19.579 -20.167  0.00  0.00    +0.079 C 
ATOM      3  C   UNL     1      35.590 -17.922 -22.382  0.00  0.00    +0.148 C 
ATOM      4  C   UNL     1      36.585 -18.826 -20.375  0.00  0.00    +0.157 C 
ATOM      5  C   UNL     1      34.370 -19.521 -21.045  0.00  0.00    +0.020 C 
ATOM      6  C   UNL     1      36.660 -17.992 -21.490  0.00  0.00    +0.068 C 
ATOM      7  C   UNL     1      34.445 -18.686 -22.159  0.00  0.00    +0.039 C 
ENDROOT
BRANCH   2  10
ATOM      8  O   UNL     1      33.058 -20.557 -18.653  0.00  0.00    -0.252 OA
ATOM      9  N   UNL     1      34.572 -21.700 -17.279  0.00  0.00    -0.268 N 
ATOM     10  N   UNL     1      35.361 -20.427 -19.038  0.00  0.00    -0.266 N 
ATOM     11  C   UNL     1      34.210 -20.859 -18.359  0.00  0.00    +0.308 C 
ATOM     12  H   UNL     1      35.538 -21.855 -17.164  0.00  0.00    +0.156 HD
ATOM     13  H   UNL     1      36.219 -20.755 -18.684  0.00  0.00    +0.156 HD
BRANCH   9  15
ATOM     14 CL   UNL     1      31.090 -24.425 -13.356  0.00  0.00    -0.082 Cl
ATOM     15  C   UNL     1      33.743 -22.339 -16.357  0.00  0.00    +0.052 C 
ATOM     16  C   UNL     1      31.529 -22.840 -15.530  0.00  0.00    +0.083 C 
ATOM     17  C   UNL     1      32.358 -22.201 -16.452  0.00  0.00    +0.019 C 
ATOM     18  C   UNL     1      34.298 -23.115 -15.341  0.00  0.00    +0.016 C 
ATOM     19  C   UNL     1      32.085 -23.617 -14.514  0.00  0.00    +0.062 C 
ATOM     20  C   UNL     1      33.469 -23.755 -14.419  0.00  0.00    +0.013 C 
BRANCH  16  24
ATOM     21  F   UNL     1      29.454 -22.166 -14.549  0.00  0.00    -0.166 F 
ATOM     22  F   UNL     1      29.692 -21.823 -16.677  0.00  0.00    -0.166 F 
ATOM     23  F   UNL     1      29.412 -23.846 -15.928  0.00  0.00    -0.166 F 
ATOM     24  C   UNL     1      30.051 -22.669 -15.668  0.00  0.00    +0.419 C 
ENDBRANCH  16  24
ENDBRANCH   9  15
ENDBRANCH   2  10
BRANCH   3  25
ATOM     25  O   UNL     1      35.664 -17.107 -23.471  0.00  0.00    -0.453 OA
BRANCH  25  27
ATOM     26  N   UNL     1      33.414 -13.614 -23.427  0.00  0.00    -0.239 NA
ATOM     27  C   UNL     1      34.914 -15.944 -23.455  0.00  0.00    +0.149 C 
ATOM     28  C   UNL     1      34.788 -15.238 -22.279  0.00  0.00    +0.061 C 
ATOM     29  C   UNL     1      34.028 -14.079 -22.316  0.00  0.00    +0.137 C 
ATOM     30  C   UNL     1      34.310 -15.517 -24.619  0.00  0.00    +0.058 C 
ATOM     31  C   UNL     1      33.571 -14.347 -24.552  0.00  0.00    +0.102 C 
BRANCH  29  34
ATOM     32  O   UNL     1      34.725 -13.265 -20.231  0.00  0.00    -0.268 OA
ATOM     33  N   UNL     1      32.674 -12.527 -21.021  0.00  0.00    -0.298 N 
ATOM     34  C   UNL     1      33.850 -13.281 -21.116  0.00  0.00    +0.264 C 
ATOM     35  C   UNL     1      32.363 -11.666 -19.903  0.00  0.00    +0.111 C 
ATOM     36  H   UNL     1      32.023 -12.586 -21.757  0.00  0.00    +0.150 HD
ENDBRANCH  29  34
ENDBRANCH  25  27
ENDBRANCH   3  25
TORSDOF 6
ENDMDL
