MODEL 1
REMARK VINA RESULT:     -11.6      0.000      0.000
REMARK  Name = 16122642
REMARK  7 active torsions:
REMARK  status: ('A' for Active; 'I' for Inactive)
REMARK    1  A    between atoms: C_2  and  C_10
REMARK    2  A    between atoms: C_3  and  O_18
REMARK    3  A    between atoms: O_18  and  C_19
REMARK    4  A    between atoms: C_19  and  C_20
REMARK    5  A    between atoms: C_20  and  N_21
REMARK    6  A    between atoms: C_20  and  C_25
REMARK    7  A    between atoms: C_25  and  C_27
REMARK                            x       y       z     vdW  Elec       q    Type
REMARK                         _______ _______ _______ _____ _____    ______ ____
ROOT
ATOM      1  N   UNL     1      31.768 -22.737 -14.903  0.00  0.00    -0.239 NA
ATOM      2  C   UNL     1      34.178 -22.801 -14.938  0.00  0.00    +0.022 C 
ATOM      3  C   UNL     1      32.974 -22.296 -16.951  0.00  0.00    +0.158 C 
ATOM      4  C   UNL     1      34.182 -22.487 -16.288  0.00  0.00    +0.040 C 
ATOM      5  C   UNL     1      32.961 -22.914 -14.292  0.00  0.00    +0.099 C 
ATOM      6  C   UNL     1      31.805 -22.431 -16.219  0.00  0.00    +0.136 C 
ENDROOT
BRANCH   2  10
ATOM      7  N   UNL     1      38.279 -23.641 -10.923  0.00  0.00    -0.280 N 
ATOM      8  N   UNL     1      38.884 -23.582 -12.126  0.00  0.00    -0.173 NA
ATOM      9  C   UNL     1      36.632 -23.329 -12.284  0.00  0.00    +0.032 A 
ATOM     10  C   UNL     1      35.422 -23.005 -14.219  0.00  0.00    +0.002 C 
ATOM     11  C   UNL     1      37.882 -23.388 -13.002  0.00  0.00    +0.102 A 
ATOM     12  C   UNL     1      35.363 -23.142 -12.818  0.00  0.00    +0.003 C 
ATOM     13  C   UNL     1      36.923 -23.494 -10.959  0.00  0.00    +0.053 A 
ATOM     14  C   UNL     1      36.635 -23.056 -14.976  0.00  0.00    +0.002 C 
ATOM     15  C   UNL     1      37.910 -23.249 -14.402  0.00  0.00    +0.021 C 
ATOM     16  C   UNL     1      36.101 -23.533  -9.738  0.00  0.00    +0.051 C 
ATOM     17  H   UNL     1      38.776 -23.777 -10.085  0.00  0.00    +0.189 HD
ENDBRANCH   2  10
BRANCH   3  18
ATOM     18  O   UNL     1      32.942 -21.988 -18.270  0.00  0.00    -0.476 OA
BRANCH  18  19
ATOM     19  C   UNL     1      34.179 -21.630 -18.890  0.00  0.00    +0.184 C 
BRANCH  19  20
ATOM     20  C   UNL     1      33.962 -20.485 -19.887  0.00  0.00    -0.017 C 
BRANCH  20  21
ATOM     21  N   UNL     1      32.741 -19.767 -19.507  0.00  0.00    +0.384 N 
ATOM     22  H   UNL     1      32.384 -20.146 -18.630  0.00  0.00    -0.089 HD
ATOM     23  H   UNL     1      32.039 -19.881 -20.238  0.00  0.00    -0.089 HD
ATOM     24  H   UNL     1      32.952 -18.776 -19.389  0.00  0.00    -0.089 HD
ENDBRANCH  20  21
BRANCH  20  25
ATOM     25  C   UNL     1      35.128 -19.474 -19.915  0.00  0.00    +0.008 C 
BRANCH  25  27
ATOM     26 BR   UNL     1      34.960 -15.468 -24.605  0.00  0.00    -0.049 Br
ATOM     27  C   UNL     1      35.086 -18.495 -21.062  0.00  0.00    -0.024 C 
ATOM     28  C   UNL     1      34.665 -18.927 -22.310  0.00  0.00    -0.004 C 
ATOM     29  C   UNL     1      35.470 -17.182 -20.847  0.00  0.00    -0.004 C 
ATOM     30  C   UNL     1      34.627 -18.021 -23.370  0.00  0.00    +0.006 C 
ATOM     31  C   UNL     1      35.432 -16.276 -21.907  0.00  0.00    +0.006 C 
ATOM     32  C   UNL     1      35.010 -16.695 -23.168  0.00  0.00    +0.035 C 
ENDBRANCH  25  27
ENDBRANCH  20  25
ENDBRANCH  19  20
ENDBRANCH  18  19
ENDBRANCH   3  18
TORSDOF 7
ENDMDL
MODEL 2
REMARK VINA RESULT:     -11.4      5.572     11.994
REMARK  Name = 16122642
REMARK  7 active torsions:
REMARK  status: ('A' for Active; 'I' for Inactive)
REMARK    1  A    between atoms: C_2  and  C_10
REMARK    2  A    between atoms: C_3  and  O_18
REMARK    3  A    between atoms: O_18  and  C_19
REMARK    4  A    between atoms: C_19  and  C_20
REMARK    5  A    between atoms: C_20  and  N_21
REMARK    6  A    between atoms: C_20  and  C_25
REMARK    7  A    between atoms: C_25  and  C_27
REMARK                            x       y       z     vdW  Elec       q    Type
REMARK                         _______ _______ _______ _____ _____    ______ ____
ROOT
ATOM      1  N   UNL     1      33.792 -15.400 -25.161  0.00  0.00    -0.239 NA
ATOM      2  C   UNL     1      33.981 -13.609 -23.557  0.00  0.00    +0.022 C 
ATOM      3  C   UNL     1      35.175 -15.659 -23.195  0.00  0.00    +0.158 C 
ATOM      4  C   UNL     1      34.838 -14.375 -22.780  0.00  0.00    +0.040 C 
ATOM      5  C   UNL     1      33.488 -14.156 -24.726  0.00  0.00    +0.099 C 
ATOM      6  C   UNL     1      34.630 -16.120 -24.383  0.00  0.00    +0.136 C 
ENDROOT
BRANCH   2  10
ATOM      7  N   UNL     1      31.811  -8.939 -20.889  0.00  0.00    -0.280 N 
ATOM      8  N   UNL     1      32.529  -8.514 -21.946  0.00  0.00    -0.173 NA
ATOM      9  C   UNL     1      32.536 -10.778 -21.757  0.00  0.00    +0.032 A 
ATOM     10  C   UNL     1      33.611 -12.266 -23.151  0.00  0.00    +0.002 C 
ATOM     11  C   UNL     1      32.999  -9.639 -22.513  0.00  0.00    +0.102 A 
ATOM     12  C   UNL     1      32.798 -12.118 -22.010  0.00  0.00    +0.003 C 
ATOM     13  C   UNL     1      31.781 -10.293 -20.727  0.00  0.00    +0.053 A 
ATOM     14  C   UNL     1      34.095 -11.171 -23.934  0.00  0.00    +0.002 C 
ATOM     15  C   UNL     1      33.811  -9.817 -23.649  0.00  0.00    +0.021 C 
ATOM     16  C   UNL     1      31.044 -10.932 -19.623  0.00  0.00    +0.051 C 
ATOM     17  H   UNL     1      31.344  -8.322 -20.282  0.00  0.00    +0.189 HD
ENDBRANCH   2  10
BRANCH   3  18
ATOM     18  O   UNL     1      36.009 -16.434 -22.460  0.00  0.00    -0.476 OA
BRANCH  18  19
ATOM     19  C   UNL     1      35.805 -17.847 -22.510  0.00  0.00    +0.184 C 
BRANCH  19  20
ATOM     20  C   UNL     1      35.682 -18.417 -21.091  0.00  0.00    -0.017 C 
BRANCH  20  21
ATOM     21  N   UNL     1      35.658 -17.297 -20.145  0.00  0.00    +0.384 N 
ATOM     22  H   UNL     1      34.706 -16.939 -20.067  0.00  0.00    -0.089 HD
ATOM     23  H   UNL     1      36.273 -16.556 -20.480  0.00  0.00    -0.089 HD
ATOM     24  H   UNL     1      35.977 -17.617 -19.231  0.00  0.00    -0.089 HD
ENDBRANCH  20  21
BRANCH  20  25
ATOM     25  C   UNL     1      34.402 -19.254 -20.883  0.00  0.00    +0.008 C 
BRANCH  25  27
ATOM     26 BR   UNL     1      34.498 -22.900 -15.905  0.00  0.00    -0.049 Br
ATOM     27  C   UNL     1      34.425 -20.147 -19.666  0.00  0.00    -0.024 C 
ATOM     28  C   UNL     1      33.227 -20.577 -19.116  0.00  0.00    -0.004 C 
ATOM     29  C   UNL     1      35.643 -20.518 -19.121  0.00  0.00    -0.004 C 
ATOM     30  C   UNL     1      33.249 -21.401 -17.990  0.00  0.00    +0.006 C 
ATOM     31  C   UNL     1      35.665 -21.342 -17.995  0.00  0.00    +0.006 C 
ATOM     32  C   UNL     1      34.468 -21.784 -17.431  0.00  0.00    +0.035 C 
ENDBRANCH  25  27
ENDBRANCH  20  25
ENDBRANCH  19  20
ENDBRANCH  18  19
ENDBRANCH   3  18
TORSDOF 7
ENDMDL
MODEL 3
REMARK VINA RESULT:     -11.4      0.718      1.971
REMARK  Name = 16122642
REMARK  7 active torsions:
REMARK  status: ('A' for Active; 'I' for Inactive)
REMARK    1  A    between atoms: C_2  and  C_10
REMARK    2  A    between atoms: C_3  and  O_18
REMARK    3  A    between atoms: O_18  and  C_19
REMARK    4  A    between atoms: C_19  and  C_20
REMARK    5  A    between atoms: C_20  and  N_21
REMARK    6  A    between atoms: C_20  and  C_25
REMARK    7  A    between atoms: C_25  and  C_27
REMARK                            x       y       z     vdW  Elec       q    Type
REMARK                         _______ _______ _______ _____ _____    ______ ____
ROOT
ATOM      1  N   UNL     1      31.632 -22.403 -15.184  0.00  0.00    -0.239 NA
ATOM      2  C   UNL     1      33.942 -22.972 -14.791  0.00  0.00    +0.022 C 
ATOM      3  C   UNL     1      33.217 -22.417 -17.010  0.00  0.00    +0.158 C 
ATOM      4  C   UNL     1      34.231 -22.793 -16.135  0.00  0.00    +0.040 C 
ATOM      5  C   UNL     1      32.644 -22.768 -14.365  0.00  0.00    +0.099 C 
ATOM      6  C   UNL     1      31.946 -22.236 -16.488  0.00  0.00    +0.136 C 
ENDROOT
BRANCH   2  10
ATOM      7  N   UNL     1      38.904 -24.534 -12.227  0.00  0.00    -0.280 N 
ATOM      8  N   UNL     1      37.951 -24.470 -11.277  0.00  0.00    -0.173 NA
ATOM      9  C   UNL     1      37.148 -23.948 -13.337  0.00  0.00    +0.032 A 
ATOM     10  C   UNL     1      34.979 -23.364 -13.854  0.00  0.00    +0.002 C 
ATOM     11  C   UNL     1      36.838 -24.105 -11.936  0.00  0.00    +0.102 A 
ATOM     12  C   UNL     1      36.278 -23.581 -14.355  0.00  0.00    +0.003 C 
ATOM     13  C   UNL     1      38.476 -24.229 -13.486  0.00  0.00    +0.053 A 
ATOM     14  C   UNL     1      34.621 -23.506 -12.476  0.00  0.00    +0.002 C 
ATOM     15  C   UNL     1      35.531 -23.881 -11.464  0.00  0.00    +0.021 C 
ATOM     16  C   UNL     1      39.384 -24.248 -14.645  0.00  0.00    +0.051 C 
ATOM     17  H   UNL     1      39.836 -24.781 -12.029  0.00  0.00    +0.189 HD
ENDBRANCH   2  10
BRANCH   3  18
ATOM     18  O   UNL     1      33.466 -22.233 -18.329  0.00  0.00    -0.476 OA
BRANCH  18  19
ATOM     19  C   UNL     1      34.658 -21.527 -18.680  0.00  0.00    +0.184 C 
BRANCH  19  20
ATOM     20  C   UNL     1      34.362 -20.498 -19.778  0.00  0.00    -0.017 C 
BRANCH  20  21
ATOM     21  N   UNL     1      33.055 -19.893 -19.504  0.00  0.00    +0.384 N 
ATOM     22  H   UNL     1      33.187 -18.962 -19.111  0.00  0.00    -0.089 HD
ATOM     23  H   UNL     1      32.545 -20.474 -18.839  0.00  0.00    -0.089 HD
ATOM     24  H   UNL     1      32.524 -19.823 -20.373  0.00  0.00    -0.089 HD
ENDBRANCH  20  21
BRANCH  20  25
ATOM     25  C   UNL     1      35.412 -19.369 -19.850  0.00  0.00    +0.008 C 
BRANCH  25  27
ATOM     26 BR   UNL     1      34.792 -15.587 -24.687  0.00  0.00    -0.049 Br
ATOM     27  C   UNL     1      35.261 -18.443 -21.033  0.00  0.00    -0.024 C 
ATOM     28  C   UNL     1      35.558 -17.098 -20.886  0.00  0.00    -0.004 C 
ATOM     29  C   UNL     1      34.828 -18.957 -22.244  0.00  0.00    -0.004 C 
ATOM     30  C   UNL     1      35.418 -16.243 -21.979  0.00  0.00    +0.006 C 
ATOM     31  C   UNL     1      34.687 -18.102 -23.338  0.00  0.00    +0.006 C 
ATOM     32  C   UNL     1      34.983 -16.746 -23.205  0.00  0.00    +0.035 C 
ENDBRANCH  25  27
ENDBRANCH  20  25
ENDBRANCH  19  20
ENDBRANCH  18  19
ENDBRANCH   3  18
TORSDOF 7
ENDMDL
MODEL 4
REMARK VINA RESULT:     -11.1      5.712      9.424
REMARK  Name = 16122642
REMARK  7 active torsions:
REMARK  status: ('A' for Active; 'I' for Inactive)
REMARK    1  A    between atoms: C_2  and  C_10
REMARK    2  A    between atoms: C_3  and  O_18
REMARK    3  A    between atoms: O_18  and  C_19
REMARK    4  A    between atoms: C_19  and  C_20
REMARK    5  A    between atoms: C_20  and  N_21
REMARK    6  A    between atoms: C_20  and  C_25
REMARK    7  A    between atoms: C_25  and  C_27
REMARK                            x       y       z     vdW  Elec       q    Type
REMARK                         _______ _______ _______ _____ _____    ______ ____
ROOT
ATOM      1  N   UNL     1      33.710 -17.533 -25.114  0.00  0.00    -0.239 NA
ATOM      2  C   UNL     1      34.872 -17.446 -23.003  0.00  0.00    +0.022 C 
ATOM      3  C   UNL     1      34.421 -15.413 -24.196  0.00  0.00    +0.158 C 
ATOM      4  C   UNL     1      34.960 -16.065 -23.092  0.00  0.00    +0.040 C 
ATOM      5  C   UNL     1      34.244 -18.131 -24.026  0.00  0.00    +0.099 C 
ATOM      6  C   UNL     1      33.811 -16.187 -25.171  0.00  0.00    +0.136 C 
ENDROOT
BRANCH   2  10
ATOM      7  N   UNL     1      35.744 -20.797 -18.351  0.00  0.00    -0.280 N 
ATOM      8  N   UNL     1      36.907 -20.179 -18.639  0.00  0.00    -0.173 NA
ATOM      9  C   UNL     1      35.249 -19.607 -20.083  0.00  0.00    +0.032 A 
ATOM     10  C   UNL     1      35.424 -18.153 -21.863  0.00  0.00    +0.002 C 
ATOM     11  C   UNL     1      36.633 -19.426 -19.719  0.00  0.00    +0.102 A 
ATOM     12  C   UNL     1      34.571 -19.009 -21.138  0.00  0.00    +0.003 C 
ATOM     13  C   UNL     1      34.712 -20.489 -19.188  0.00  0.00    +0.053 A 
ATOM     14  C   UNL     1      36.802 -17.940 -21.543  0.00  0.00    +0.002 C 
ATOM     15  C   UNL     1      37.462 -18.564 -20.462  0.00  0.00    +0.021 C 
ATOM     16  C   UNL     1      33.370 -21.073 -19.022  0.00  0.00    +0.051 C 
ATOM     17  H   UNL     1      35.647 -21.420 -17.596  0.00  0.00    +0.189 HD
ENDBRANCH   2  10
BRANCH   3  18
ATOM     18  O   UNL     1      34.489 -14.065 -24.314  0.00  0.00    -0.476 OA
BRANCH  18  19
ATOM     19  C   UNL     1      33.337 -13.313 -23.927  0.00  0.00    +0.184 C 
BRANCH  19  20
ATOM     20  C   UNL     1      33.736 -12.184 -22.969  0.00  0.00    -0.017 C 
BRANCH  20  21
ATOM     21  N   UNL     1      34.825 -12.666 -22.116  0.00  0.00    +0.384 N 
ATOM     22  H   UNL     1      35.557 -11.959 -22.067  0.00  0.00    -0.089 HD
ATOM     23  H   UNL     1      35.209 -13.526 -22.508  0.00  0.00    -0.089 HD
ATOM     24  H   UNL     1      34.467 -12.850 -21.178  0.00  0.00    -0.089 HD
ENDBRANCH  20  21
BRANCH  20  25
ATOM     25  C   UNL     1      34.219 -10.912 -23.698  0.00  0.00    +0.008 C 
BRANCH  25  27
ATOM     26 BR   UNL     1      32.383  -5.611 -21.128  0.00  0.00    -0.049 Br
ATOM     27  C   UNL     1      33.770  -9.616 -23.069  0.00  0.00    -0.024 C 
ATOM     28  C   UNL     1      32.602  -9.591 -22.324  0.00  0.00    -0.004 C 
ATOM     29  C   UNL     1      34.534  -8.475 -23.248  0.00  0.00    -0.004 C 
ATOM     30  C   UNL     1      32.187  -8.393 -21.743  0.00  0.00    +0.006 C 
ATOM     31  C   UNL     1      34.119  -7.276 -22.668  0.00  0.00    +0.006 C 
ATOM     32  C   UNL     1      32.946  -7.236 -21.915  0.00  0.00    +0.035 C 
ENDBRANCH  25  27
ENDBRANCH  20  25
ENDBRANCH  19  20
ENDBRANCH  18  19
ENDBRANCH   3  18
TORSDOF 7
ENDMDL
MODEL 5
REMARK VINA RESULT:     -11.1      6.299     12.920
REMARK  Name = 16122642
REMARK  7 active torsions:
REMARK  status: ('A' for Active; 'I' for Inactive)
REMARK    1  A    between atoms: C_2  and  C_10
REMARK    2  A    between atoms: C_3  and  O_18
REMARK    3  A    between atoms: O_18  and  C_19
REMARK    4  A    between atoms: C_19  and  C_20
REMARK    5  A    between atoms: C_20  and  N_21
REMARK    6  A    between atoms: C_20  and  C_25
REMARK    7  A    between atoms: C_25  and  C_27
REMARK                            x       y       z     vdW  Elec       q    Type
REMARK                         _______ _______ _______ _____ _____    ______ ____
ROOT
ATOM      1  N   UNL     1      33.947 -14.257 -24.941  0.00  0.00    -0.239 NA
ATOM      2  C   UNL     1      33.962 -12.517 -23.271  0.00  0.00    +0.022 C 
ATOM      3  C   UNL     1      34.935 -14.653 -22.771  0.00  0.00    +0.158 C 
ATOM      4  C   UNL     1      34.614 -13.357 -22.381  0.00  0.00    +0.040 C 
ATOM      5  C   UNL     1      33.653 -13.004 -24.527  0.00  0.00    +0.099 C 
ATOM      6  C   UNL     1      34.583 -15.050 -24.051  0.00  0.00    +0.136 C 
ENDROOT
BRANCH   2  10
ATOM      7  N   UNL     1      33.577  -6.756 -22.733  0.00  0.00    -0.280 N 
ATOM      8  N   UNL     1      32.692  -7.310 -21.882  0.00  0.00    -0.173 NA
ATOM      9  C   UNL     1      33.848  -8.873 -23.057  0.00  0.00    +0.032 A 
ATOM     10  C   UNL     1      33.615 -11.160 -22.893  0.00  0.00    +0.002 C 
ATOM     11  C   UNL     1      32.834  -8.635 -22.058  0.00  0.00    +0.102 A 
ATOM     12  C   UNL     1      34.294 -10.101 -23.529  0.00  0.00    +0.003 C 
ATOM     13  C   UNL     1      34.301  -7.650 -23.467  0.00  0.00    +0.053 A 
ATOM     14  C   UNL     1      32.604 -10.978 -21.898  0.00  0.00    +0.002 C 
ATOM     15  C   UNL     1      32.173  -9.713 -21.441  0.00  0.00    +0.021 C 
ATOM     16  C   UNL     1      35.312  -7.220 -24.447  0.00  0.00    +0.051 C 
ATOM     17  H   UNL     1      33.693  -5.783 -22.819  0.00  0.00    +0.189 HD
ENDBRANCH   2  10
BRANCH   3  18
ATOM     18  O   UNL     1      35.571 -15.500 -21.925  0.00  0.00    -0.476 OA
BRANCH  18  19
ATOM     19  C   UNL     1      35.879 -16.807 -22.415  0.00  0.00    +0.184 C 
BRANCH  19  20
ATOM     20  C   UNL     1      35.865 -17.822 -21.265  0.00  0.00    -0.017 C 
BRANCH  20  21
ATOM     21  N   UNL     1      35.583 -17.104 -20.019  0.00  0.00    +0.384 N 
ATOM     22  H   UNL     1      34.597 -16.848 -19.989  0.00  0.00    -0.089 HD
ATOM     23  H   UNL     1      36.154 -16.260 -19.977  0.00  0.00    -0.089 HD
ATOM     24  H   UNL     1      35.803 -17.703 -19.224  0.00  0.00    -0.089 HD
ENDBRANCH  20  21
BRANCH  20  25
ATOM     25  C   UNL     1      34.797 -18.923 -21.441  0.00  0.00    +0.008 C 
BRANCH  25  27
ATOM     26 BR   UNL     1      34.025 -22.576 -16.528  0.00  0.00    -0.049 Br
ATOM     27  C   UNL     1      34.609 -19.816 -20.239  0.00  0.00    -0.024 C 
ATOM     28  C   UNL     1      35.721 -20.359 -19.615  0.00  0.00    -0.004 C 
ATOM     29  C   UNL     1      33.328 -20.076 -19.782  0.00  0.00    -0.004 C 
ATOM     30  C   UNL     1      35.546 -21.185 -18.504  0.00  0.00    +0.006 C 
ATOM     31  C   UNL     1      33.153 -20.902 -18.672  0.00  0.00    +0.006 C 
ATOM     32  C   UNL     1      34.262 -21.456 -18.033  0.00  0.00    +0.035 C 
ENDBRANCH  25  27
ENDBRANCH  20  25
ENDBRANCH  19  20
ENDBRANCH  18  19
ENDBRANCH   3  18
TORSDOF 7
ENDMDL
MODEL 6
REMARK VINA RESULT:     -11.1      1.792      2.745
REMARK  Name = 16122642
REMARK  7 active torsions:
REMARK  status: ('A' for Active; 'I' for Inactive)
REMARK    1  A    between atoms: C_2  and  C_10
REMARK    2  A    between atoms: C_3  and  O_18
REMARK    3  A    between atoms: O_18  and  C_19
REMARK    4  A    between atoms: C_19  and  C_20
REMARK    5  A    between atoms: C_20  and  N_21
REMARK    6  A    between atoms: C_20  and  C_25
REMARK    7  A    between atoms: C_25  and  C_27
REMARK                            x       y       z     vdW  Elec       q    Type
REMARK                         _______ _______ _______ _____ _____    ______ ____
ROOT
ATOM      1  N   UNL     1      32.735 -22.299 -17.269  0.00  0.00    -0.239 NA
ATOM      2  C   UNL     1      34.632 -22.650 -15.821  0.00  0.00    +0.022 C 
ATOM      3  C   UNL     1      34.913 -21.443 -17.876  0.00  0.00    +0.158 C 
ATOM      4  C   UNL     1      35.452 -21.965 -16.705  0.00  0.00    +0.040 C 
ATOM      5  C   UNL     1      33.295 -22.791 -16.140  0.00  0.00    +0.099 C 
ATOM      6  C   UNL     1      33.560 -21.636 -18.109  0.00  0.00    +0.136 C 
ENDROOT
BRANCH   2  10
ATOM      7  N   UNL     1      37.922 -25.099 -11.721  0.00  0.00    -0.280 N 
ATOM      8  N   UNL     1      36.736 -24.784 -11.165  0.00  0.00    -0.173 NA
ATOM      9  C   UNL     1      36.835 -24.211 -13.361  0.00  0.00    +0.032 A 
ATOM     10  C   UNL     1      35.165 -23.205 -14.591  0.00  0.00    +0.002 C 
ATOM     11  C   UNL     1      36.029 -24.225 -12.164  0.00  0.00    +0.102 A 
ATOM     12  C   UNL     1      36.477 -23.719 -14.610  0.00  0.00    +0.003 C 
ATOM     13  C   UNL     1      38.037 -24.776 -13.042  0.00  0.00    +0.053 A 
ATOM     14  C   UNL     1      34.327 -23.197 -13.432  0.00  0.00    +0.002 C 
ATOM     15  C   UNL     1      34.722 -23.704 -12.175  0.00  0.00    +0.021 C 
ATOM     16  C   UNL     1      39.265 -25.047 -13.808  0.00  0.00    +0.051 C 
ATOM     17  H   UNL     1      38.648 -25.529 -11.215  0.00  0.00    +0.189 HD
ENDBRANCH   2  10
BRANCH   3  18
ATOM     18  O   UNL     1      35.686 -20.768 -18.761  0.00  0.00    -0.476 OA
BRANCH  18  19
ATOM     19  C   UNL     1      35.018 -20.047 -19.799  0.00  0.00    +0.184 C 
BRANCH  19  20
ATOM     20  C   UNL     1      35.782 -18.759 -20.128  0.00  0.00    -0.017 C 
BRANCH  20  21
ATOM     21  N   UNL     1      37.188 -18.950 -19.761  0.00  0.00    +0.384 N 
ATOM     22  H   UNL     1      37.248 -19.253 -18.790  0.00  0.00    -0.089 HD
ATOM     23  H   UNL     1      37.691 -18.070 -19.874  0.00  0.00    -0.089 HD
ATOM     24  H   UNL     1      37.604 -19.659 -20.365  0.00  0.00    -0.089 HD
ENDBRANCH  20  21
BRANCH  20  25
ATOM     25  C   UNL     1      35.719 -18.380 -21.623  0.00  0.00    +0.008 C 
BRANCH  25  27
ATOM     26 BR   UNL     1      34.223 -12.497 -22.731  0.00  0.00    -0.049 Br
ATOM     27  C   UNL     1      35.353 -16.941 -21.893  0.00  0.00    -0.024 C 
ATOM     28  C   UNL     1      35.280 -16.048 -20.836  0.00  0.00    -0.004 C 
ATOM     29  C   UNL     1      35.098 -16.540 -23.194  0.00  0.00    -0.004 C 
ATOM     30  C   UNL     1      34.941 -14.718 -21.087  0.00  0.00    +0.006 C 
ATOM     31  C   UNL     1      34.759 -15.210 -23.445  0.00  0.00    +0.006 C 
ATOM     32  C   UNL     1      34.682 -14.299 -22.391  0.00  0.00    +0.035 C 
ENDBRANCH  25  27
ENDBRANCH  20  25
ENDBRANCH  19  20
ENDBRANCH  18  19
ENDBRANCH   3  18
TORSDOF 7
ENDMDL
MODEL 7
REMARK VINA RESULT:     -11.0      8.275     13.890
REMARK  Name = 16122642
REMARK  7 active torsions:
REMARK  status: ('A' for Active; 'I' for Inactive)
REMARK    1  A    between atoms: C_2  and  C_10
REMARK    2  A    between atoms: C_3  and  O_18
REMARK    3  A    between atoms: O_18  and  C_19
REMARK    4  A    between atoms: C_19  and  C_20
REMARK    5  A    between atoms: C_20  and  N_21
REMARK    6  A    between atoms: C_20  and  C_25
REMARK    7  A    between atoms: C_25  and  C_27
REMARK                            x       y       z     vdW  Elec       q    Type
REMARK                         _______ _______ _______ _____ _____    ______ ____
ROOT
ATOM      1  N   UNL     1      31.637 -11.898 -20.126  0.00  0.00    -0.239 NA
ATOM      2  C   UNL     1      32.226  -9.883 -21.313  0.00  0.00    +0.022 C 
ATOM      3  C   UNL     1      33.216 -11.972 -21.955  0.00  0.00    +0.158 C 
ATOM      4  C   UNL     1      33.082 -10.600 -22.136  0.00  0.00    +0.040 C 
ATOM      5  C   UNL     1      31.531 -10.566 -20.333  0.00  0.00    +0.099 C 
ATOM      6  C   UNL     1      32.478 -12.568 -20.945  0.00  0.00    +0.136 C 
ENDROOT
BRANCH   2  10
ATOM      7  N   UNL     1      31.914  -4.139 -20.577  0.00  0.00    -0.280 N 
ATOM      8  N   UNL     1      31.625  -4.406 -21.865  0.00  0.00    -0.173 NA
ATOM      9  C   UNL     1      32.073  -6.289 -20.677  0.00  0.00    +0.032 A 
ATOM     10  C   UNL     1      32.064  -8.450 -21.479  0.00  0.00    +0.002 C 
ATOM     11  C   UNL     1      31.715  -5.744 -21.964  0.00  0.00    +0.102 A 
ATOM     12  C   UNL     1      32.266  -7.626 -20.354  0.00  0.00    +0.003 C 
ATOM     13  C   UNL     1      32.193  -5.236 -19.815  0.00  0.00    +0.053 A 
ATOM     14  C   UNL     1      31.708  -7.960 -22.774  0.00  0.00    +0.002 C 
ATOM     15  C   UNL     1      31.520  -6.592 -23.070  0.00  0.00    +0.021 C 
ATOM     16  C   UNL     1      32.531  -5.128 -18.386  0.00  0.00    +0.051 C 
ATOM     17  H   UNL     1      31.923  -3.225 -20.214  0.00  0.00    +0.189 HD
ENDBRANCH   2  10
BRANCH   3  18
ATOM     18  O   UNL     1      34.043 -12.703 -22.742  0.00  0.00    -0.476 OA
BRANCH  18  19
ATOM     19  C   UNL     1      33.515 -13.183 -23.980  0.00  0.00    +0.184 C 
BRANCH  19  20
ATOM     20  C   UNL     1      33.665 -14.708 -24.066  0.00  0.00    -0.017 C 
BRANCH  20  21
ATOM     21  N   UNL     1      33.335 -15.127 -25.431  0.00  0.00    +0.384 N 
ATOM     22  H   UNL     1      32.420 -15.577 -25.436  0.00  0.00    -0.089 HD
ATOM     23  H   UNL     1      34.039 -15.785 -25.764  0.00  0.00    -0.089 HD
ATOM     24  H   UNL     1      33.316 -14.311 -26.043  0.00  0.00    -0.089 HD
ENDBRANCH  20  21
BRANCH  20  25
ATOM     25  C   UNL     1      35.093 -15.196 -23.742  0.00  0.00    +0.008 C 
BRANCH  25  27
ATOM     26 BR   UNL     1      35.361 -19.936 -19.801  0.00  0.00    -0.049 Br
ATOM     27  C   UNL     1      35.158 -16.355 -22.777  0.00  0.00    -0.024 C 
ATOM     28  C   UNL     1      35.496 -16.120 -21.454  0.00  0.00    -0.004 C 
ATOM     29  C   UNL     1      34.879 -17.633 -23.233  0.00  0.00    -0.004 C 
ATOM     30  C   UNL     1      35.557 -17.192 -20.563  0.00  0.00    +0.006 C 
ATOM     31  C   UNL     1      34.940 -18.705 -22.343  0.00  0.00    +0.006 C 
ATOM     32  C   UNL     1      35.278 -18.484 -21.008  0.00  0.00    +0.035 C 
ENDBRANCH  25  27
ENDBRANCH  20  25
ENDBRANCH  19  20
ENDBRANCH  18  19
ENDBRANCH   3  18
TORSDOF 7
ENDMDL
MODEL 8
REMARK VINA RESULT:     -11.0      3.805      9.678
REMARK  Name = 16122642
REMARK  7 active torsions:
REMARK  status: ('A' for Active; 'I' for Inactive)
REMARK    1  A    between atoms: C_2  and  C_10
REMARK    2  A    between atoms: C_3  and  O_18
REMARK    3  A    between atoms: O_18  and  C_19
REMARK    4  A    between atoms: C_19  and  C_20
REMARK    5  A    between atoms: C_20  and  N_21
REMARK    6  A    between atoms: C_20  and  C_25
REMARK    7  A    between atoms: C_25  and  C_27
REMARK                            x       y       z     vdW  Elec       q    Type
REMARK                         _______ _______ _______ _____ _____    ______ ____
ROOT
ATOM      1  N   UNL     1      36.743 -20.565 -18.502  0.00  0.00    -0.239 NA
ATOM      2  C   UNL     1      35.346 -19.364 -20.057  0.00  0.00    +0.022 C 
ATOM      3  C   UNL     1      34.395 -21.101 -18.703  0.00  0.00    +0.158 C 
ATOM      4  C   UNL     1      34.247 -20.118 -19.676  0.00  0.00    +0.040 C 
ATOM      5  C   UNL     1      36.561 -19.618 -19.450  0.00  0.00    +0.099 C 
ATOM      6  C   UNL     1      35.653 -21.283 -18.152  0.00  0.00    +0.136 C 
ENDROOT
BRANCH   2  10
ATOM      7  N   UNL     1      34.879 -14.364 -22.959  0.00  0.00    -0.280 N 
ATOM      8  N   UNL     1      34.875 -15.366 -23.860  0.00  0.00    -0.173 NA
ATOM      9  C   UNL     1      35.057 -16.128 -21.727  0.00  0.00    +0.032 A 
ATOM     10  C   UNL     1      35.223 -18.331 -21.069  0.00  0.00    +0.002 C 
ATOM     11  C   UNL     1      34.986 -16.486 -23.123  0.00  0.00    +0.102 A 
ATOM     12  C   UNL     1      35.176 -16.988 -20.643  0.00  0.00    +0.003 C 
ATOM     13  C   UNL     1      34.986 -14.765 -21.659  0.00  0.00    +0.053 A 
ATOM     14  C   UNL     1      35.156 -18.737 -22.439  0.00  0.00    +0.002 C 
ATOM     15  C   UNL     1      35.035 -17.836 -23.519  0.00  0.00    +0.021 C 
ATOM     16  C   UNL     1      35.007 -13.804 -20.544  0.00  0.00    +0.051 C 
ATOM     17  H   UNL     1      34.809 -13.418 -23.218  0.00  0.00    +0.189 HD
ENDBRANCH   2  10
BRANCH   3  18
ATOM     18  O   UNL     1      33.341 -21.856 -18.307  0.00  0.00    -0.476 OA
BRANCH  18  19
ATOM     19  C   UNL     1      33.580 -22.832 -17.290  0.00  0.00    +0.184 C 
BRANCH  19  20
ATOM     20  C   UNL     1      33.038 -22.338 -15.942  0.00  0.00    -0.017 C 
BRANCH  20  21
ATOM     21  N   UNL     1      31.575 -22.300 -16.019  0.00  0.00    +0.384 N 
ATOM     22  H   UNL     1      31.196 -21.985 -15.126  0.00  0.00    -0.089 HD
ATOM     23  H   UNL     1      31.221 -23.234 -16.228  0.00  0.00    -0.089 HD
ATOM     24  H   UNL     1      31.290 -21.655 -16.756  0.00  0.00    -0.089 HD
ENDBRANCH  20  21
BRANCH  20  25
ATOM     25  C   UNL     1      33.438 -23.245 -14.759  0.00  0.00    +0.008 C 
BRANCH  25  27
ATOM     26 BR   UNL     1      39.499 -24.278 -14.240  0.00  0.00    -0.049 Br
ATOM     27  C   UNL     1      34.921 -23.496 -14.631  0.00  0.00    -0.024 C 
ATOM     28  C   UNL     1      35.791 -22.419 -14.570  0.00  0.00    -0.004 C 
ATOM     29  C   UNL     1      35.384 -24.801 -14.578  0.00  0.00    -0.004 C 
ATOM     30  C   UNL     1      37.161 -22.653 -14.453  0.00  0.00    +0.006 C 
ATOM     31  C   UNL     1      36.754 -25.035 -14.461  0.00  0.00    +0.006 C 
ATOM     32  C   UNL     1      37.642 -23.961 -14.398  0.00  0.00    +0.035 C 
ENDBRANCH  25  27
ENDBRANCH  20  25
ENDBRANCH  19  20
ENDBRANCH  18  19
ENDBRANCH   3  18
TORSDOF 7
ENDMDL
MODEL 9
REMARK VINA RESULT:     -10.9      2.522      4.319
REMARK  Name = 16122642
REMARK  7 active torsions:
REMARK  status: ('A' for Active; 'I' for Inactive)
REMARK    1  A    between atoms: C_2  and  C_10
REMARK    2  A    between atoms: C_3  and  O_18
REMARK    3  A    between atoms: O_18  and  C_19
REMARK    4  A    between atoms: C_19  and  C_20
REMARK    5  A    between atoms: C_20  and  N_21
REMARK    6  A    between atoms: C_20  and  C_25
REMARK    7  A    between atoms: C_25  and  C_27
REMARK                            x       y       z     vdW  Elec       q    Type
REMARK                         _______ _______ _______ _____ _____    ______ ____
ROOT
ATOM      1  N   UNL     1      37.237 -21.254 -16.565  0.00  0.00    -0.239 NA
ATOM      2  C   UNL     1      35.035 -22.116 -16.096  0.00  0.00    +0.022 C 
ATOM      3  C   UNL     1      35.529 -21.243 -18.276  0.00  0.00    +0.158 C 
ATOM      4  C   UNL     1      34.628 -21.823 -17.389  0.00  0.00    +0.040 C 
ATOM      5  C   UNL     1      36.334 -21.819 -15.732  0.00  0.00    +0.099 C 
ATOM      6  C   UNL     1      36.811 -20.981 -17.818  0.00  0.00    +0.136 C 
ENDROOT
BRANCH   2  10
ATOM      7  N   UNL     1      30.404 -24.255 -13.336  0.00  0.00    -0.280 N 
ATOM      8  N   UNL     1      31.474 -24.416 -12.533  0.00  0.00    -0.173 NA
ATOM      9  C   UNL     1      32.017 -23.417 -14.500  0.00  0.00    +0.032 A 
ATOM     10  C   UNL     1      34.117 -22.723 -15.149  0.00  0.00    +0.002 C 
ATOM     11  C   UNL     1      32.503 -23.903 -13.231  0.00  0.00    +0.102 A 
ATOM     12  C   UNL     1      32.759 -22.817 -15.510  0.00  0.00    +0.003 C 
ATOM     13  C   UNL     1      30.673 -23.658 -14.533  0.00  0.00    +0.053 A 
ATOM     14  C   UNL     1      34.648 -23.188 -13.905  0.00  0.00    +0.002 C 
ATOM     15  C   UNL     1      33.866 -23.796 -12.898  0.00  0.00    +0.021 C 
ATOM     16  C   UNL     1      29.622 -23.404 -15.533  0.00  0.00    +0.051 C 
ATOM     17  H   UNL     1      29.499 -24.543 -13.079  0.00  0.00    +0.189 HD
ENDBRANCH   2  10
BRANCH   3  18
ATOM     18  O   UNL     1      35.165 -20.944 -19.546  0.00  0.00    -0.476 OA
BRANCH  18  19
ATOM     19  C   UNL     1      36.079 -20.169 -20.325  0.00  0.00    +0.184 C 
BRANCH  19  20
ATOM     20  C   UNL     1      35.380 -18.921 -20.880  0.00  0.00    -0.017 C 
BRANCH  20  21
ATOM     21  N   UNL     1      33.932 -19.113 -20.764  0.00  0.00    +0.384 N 
ATOM     22  H   UNL     1      33.713 -19.497 -19.845  0.00  0.00    -0.089 HD
ATOM     23  H   UNL     1      33.616 -19.760 -21.486  0.00  0.00    -0.089 HD
ATOM     24  H   UNL     1      33.459 -18.217 -20.879  0.00  0.00    -0.089 HD
ENDBRANCH  20  21
BRANCH  20  25
ATOM     25  C   UNL     1      35.758 -17.628 -20.126  0.00  0.00    +0.008 C 
BRANCH  25  27
ATOM     26 BR   UNL     1      34.240 -12.405 -23.039  0.00  0.00    -0.049 Br
ATOM     27  C   UNL     1      35.386 -16.351 -20.839  0.00  0.00    -0.024 C 
ATOM     28  C   UNL     1      35.480 -16.292 -22.221  0.00  0.00    -0.004 C 
ATOM     29  C   UNL     1      34.960 -15.261 -20.099  0.00  0.00    -0.004 C 
ATOM     30  C   UNL     1      35.137 -15.112 -22.879  0.00  0.00    +0.006 C 
ATOM     31  C   UNL     1      34.617 -14.080 -20.757  0.00  0.00    +0.006 C 
ATOM     32  C   UNL     1      34.704 -14.006 -22.147  0.00  0.00    +0.035 C 
ENDBRANCH  25  27
ENDBRANCH  20  25
ENDBRANCH  19  20
ENDBRANCH  18  19
ENDBRANCH   3  18
TORSDOF 7
ENDMDL
