MODEL 1
REMARK VINA RESULT:     -13.1      0.000      0.000
REMARK  Name = 448384
REMARK  11 active torsions:
REMARK  status: ('A' for Active; 'I' for Inactive)
REMARK    1  A    between atoms: C_1  and  C_3
REMARK    2  A    between atoms: C_1  and  C_6
REMARK    3  A    between atoms: C_1  and  C_19
REMARK    4  A    between atoms: C_3  and  O_4
REMARK    5  A    between atoms: C_6  and  C_7
REMARK    6  A    between atoms: C_7  and  N_10
REMARK    7  A    between atoms: C_19  and  C_21
REMARK    8  A    between atoms: C_21  and  C_22
REMARK    9  A    between atoms: C_25  and  C_28
REMARK   10  A    between atoms: C_33  and  O_34
REMARK   11  A    between atoms: O_34  and  C_35
REMARK                            x       y       z     vdW  Elec       q    Type
REMARK                         _______ _______ _______ _____ _____    ______ ____
ROOT
ATOM      1  C   UNL     1      33.093 -22.612 -15.340  0.00  0.00    +0.108 C 
ENDROOT
BRANCH   1   3
ATOM      2  O   UNL     1      30.883 -22.532 -14.325  0.00  0.00    -0.250 OA
ATOM      3  C   UNL     1      31.585 -22.404 -15.320  0.00  0.00    +0.314 C 
BRANCH   3   4
ATOM      4  O   UNL     1      31.086 -22.053 -16.532  0.00  0.00    -0.480 OA
ATOM      5  H   UNL     1      30.314 -22.471 -16.859  0.00  0.00    +0.295 HD
ENDBRANCH   3   4
ENDBRANCH   1   3
BRANCH   1   6
ATOM      6  C   UNL     1      33.472 -23.839 -14.486  0.00  0.00    +0.034 C 
BRANCH   6   7
ATOM      7  C   UNL     1      34.272 -23.495 -13.229  0.00  0.00    +0.102 C 
BRANCH   7  10
ATOM      8  O   UNL     1      36.585 -22.512 -11.627  0.00  0.00    -0.269 OA
ATOM      9  O   UNL     1      35.582 -25.443 -15.072  0.00  0.00    -0.269 OA
ATOM     10  N   UNL     1      35.655 -23.866 -13.319  0.00  0.00    -0.223 N 
ATOM     11  C   UNL     1      36.656 -23.343 -12.514  0.00  0.00    +0.255 C 
ATOM     12  C   UNL     1      36.157 -24.794 -14.220  0.00  0.00    +0.255 C 
ATOM     13  C   UNL     1      37.896 -23.996 -12.930  0.00  0.00    +0.058 C 
ATOM     14  C   UNL     1      37.595 -24.874 -13.961  0.00  0.00    +0.058 C 
ATOM     15  C   UNL     1      39.183 -23.843 -12.455  0.00  0.00    +0.005 C 
ATOM     16  C   UNL     1      38.563 -25.644 -14.571  0.00  0.00    +0.005 C 
ATOM     17  C   UNL     1      40.180 -24.613 -13.058  0.00  0.00    +0.000 C 
ATOM     18  C   UNL     1      39.874 -25.505 -14.106  0.00  0.00    +0.000 C 
ENDBRANCH   7  10
ENDBRANCH   6   7
ENDBRANCH   1   6
BRANCH   1  19
ATOM     19  C   UNL     1      33.539 -22.817 -16.801  0.00  0.00    +0.080 C 
BRANCH  19  21
ATOM     20  O   UNL     1      35.882 -22.315 -16.484  0.00  0.00    -0.291 OA
ATOM     21  C   UNL     1      34.854 -22.116 -17.128  0.00  0.00    +0.174 C 
BRANCH  21  22
ATOM     22  C   UNL     1      34.885 -21.149 -18.263  0.00  0.00    +0.035 C 
ATOM     23  C   UNL     1      36.107 -20.707 -18.771  0.00  0.00    +0.003 C 
ATOM     24  C   UNL     1      33.691 -20.687 -18.817  0.00  0.00    +0.003 C 
ATOM     25  C   UNL     1      34.940 -19.341 -20.387  0.00  0.00    +0.000 C 
ATOM     26  C   UNL     1      36.134 -19.803 -19.832  0.00  0.00    +0.000 C 
ATOM     27  C   UNL     1      33.718 -19.783 -19.879  0.00  0.00    +0.000 C 
BRANCH  25  28
ATOM     28  C   UNL     1      34.968 -18.402 -21.488  0.00  0.00    +0.000 C 
ATOM     29  C   UNL     1      35.395 -17.091 -21.274  0.00  0.00    +0.003 C 
ATOM     30  C   UNL     1      34.566 -18.807 -22.761  0.00  0.00    +0.003 C 
ATOM     31  C   UNL     1      35.420 -16.185 -22.334  0.00  0.00    +0.037 C 
ATOM     32  C   UNL     1      34.592 -17.900 -23.820  0.00  0.00    +0.037 C 
ATOM     33  C   UNL     1      35.018 -16.590 -23.607  0.00  0.00    +0.139 C 
BRANCH  33  34
ATOM     34  O   UNL     1      35.046 -15.705 -24.642  0.00  0.00    -0.475 OA
BRANCH  34  35
ATOM     35  C   UNL     1      33.793 -15.191 -25.090  0.00  0.00    +0.206 C 
ATOM     36  C   UNL     1      33.539 -13.857 -24.419  0.00  0.00    +0.051 C 
ENDBRANCH  34  35
ENDBRANCH  33  34
ENDBRANCH  25  28
ENDBRANCH  21  22
ENDBRANCH  19  21
ENDBRANCH   1  19
TORSDOF 11
ENDMDL
MODEL 2
REMARK VINA RESULT:     -12.1      4.053     12.284
REMARK  Name = 448384
REMARK  11 active torsions:
REMARK  status: ('A' for Active; 'I' for Inactive)
REMARK    1  A    between atoms: C_1  and  C_3
REMARK    2  A    between atoms: C_1  and  C_6
REMARK    3  A    between atoms: C_1  and  C_19
REMARK    4  A    between atoms: C_3  and  O_4
REMARK    5  A    between atoms: C_6  and  C_7
REMARK    6  A    between atoms: C_7  and  N_10
REMARK    7  A    between atoms: C_19  and  C_21
REMARK    8  A    between atoms: C_21  and  C_22
REMARK    9  A    between atoms: C_25  and  C_28
REMARK   10  A    between atoms: C_33  and  O_34
REMARK   11  A    between atoms: O_34  and  C_35
REMARK                            x       y       z     vdW  Elec       q    Type
REMARK                         _______ _______ _______ _____ _____    ______ ____
ROOT
ATOM      1  C   UNL     1      34.830 -15.523 -21.808  0.00  0.00    +0.108 C 
ENDROOT
BRANCH   1   3
ATOM      2  O   UNL     1      35.407 -15.935 -19.480  0.00  0.00    -0.250 OA
ATOM      3  C   UNL     1      35.105 -15.139 -20.360  0.00  0.00    +0.314 C 
BRANCH   3   4
ATOM      4  O   UNL     1      34.986 -13.806 -20.137  0.00  0.00    -0.480 OA
ATOM      5  H   UNL     1      35.658 -13.347 -19.674  0.00  0.00    +0.295 HD
ENDBRANCH   3   4
ENDBRANCH   1   3
BRANCH   1   6
ATOM      6  C   UNL     1      35.020 -14.299 -22.727  0.00  0.00    +0.034 C 
BRANCH   6   7
ATOM      7  C   UNL     1      33.714 -13.749 -23.303  0.00  0.00    +0.102 C 
BRANCH   7  10
ATOM      8  O   UNL     1      34.419 -11.085 -24.437  0.00  0.00    -0.269 OA
ATOM      9  O   UNL     1      32.151 -12.993 -20.876  0.00  0.00    -0.269 OA
ATOM     10  N   UNL     1      33.383 -12.442 -22.811  0.00  0.00    -0.223 N 
ATOM     11  C   UNL     1      33.765 -11.259 -23.425  0.00  0.00    +0.255 C 
ATOM     12  C   UNL     1      32.642 -12.206 -21.663  0.00  0.00    +0.255 C 
ATOM     13  C   UNL     1      33.213 -10.179 -22.607  0.00  0.00    +0.058 C 
ATOM     14  C   UNL     1      32.534 -10.752 -21.541  0.00  0.00    +0.058 C 
ATOM     15  C   UNL     1      33.294  -8.812 -22.772  0.00  0.00    +0.005 C 
ATOM     16  C   UNL     1      31.901  -9.987 -20.584  0.00  0.00    +0.005 C 
ATOM     17  C   UNL     1      32.659  -8.017 -21.814  0.00  0.00    +0.000 C 
ATOM     18  C   UNL     1      31.969  -8.598 -20.730  0.00  0.00    +0.000 C 
ENDBRANCH   7  10
ENDBRANCH   6   7
ENDBRANCH   1   6
BRANCH   1  19
ATOM     19  C   UNL     1      35.803 -16.650 -22.207  0.00  0.00    +0.080 C 
BRANCH  19  21
ATOM     20  O   UNL     1      34.549 -18.430 -23.254  0.00  0.00    -0.291 OA
ATOM     21  C   UNL     1      35.139 -18.022 -22.257  0.00  0.00    +0.174 C 
BRANCH  21  22
ATOM     22  C   UNL     1      35.201 -18.890 -21.045  0.00  0.00    +0.035 C 
ATOM     23  C   UNL     1      36.428 -19.143 -20.430  0.00  0.00    +0.003 C 
ATOM     24  C   UNL     1      34.032 -19.447 -20.526  0.00  0.00    +0.003 C 
ATOM     25  C   UNL     1      35.316 -20.512 -18.779  0.00  0.00    +0.000 C 
ATOM     26  C   UNL     1      36.485 -19.954 -19.298  0.00  0.00    +0.000 C 
ATOM     27  C   UNL     1      34.090 -20.259 -19.393  0.00  0.00    +0.000 C 
BRANCH  25  28
ATOM     28  C   UNL     1      35.375 -21.354 -17.604  0.00  0.00    +0.000 C 
ATOM     29  C   UNL     1      34.276 -22.141 -17.255  0.00  0.00    +0.003 C 
ATOM     30  C   UNL     1      36.528 -21.379 -16.819  0.00  0.00    +0.003 C 
ATOM     31  C   UNL     1      34.331 -22.951 -16.121  0.00  0.00    +0.037 C 
ATOM     32  C   UNL     1      36.582 -22.190 -15.686  0.00  0.00    +0.037 C 
ATOM     33  C   UNL     1      35.484 -22.976 -15.336  0.00  0.00    +0.139 C 
BRANCH  33  34
ATOM     34  O   UNL     1      35.538 -23.770 -14.232  0.00  0.00    -0.475 OA
BRANCH  34  35
ATOM     35  C   UNL     1      36.764 -24.456 -13.985  0.00  0.00    +0.206 C 
ATOM     36  C   UNL     1      36.703 -25.823 -14.635  0.00  0.00    +0.051 C 
ENDBRANCH  34  35
ENDBRANCH  33  34
ENDBRANCH  25  28
ENDBRANCH  21  22
ENDBRANCH  19  21
ENDBRANCH   1  19
TORSDOF 11
ENDMDL
MODEL 3
REMARK VINA RESULT:     -12.0      4.045     12.313
REMARK  Name = 448384
REMARK  11 active torsions:
REMARK  status: ('A' for Active; 'I' for Inactive)
REMARK    1  A    between atoms: C_1  and  C_3
REMARK    2  A    between atoms: C_1  and  C_6
REMARK    3  A    between atoms: C_1  and  C_19
REMARK    4  A    between atoms: C_3  and  O_4
REMARK    5  A    between atoms: C_6  and  C_7
REMARK    6  A    between atoms: C_7  and  N_10
REMARK    7  A    between atoms: C_19  and  C_21
REMARK    8  A    between atoms: C_21  and  C_22
REMARK    9  A    between atoms: C_25  and  C_28
REMARK   10  A    between atoms: C_33  and  O_34
REMARK   11  A    between atoms: O_34  and  C_35
REMARK                            x       y       z     vdW  Elec       q    Type
REMARK                         _______ _______ _______ _____ _____    ______ ____
ROOT
ATOM      1  C   UNL     1      34.848 -15.521 -21.910  0.00  0.00    +0.108 C 
ENDROOT
BRANCH   1   3
ATOM      2  O   UNL     1      35.406 -15.958 -19.581  0.00  0.00    -0.250 OA
ATOM      3  C   UNL     1      35.109 -15.153 -20.456  0.00  0.00    +0.314 C 
BRANCH   3   4
ATOM      4  O   UNL     1      34.985 -13.823 -20.218  0.00  0.00    -0.480 OA
ATOM      5  H   UNL     1      34.225 -13.495 -19.779  0.00  0.00    +0.295 HD
ENDBRANCH   3   4
ENDBRANCH   1   3
BRANCH   1   6
ATOM      6  C   UNL     1      35.011 -14.279 -22.809  0.00  0.00    +0.034 C 
BRANCH   6   7
ATOM      7  C   UNL     1      33.694 -13.745 -23.371  0.00  0.00    +0.102 C 
BRANCH   7  10
ATOM      8  O   UNL     1      32.139 -12.968 -20.950  0.00  0.00    -0.269 OA
ATOM      9  O   UNL     1      34.378 -11.087 -24.544  0.00  0.00    -0.269 OA
ATOM     10  N   UNL     1      33.364 -12.433 -22.892  0.00  0.00    -0.223 N 
ATOM     11  C   UNL     1      32.631 -12.185 -21.742  0.00  0.00    +0.255 C 
ATOM     12  C   UNL     1      33.740 -11.255 -23.522  0.00  0.00    +0.255 C 
ATOM     13  C   UNL     1      32.539 -10.730 -21.623  0.00  0.00    +0.058 C 
ATOM     14  C   UNL     1      33.211 -10.168 -22.699  0.00  0.00    +0.058 C 
ATOM     15  C   UNL     1      31.924  -9.956 -20.661  0.00  0.00    +0.005 C 
ATOM     16  C   UNL     1      33.301  -8.803 -22.870  0.00  0.00    +0.005 C 
ATOM     17  C   UNL     1      32.003  -8.569 -20.813  0.00  0.00    +0.000 C 
ATOM     18  C   UNL     1      32.684  -7.997 -21.907  0.00  0.00    +0.000 C 
ENDBRANCH   7  10
ENDBRANCH   6   7
ENDBRANCH   1   6
BRANCH   1  19
ATOM     19  C   UNL     1      35.849 -16.619 -22.322  0.00  0.00    +0.080 C 
BRANCH  19  21
ATOM     20  O   UNL     1      34.665 -18.446 -23.372  0.00  0.00    -0.291 OA
ATOM     21  C   UNL     1      35.224 -18.009 -22.369  0.00  0.00    +0.174 C 
BRANCH  21  22
ATOM     22  C   UNL     1      35.286 -18.861 -21.145  0.00  0.00    +0.035 C 
ATOM     23  C   UNL     1      34.117 -19.401 -20.610  0.00  0.00    +0.003 C 
ATOM     24  C   UNL     1      36.515 -19.118 -20.538  0.00  0.00    +0.003 C 
ATOM     25  C   UNL     1      35.406 -20.453 -18.859  0.00  0.00    +0.000 C 
ATOM     26  C   UNL     1      34.177 -20.197 -19.466  0.00  0.00    +0.000 C 
ATOM     27  C   UNL     1      36.575 -19.914 -19.394  0.00  0.00    +0.000 C 
BRANCH  25  28
ATOM     28  C   UNL     1      35.468 -21.279 -17.671  0.00  0.00    +0.000 C 
ATOM     29  C   UNL     1      34.369 -22.058 -17.306  0.00  0.00    +0.003 C 
ATOM     30  C   UNL     1      36.624 -21.294 -16.891  0.00  0.00    +0.003 C 
ATOM     31  C   UNL     1      34.428 -22.852 -16.161  0.00  0.00    +0.037 C 
ATOM     32  C   UNL     1      36.682 -22.088 -15.746  0.00  0.00    +0.037 C 
ATOM     33  C   UNL     1      35.584 -22.867 -15.381  0.00  0.00    +0.139 C 
BRANCH  33  34
ATOM     34  O   UNL     1      35.641 -23.644 -14.265  0.00  0.00    -0.475 OA
BRANCH  34  35
ATOM     35  C   UNL     1      36.832 -24.405 -14.063  0.00  0.00    +0.206 C 
ATOM     36  C   UNL     1      36.639 -25.786 -14.654  0.00  0.00    +0.051 C 
ENDBRANCH  34  35
ENDBRANCH  33  34
ENDBRANCH  25  28
ENDBRANCH  21  22
ENDBRANCH  19  21
ENDBRANCH   1  19
TORSDOF 11
ENDMDL
MODEL 4
REMARK VINA RESULT:     -12.0      5.086     13.134
REMARK  Name = 448384
REMARK  11 active torsions:
REMARK  status: ('A' for Active; 'I' for Inactive)
REMARK    1  A    between atoms: C_1  and  C_3
REMARK    2  A    between atoms: C_1  and  C_6
REMARK    3  A    between atoms: C_1  and  C_19
REMARK    4  A    between atoms: C_3  and  O_4
REMARK    5  A    between atoms: C_6  and  C_7
REMARK    6  A    between atoms: C_7  and  N_10
REMARK    7  A    between atoms: C_19  and  C_21
REMARK    8  A    between atoms: C_21  and  C_22
REMARK    9  A    between atoms: C_25  and  C_28
REMARK   10  A    between atoms: C_33  and  O_34
REMARK   11  A    between atoms: O_34  and  C_35
REMARK                            x       y       z     vdW  Elec       q    Type
REMARK                         _______ _______ _______ _____ _____    ______ ____
ROOT
ATOM      1  C   UNL     1      34.443 -12.776 -23.535  0.00  0.00    +0.108 C 
ENDROOT
BRANCH   1   3
ATOM      2  O   UNL     1      33.712 -11.708 -25.596  0.00  0.00    -0.250 OA
ATOM      3  C   UNL     1      34.336 -11.641 -24.544  0.00  0.00    +0.314 C 
BRANCH   3   4
ATOM      4  O   UNL     1      35.006 -10.527 -24.157  0.00  0.00    -0.480 OA
ATOM      5  H   UNL     1      34.782 -10.103 -23.352  0.00  0.00    +0.295 HD
ENDBRANCH   3   4
ENDBRANCH   1   3
BRANCH   1   6
ATOM      6  C   UNL     1      33.860 -12.336 -22.177  0.00  0.00    +0.034 C 
BRANCH   6   7
ATOM      7  C   UNL     1      32.492 -11.661 -22.280  0.00  0.00    +0.102 C 
BRANCH   7  10
ATOM      8  O   UNL     1      32.168 -10.994 -19.393  0.00  0.00    -0.269 OA
ATOM      9  O   UNL     1      32.691  -8.954 -23.520  0.00  0.00    -0.269 OA
ATOM     10  N   UNL     1      32.447 -10.372 -21.651  0.00  0.00    -0.223 N 
ATOM     11  C   UNL     1      32.294 -10.176 -20.286  0.00  0.00    +0.255 C 
ATOM     12  C   UNL     1      32.554  -9.168 -22.331  0.00  0.00    +0.255 C 
ATOM     13  C   UNL     1      32.312  -8.729 -20.078  0.00  0.00    +0.058 C 
ATOM     14  C   UNL     1      32.470  -8.118 -21.315  0.00  0.00    +0.058 C 
ATOM     15  C   UNL     1      32.201  -7.998 -18.913  0.00  0.00    +0.005 C 
ATOM     16  C   UNL     1      32.524  -6.747 -21.450  0.00  0.00    +0.005 C 
ATOM     17  C   UNL     1      32.253  -6.607 -19.026  0.00  0.00    +0.000 C 
ATOM     18  C   UNL     1      32.412  -5.987 -20.282  0.00  0.00    +0.000 C 
ENDBRANCH   7  10
ENDBRANCH   6   7
ENDBRANCH   1   6
BRANCH   1  19
ATOM     19  C   UNL     1      33.669 -13.991 -24.083  0.00  0.00    +0.080 C 
BRANCH  19  21
ATOM     20  O   UNL     1      35.112 -15.325 -25.489  0.00  0.00    -0.291 OA
ATOM     21  C   UNL     1      34.570 -15.181 -24.397  0.00  0.00    +0.174 C 
BRANCH  21  22
ATOM     22  C   UNL     1      34.788 -16.209 -23.338  0.00  0.00    +0.035 C 
ATOM     23  C   UNL     1      35.261 -15.829 -22.082  0.00  0.00    +0.003 C 
ATOM     24  C   UNL     1      34.517 -17.552 -23.604  0.00  0.00    +0.003 C 
ATOM     25  C   UNL     1      35.194 -18.133 -21.359  0.00  0.00    +0.000 C 
ATOM     26  C   UNL     1      35.465 -16.790 -21.093  0.00  0.00    +0.000 C 
ATOM     27  C   UNL     1      34.721 -18.514 -22.614  0.00  0.00    +0.000 C 
BRANCH  25  28
ATOM     28  C   UNL     1      35.406 -19.132 -20.333  0.00  0.00    +0.000 C 
ATOM     29  C   UNL     1      34.320 -19.838 -19.815  0.00  0.00    +0.003 C 
ATOM     30  C   UNL     1      36.693 -19.386 -19.861  0.00  0.00    +0.003 C 
ATOM     31  C   UNL     1      34.522 -20.799 -18.824  0.00  0.00    +0.037 C 
ATOM     32  C   UNL     1      36.895 -20.347 -18.871  0.00  0.00    +0.037 C 
ATOM     33  C   UNL     1      35.810 -21.053 -18.352  0.00  0.00    +0.139 C 
BRANCH  33  34
ATOM     34  O   UNL     1      36.007 -21.994 -17.387  0.00  0.00    -0.475 OA
BRANCH  34  35
ATOM     35  C   UNL     1      36.299 -21.524 -16.072  0.00  0.00    +0.206 C 
ATOM     36  C   UNL     1      37.701 -21.955 -15.695  0.00  0.00    +0.051 C 
ENDBRANCH  34  35
ENDBRANCH  33  34
ENDBRANCH  25  28
ENDBRANCH  21  22
ENDBRANCH  19  21
ENDBRANCH   1  19
TORSDOF 11
ENDMDL
MODEL 5
REMARK VINA RESULT:     -11.9      3.694     11.689
REMARK  Name = 448384
REMARK  11 active torsions:
REMARK  status: ('A' for Active; 'I' for Inactive)
REMARK    1  A    between atoms: C_1  and  C_3
REMARK    2  A    between atoms: C_1  and  C_6
REMARK    3  A    between atoms: C_1  and  C_19
REMARK    4  A    between atoms: C_3  and  O_4
REMARK    5  A    between atoms: C_6  and  C_7
REMARK    6  A    between atoms: C_7  and  N_10
REMARK    7  A    between atoms: C_19  and  C_21
REMARK    8  A    between atoms: C_21  and  C_22
REMARK    9  A    between atoms: C_25  and  C_28
REMARK   10  A    between atoms: C_33  and  O_34
REMARK   11  A    between atoms: O_34  and  C_35
REMARK                            x       y       z     vdW  Elec       q    Type
REMARK                         _______ _______ _______ _____ _____    ______ ____
ROOT
ATOM      1  C   UNL     1      35.199 -16.634 -23.487  0.00  0.00    +0.108 C 
ENDROOT
BRANCH   1   3
ATOM      2  O   UNL     1      34.338 -15.593 -25.511  0.00  0.00    -0.250 OA
ATOM      3  C   UNL     1      34.365 -16.559 -24.759  0.00  0.00    +0.314 C 
BRANCH   3   4
ATOM      4  O   UNL     1      33.647 -17.688 -24.985  0.00  0.00    -0.480 OA
ATOM      5  H   UNL     1      33.783 -18.178 -25.772  0.00  0.00    +0.295 HD
ENDBRANCH   3   4
ENDBRANCH   1   3
BRANCH   1   6
ATOM      6  C   UNL     1      34.603 -15.709 -22.406  0.00  0.00    +0.034 C 
BRANCH   6   7
ATOM      7  C   UNL     1      35.006 -14.242 -22.557  0.00  0.00    +0.102 C 
BRANCH   7  10
ATOM      8  O   UNL     1      33.848 -11.695 -23.586  0.00  0.00    -0.269 OA
ATOM      9  O   UNL     1      33.799 -14.412 -19.833  0.00  0.00    -0.269 OA
ATOM     10  N   UNL     1      34.100 -13.336 -21.911  0.00  0.00    -0.223 N 
ATOM     11  C   UNL     1      33.619 -12.170 -22.489  0.00  0.00    +0.255 C 
ATOM     12  C   UNL     1      33.595 -13.517 -20.631  0.00  0.00    +0.255 C 
ATOM     13  C   UNL     1      32.727 -11.564 -21.500  0.00  0.00    +0.058 C 
ATOM     14  C   UNL     1      32.713 -12.379 -20.377  0.00  0.00    +0.058 C 
ATOM     15  C   UNL     1      31.989 -10.400 -21.567  0.00  0.00    +0.005 C 
ATOM     16  C   UNL     1      31.960 -12.072 -19.263  0.00  0.00    +0.005 C 
ATOM     17  C   UNL     1      31.218 -10.070 -20.450  0.00  0.00    +0.000 C 
ATOM     18  C   UNL     1      31.204 -10.897 -19.308  0.00  0.00    +0.000 C 
ENDBRANCH   7  10
ENDBRANCH   6   7
ENDBRANCH   1   6
BRANCH   1  19
ATOM     19  C   UNL     1      35.211 -18.095 -22.996  0.00  0.00    +0.080 C 
BRANCH  19  21
ATOM     20  O   UNL     1      37.302 -17.844 -21.811  0.00  0.00    -0.291 OA
ATOM     21  C   UNL     1      36.173 -18.327 -21.836  0.00  0.00    +0.174 C 
BRANCH  21  22
ATOM     22  C   UNL     1      35.725 -19.181 -20.697  0.00  0.00    +0.035 C 
ATOM     23  C   UNL     1      34.364 -19.404 -20.485  0.00  0.00    +0.003 C 
ATOM     24  C   UNL     1      36.668 -19.757 -19.846  0.00  0.00    +0.003 C 
ATOM     25  C   UNL     1      34.890 -20.779 -18.569  0.00  0.00    +0.000 C 
ATOM     26  C   UNL     1      33.947 -20.202 -19.420  0.00  0.00    +0.000 C 
ATOM     27  C   UNL     1      36.250 -20.556 -18.781  0.00  0.00    +0.000 C 
BRANCH  25  28
ATOM     28  C   UNL     1      34.457 -21.607 -17.464  0.00  0.00    +0.000 C 
ATOM     29  C   UNL     1      33.124 -22.012 -17.377  0.00  0.00    +0.003 C 
ATOM     30  C   UNL     1      35.370 -21.998 -16.484  0.00  0.00    +0.003 C 
ATOM     31  C   UNL     1      32.706 -22.809 -16.312  0.00  0.00    +0.037 C 
ATOM     32  C   UNL     1      34.951 -22.794 -15.419  0.00  0.00    +0.037 C 
ATOM     33  C   UNL     1      33.619 -23.199 -15.332  0.00  0.00    +0.139 C 
BRANCH  33  34
ATOM     34  O   UNL     1      33.210 -23.979 -14.294  0.00  0.00    -0.475 OA
BRANCH  34  35
ATOM     35  C   UNL     1      32.425 -23.352 -13.281  0.00  0.00    +0.206 C 
ATOM     36  C   UNL     1      31.161 -24.159 -13.066  0.00  0.00    +0.051 C 
ENDBRANCH  34  35
ENDBRANCH  33  34
ENDBRANCH  25  28
ENDBRANCH  21  22
ENDBRANCH  19  21
ENDBRANCH   1  19
TORSDOF 11
ENDMDL
MODEL 6
REMARK VINA RESULT:     -11.9      3.708     11.695
REMARK  Name = 448384
REMARK  11 active torsions:
REMARK  status: ('A' for Active; 'I' for Inactive)
REMARK    1  A    between atoms: C_1  and  C_3
REMARK    2  A    between atoms: C_1  and  C_6
REMARK    3  A    between atoms: C_1  and  C_19
REMARK    4  A    between atoms: C_3  and  O_4
REMARK    5  A    between atoms: C_6  and  C_7
REMARK    6  A    between atoms: C_7  and  N_10
REMARK    7  A    between atoms: C_19  and  C_21
REMARK    8  A    between atoms: C_21  and  C_22
REMARK    9  A    between atoms: C_25  and  C_28
REMARK   10  A    between atoms: C_33  and  O_34
REMARK   11  A    between atoms: O_34  and  C_35
REMARK                            x       y       z     vdW  Elec       q    Type
REMARK                         _______ _______ _______ _____ _____    ______ ____
ROOT
ATOM      1  C   UNL     1      35.184 -16.610 -23.442  0.00  0.00    +0.108 C 
ENDROOT
BRANCH   1   3
ATOM      2  O   UNL     1      34.463 -15.511 -25.490  0.00  0.00    -0.250 OA
ATOM      3  C   UNL     1      34.418 -16.487 -24.752  0.00  0.00    +0.314 C 
BRANCH   3   4
ATOM      4  O   UNL     1      33.673 -17.586 -25.031  0.00  0.00    -0.480 OA
ATOM      5  H   UNL     1      32.911 -17.777 -24.521  0.00  0.00    +0.295 HD
ENDBRANCH   3   4
ENDBRANCH   1   3
BRANCH   1   6
ATOM      6  C   UNL     1      34.583 -15.661 -22.384  0.00  0.00    +0.034 C 
BRANCH   6   7
ATOM      7  C   UNL     1      34.966 -14.194 -22.580  0.00  0.00    +0.102 C 
BRANCH   7  10
ATOM      8  O   UNL     1      33.719 -14.373 -19.879  0.00  0.00    -0.269 OA
ATOM      9  O   UNL     1      33.838 -11.631 -23.612  0.00  0.00    -0.269 OA
ATOM     10  N   UNL     1      34.062 -13.282 -21.941  0.00  0.00    -0.223 N 
ATOM     11  C   UNL     1      33.541 -13.464 -20.669  0.00  0.00    +0.255 C 
ATOM     12  C   UNL     1      33.601 -12.107 -22.518  0.00  0.00    +0.255 C 
ATOM     13  C   UNL     1      32.685 -12.307 -20.410  0.00  0.00    +0.058 C 
ATOM     14  C   UNL     1      32.721 -11.486 -21.528  0.00  0.00    +0.058 C 
ATOM     15  C   UNL     1      31.934 -11.990 -19.296  0.00  0.00    +0.005 C 
ATOM     16  C   UNL     1      32.009 -10.307 -21.592  0.00  0.00    +0.005 C 
ATOM     17  C   UNL     1      31.204 -10.799 -19.338  0.00  0.00    +0.000 C 
ATOM     18  C   UNL     1      31.240  -9.966 -20.475  0.00  0.00    +0.000 C 
ENDBRANCH   7  10
ENDBRANCH   6   7
ENDBRANCH   1   6
BRANCH   1  19
ATOM     19  C   UNL     1      35.099 -18.072 -22.962  0.00  0.00    +0.080 C 
BRANCH  19  21
ATOM     20  O   UNL     1      37.219 -17.970 -21.805  0.00  0.00    -0.291 OA
ATOM     21  C   UNL     1      36.061 -18.382 -21.819  0.00  0.00    +0.174 C 
BRANCH  21  22
ATOM     22  C   UNL     1      35.577 -19.224 -20.687  0.00  0.00    +0.035 C 
ATOM     23  C   UNL     1      34.208 -19.394 -20.479  0.00  0.00    +0.003 C 
ATOM     24  C   UNL     1      36.493 -19.842 -19.836  0.00  0.00    +0.003 C 
ATOM     25  C   UNL     1      34.673 -20.799 -18.570  0.00  0.00    +0.000 C 
ATOM     26  C   UNL     1      33.756 -20.181 -19.421  0.00  0.00    +0.000 C 
ATOM     27  C   UNL     1      36.041 -20.629 -18.777  0.00  0.00    +0.000 C 
BRANCH  25  28
ATOM     28  C   UNL     1      34.204 -21.616 -17.471  0.00  0.00    +0.000 C 
ATOM     29  C   UNL     1      32.840 -21.873 -17.326  0.00  0.00    +0.003 C 
ATOM     30  C   UNL     1      35.115 -22.143 -16.555  0.00  0.00    +0.003 C 
ATOM     31  C   UNL     1      32.388 -22.659 -16.266  0.00  0.00    +0.037 C 
ATOM     32  C   UNL     1      34.662 -22.928 -15.495  0.00  0.00    +0.037 C 
ATOM     33  C   UNL     1      33.299 -23.185 -15.350  0.00  0.00    +0.139 C 
BRANCH  33  34
ATOM     34  O   UNL     1      32.856 -23.954 -14.317  0.00  0.00    -0.475 OA
BRANCH  34  35
ATOM     35  C   UNL     1      31.449 -24.172 -14.226  0.00  0.00    +0.206 C 
ATOM     36  C   UNL     1      30.960 -23.679 -12.880  0.00  0.00    +0.051 C 
ENDBRANCH  34  35
ENDBRANCH  33  34
ENDBRANCH  25  28
ENDBRANCH  21  22
ENDBRANCH  19  21
ENDBRANCH   1  19
TORSDOF 11
ENDMDL
MODEL 7
REMARK VINA RESULT:     -11.9      1.426      2.407
REMARK  Name = 448384
REMARK  11 active torsions:
REMARK  status: ('A' for Active; 'I' for Inactive)
REMARK    1  A    between atoms: C_1  and  C_3
REMARK    2  A    between atoms: C_1  and  C_6
REMARK    3  A    between atoms: C_1  and  C_19
REMARK    4  A    between atoms: C_3  and  O_4
REMARK    5  A    between atoms: C_6  and  C_7
REMARK    6  A    between atoms: C_7  and  N_10
REMARK    7  A    between atoms: C_19  and  C_21
REMARK    8  A    between atoms: C_21  and  C_22
REMARK    9  A    between atoms: C_25  and  C_28
REMARK   10  A    between atoms: C_33  and  O_34
REMARK   11  A    between atoms: O_34  and  C_35
REMARK                            x       y       z     vdW  Elec       q    Type
REMARK                         _______ _______ _______ _____ _____    ______ ____
ROOT
ATOM      1  C   UNL     1      34.578 -23.021 -15.531  0.00  0.00    +0.108 C 
ENDROOT
BRANCH   1   3
ATOM      2  O   UNL     1      36.641 -22.034 -16.361  0.00  0.00    -0.250 OA
ATOM      3  C   UNL     1      35.776 -22.083 -15.495  0.00  0.00    +0.314 C 
BRANCH   3   4
ATOM      4  O   UNL     1      35.791 -21.289 -14.395  0.00  0.00    -0.480 OA
ATOM      5  H   UNL     1      35.453 -20.416 -14.444  0.00  0.00    +0.295 HD
ENDBRANCH   3   4
ENDBRANCH   1   3
BRANCH   1   6
ATOM      6  C   UNL     1      34.000 -23.199 -14.112  0.00  0.00    +0.034 C 
BRANCH   6   7
ATOM      7  C   UNL     1      34.516 -24.441 -13.384  0.00  0.00    +0.102 C 
BRANCH   7  10
ATOM      8  O   UNL     1      36.200 -26.189 -15.114  0.00  0.00    -0.269 OA
ATOM      9  O   UNL     1      36.572 -23.027 -11.747  0.00  0.00    -0.269 OA
ATOM     10  N   UNL     1      35.945 -24.566 -13.422  0.00  0.00    -0.223 N 
ATOM     11  C   UNL     1      36.630 -25.417 -14.276  0.00  0.00    +0.255 C 
ATOM     12  C   UNL     1      36.813 -23.851 -12.610  0.00  0.00    +0.255 C 
ATOM     13  C   UNL     1      38.052 -25.222 -13.992  0.00  0.00    +0.058 C 
ATOM     14  C   UNL     1      38.162 -24.274 -12.984  0.00  0.00    +0.058 C 
ATOM     15  C   UNL     1      39.160 -25.817 -14.558  0.00  0.00    +0.005 C 
ATOM     16  C   UNL     1      39.385 -23.873 -12.490  0.00  0.00    +0.005 C 
ATOM     17  C   UNL     1      40.410 -25.426 -14.074  0.00  0.00    +0.000 C 
ATOM     18  C   UNL     1      40.523 -24.464 -13.049  0.00  0.00    +0.000 C 
ENDBRANCH   7  10
ENDBRANCH   6   7
ENDBRANCH   1   6
BRANCH   1  19
ATOM     19  C   UNL     1      33.515 -22.420 -16.472  0.00  0.00    +0.080 C 
BRANCH  19  21
ATOM     20  O   UNL     1      33.948 -23.677 -18.490  0.00  0.00    -0.291 OA
ATOM     21  C   UNL     1      33.867 -22.578 -17.948  0.00  0.00    +0.174 C 
BRANCH  21  22
ATOM     22  C   UNL     1      34.132 -21.351 -18.753  0.00  0.00    +0.035 C 
ATOM     23  C   UNL     1      35.441 -21.006 -19.091  0.00  0.00    +0.003 C 
ATOM     24  C   UNL     1      33.069 -20.548 -19.170  0.00  0.00    +0.003 C 
ATOM     25  C   UNL     1      34.625 -19.056 -20.260  0.00  0.00    +0.000 C 
ATOM     26  C   UNL     1      35.687 -19.858 -19.844  0.00  0.00    +0.000 C 
ATOM     27  C   UNL     1      33.316 -19.400 -19.923  0.00  0.00    +0.000 C 
BRANCH  25  28
ATOM     28  C   UNL     1      34.880 -17.864 -21.042  0.00  0.00    +0.000 C 
ATOM     29  C   UNL     1      35.013 -16.630 -20.405  0.00  0.00    +0.003 C 
ATOM     30  C   UNL     1      34.989 -17.949 -22.429  0.00  0.00    +0.003 C 
ATOM     31  C   UNL     1      35.257 -15.481 -21.157  0.00  0.00    +0.037 C 
ATOM     32  C   UNL     1      35.233 -16.800 -23.181  0.00  0.00    +0.037 C 
ATOM     33  C   UNL     1      35.367 -15.566 -22.545  0.00  0.00    +0.139 C 
BRANCH  33  34
ATOM     34  O   UNL     1      35.607 -14.444 -23.278  0.00  0.00    -0.475 OA
BRANCH  34  35
ATOM     35  C   UNL     1      34.672 -13.374 -23.153  0.00  0.00    +0.206 C 
ATOM     36  C   UNL     1      33.404 -13.738 -23.897  0.00  0.00    +0.051 C 
ENDBRANCH  34  35
ENDBRANCH  33  34
ENDBRANCH  25  28
ENDBRANCH  21  22
ENDBRANCH  19  21
ENDBRANCH   1  19
TORSDOF 11
ENDMDL
MODEL 8
REMARK VINA RESULT:     -11.7      5.002     13.110
REMARK  Name = 448384
REMARK  11 active torsions:
REMARK  status: ('A' for Active; 'I' for Inactive)
REMARK    1  A    between atoms: C_1  and  C_3
REMARK    2  A    between atoms: C_1  and  C_6
REMARK    3  A    between atoms: C_1  and  C_19
REMARK    4  A    between atoms: C_3  and  O_4
REMARK    5  A    between atoms: C_6  and  C_7
REMARK    6  A    between atoms: C_7  and  N_10
REMARK    7  A    between atoms: C_19  and  C_21
REMARK    8  A    between atoms: C_21  and  C_22
REMARK    9  A    between atoms: C_25  and  C_28
REMARK   10  A    between atoms: C_33  and  O_34
REMARK   11  A    between atoms: O_34  and  C_35
REMARK                            x       y       z     vdW  Elec       q    Type
REMARK                         _______ _______ _______ _____ _____    ______ ____
ROOT
ATOM      1  C   UNL     1      34.464 -12.845 -23.860  0.00  0.00    +0.108 C 
ENDROOT
BRANCH   1   3
ATOM      2  O   UNL     1      34.585 -10.694 -24.992  0.00  0.00    -0.250 OA
ATOM      3  C   UNL     1      34.163 -11.844 -24.967  0.00  0.00    +0.314 C 
BRANCH   3   4
ATOM      4  O   UNL     1      33.374 -12.359 -25.943  0.00  0.00    -0.480 OA
ATOM      5  H   UNL     1      33.212 -11.866 -26.723  0.00  0.00    +0.295 HD
ENDBRANCH   3   4
ENDBRANCH   1   3
BRANCH   1   6
ATOM      6  C   UNL     1      34.042 -12.267 -22.493  0.00  0.00    +0.034 C 
BRANCH   6   7
ATOM      7  C   UNL     1      32.624 -11.695 -22.474  0.00  0.00    +0.102 C 
BRANCH   7  10
ATOM      8  O   UNL     1      32.246 -11.199 -19.560  0.00  0.00    -0.269 OA
ATOM      9  O   UNL     1      32.740  -8.919 -23.562  0.00  0.00    -0.269 OA
ATOM     10  N   UNL     1      32.527 -10.445 -21.776  0.00  0.00    -0.223 N 
ATOM     11  C   UNL     1      32.352 -10.330 -20.405  0.00  0.00    +0.255 C 
ATOM     12  C   UNL     1      32.598  -9.202 -22.388  0.00  0.00    +0.255 C 
ATOM     13  C   UNL     1      32.317  -8.896 -20.118  0.00  0.00    +0.058 C 
ATOM     14  C   UNL     1      32.466  -8.214 -21.318  0.00  0.00    +0.058 C 
ATOM     15  C   UNL     1      32.168  -8.235 -18.916  0.00  0.00    +0.005 C 
ATOM     16  C   UNL     1      32.473  -6.836 -21.377  0.00  0.00    +0.005 C 
ATOM     17  C   UNL     1      32.172  -6.838 -18.953  0.00  0.00    +0.000 C 
ATOM     18  C   UNL     1      32.322  -6.145 -20.172  0.00  0.00    +0.000 C 
ENDBRANCH   7  10
ENDBRANCH   6   7
ENDBRANCH   1   6
BRANCH   1  19
ATOM     19  C   UNL     1      33.691 -14.146 -24.154  0.00  0.00    +0.080 C 
BRANCH  19  21
ATOM     20  O   UNL     1      35.182 -15.486 -25.504  0.00  0.00    -0.291 OA
ATOM     21  C   UNL     1      34.607 -15.334 -24.429  0.00  0.00    +0.174 C 
BRANCH  21  22
ATOM     22  C   UNL     1      34.798 -16.351 -23.355  0.00  0.00    +0.035 C 
ATOM     23  C   UNL     1      34.481 -17.689 -23.594  0.00  0.00    +0.003 C 
ATOM     24  C   UNL     1      35.295 -15.964 -22.110  0.00  0.00    +0.003 C 
ATOM     25  C   UNL     1      35.158 -18.251 -21.344  0.00  0.00    +0.000 C 
ATOM     26  C   UNL     1      34.661 -18.638 -22.588  0.00  0.00    +0.000 C 
ATOM     27  C   UNL     1      35.475 -16.914 -21.104  0.00  0.00    +0.000 C 
BRANCH  25  28
ATOM     28  C   UNL     1      35.344 -19.236 -20.300  0.00  0.00    +0.000 C 
ATOM     29  C   UNL     1      36.625 -19.503 -19.815  0.00  0.00    +0.003 C 
ATOM     30  C   UNL     1      34.244 -19.919 -19.781  0.00  0.00    +0.003 C 
ATOM     31  C   UNL     1      36.805 -20.453 -18.810  0.00  0.00    +0.037 C 
ATOM     32  C   UNL     1      34.425 -20.869 -18.776  0.00  0.00    +0.037 C 
ATOM     33  C   UNL     1      35.705 -21.137 -18.291  0.00  0.00    +0.139 C 
BRANCH  33  34
ATOM     34  O   UNL     1      35.882 -22.063 -17.308  0.00  0.00    -0.475 OA
BRANCH  34  35
ATOM     35  C   UNL     1      36.620 -21.655 -16.157  0.00  0.00    +0.206 C 
ATOM     36  C   UNL     1      36.002 -22.285 -14.927  0.00  0.00    +0.051 C 
ENDBRANCH  34  35
ENDBRANCH  33  34
ENDBRANCH  25  28
ENDBRANCH  21  22
ENDBRANCH  19  21
ENDBRANCH   1  19
TORSDOF 11
ENDMDL
MODEL 9
REMARK VINA RESULT:     -11.6      4.883     13.792
REMARK  Name = 448384
REMARK  11 active torsions:
REMARK  status: ('A' for Active; 'I' for Inactive)
REMARK    1  A    between atoms: C_1  and  C_3
REMARK    2  A    between atoms: C_1  and  C_6
REMARK    3  A    between atoms: C_1  and  C_19
REMARK    4  A    between atoms: C_3  and  O_4
REMARK    5  A    between atoms: C_6  and  C_7
REMARK    6  A    between atoms: C_7  and  N_10
REMARK    7  A    between atoms: C_19  and  C_21
REMARK    8  A    between atoms: C_21  and  C_22
REMARK    9  A    between atoms: C_25  and  C_28
REMARK   10  A    between atoms: C_33  and  O_34
REMARK   11  A    between atoms: O_34  and  C_35
REMARK                            x       y       z     vdW  Elec       q    Type
REMARK                         _______ _______ _______ _____ _____    ______ ____
ROOT
ATOM      1  C   UNL     1      34.005 -13.039 -24.322  0.00  0.00    +0.108 C 
ENDROOT
BRANCH   1   3
ATOM      2  O   UNL     1      33.481 -11.193 -25.819  0.00  0.00    -0.250 OA
ATOM      3  C   UNL     1      33.898 -12.335 -25.668  0.00  0.00    +0.314 C 
BRANCH   3   4
ATOM      4  O   UNL     1      34.323 -13.105 -26.701  0.00  0.00    -0.480 OA
ATOM      5  H   UNL     1      35.142 -12.921 -27.116  0.00  0.00    +0.295 HD
ENDBRANCH   3   4
ENDBRANCH   1   3
BRANCH   1   6
ATOM      6  C   UNL     1      33.141 -12.310 -23.272  0.00  0.00    +0.034 C 
BRANCH   6   7
ATOM      7  C   UNL     1      33.918 -11.305 -22.422  0.00  0.00    +0.102 C 
BRANCH   7  10
ATOM      8  O   UNL     1      35.374  -9.188 -23.933  0.00  0.00    -0.269 OA
ATOM      9  O   UNL     1      31.465  -9.854 -21.537  0.00  0.00    -0.269 OA
ATOM     10  N   UNL     1      33.536  -9.943 -22.664  0.00  0.00    -0.223 N 
ATOM     11  C   UNL     1      34.296  -9.037 -23.389  0.00  0.00    +0.255 C 
ATOM     12  C   UNL     1      32.360  -9.369 -22.203  0.00  0.00    +0.255 C 
ATOM     13  C   UNL     1      33.538  -7.786 -23.399  0.00  0.00    +0.058 C 
ATOM     14  C   UNL     1      32.367  -7.987 -22.682  0.00  0.00    +0.058 C 
ATOM     15  C   UNL     1      33.838  -6.572 -23.981  0.00  0.00    +0.005 C 
ATOM     16  C   UNL     1      31.436  -6.985 -22.509  0.00  0.00    +0.005 C 
ATOM     17  C   UNL     1      32.909  -5.541 -23.819  0.00  0.00    +0.000 C 
ATOM     18  C   UNL     1      31.719  -5.745 -23.089  0.00  0.00    +0.000 C 
ENDBRANCH   7  10
ENDBRANCH   6   7
ENDBRANCH   1   6
BRANCH   1  19
ATOM     19  C   UNL     1      33.528 -14.494 -24.493  0.00  0.00    +0.080 C 
BRANCH  19  21
ATOM     20  O   UNL     1      35.464 -15.519 -25.515  0.00  0.00    -0.291 OA
ATOM     21  C   UNL     1      34.677 -15.494 -24.571  0.00  0.00    +0.174 C 
BRANCH  21  22
ATOM     22  C   UNL     1      34.841 -16.480 -23.464  0.00  0.00    +0.035 C 
ATOM     23  C   UNL     1      34.538 -17.826 -23.676  0.00  0.00    +0.003 C 
ATOM     24  C   UNL     1      35.298 -16.057 -22.216  0.00  0.00    +0.003 C 
ATOM     25  C   UNL     1      35.149 -18.323 -21.393  0.00  0.00    +0.000 C 
ATOM     26  C   UNL     1      34.691 -18.747 -22.641  0.00  0.00    +0.000 C 
ATOM     27  C   UNL     1      35.452 -16.979 -21.180  0.00  0.00    +0.000 C 
BRANCH  25  28
ATOM     28  C   UNL     1      35.308 -19.279 -20.318  0.00  0.00    +0.000 C 
ATOM     29  C   UNL     1      36.578 -19.548 -19.807  0.00  0.00    +0.003 C 
ATOM     30  C   UNL     1      34.192 -19.933 -19.794  0.00  0.00    +0.003 C 
ATOM     31  C   UNL     1      36.732 -20.470 -18.772  0.00  0.00    +0.037 C 
ATOM     32  C   UNL     1      34.347 -20.854 -18.759  0.00  0.00    +0.037 C 
ATOM     33  C   UNL     1      35.617 -21.124 -18.248  0.00  0.00    +0.139 C 
BRANCH  33  34
ATOM     34  O   UNL     1      35.768 -22.022 -17.236  0.00  0.00    -0.475 OA
BRANCH  34  35
ATOM     35  C   UNL     1      36.601 -21.635 -16.144  0.00  0.00    +0.206 C 
ATOM     36  C   UNL     1      36.033 -22.209 -14.863  0.00  0.00    +0.051 C 
ENDBRANCH  34  35
ENDBRANCH  33  34
ENDBRANCH  25  28
ENDBRANCH  21  22
ENDBRANCH  19  21
ENDBRANCH   1  19
TORSDOF 11
ENDMDL
