MODEL 1
REMARK VINA RESULT:     -10.5      0.000      0.000
REMARK  Name = 25011730
REMARK  4 active torsions:
REMARK  status: ('A' for Active; 'I' for Inactive)
REMARK    1  A    between atoms: N_1  and  C_15
REMARK    2  A    between atoms: N_2  and  C_22
REMARK    3  A    between atoms: C_21  and  N_27
REMARK    4  A    between atoms: N_27  and  S_29
REMARK                            x       y       z     vdW  Elec       q    Type
REMARK                         _______ _______ _______ _____ _____    ______ ____
ROOT
ATOM      1  N   UNL     1      35.010 -24.857 -13.439  0.00  0.00    -0.284 N 
ATOM      2  N   UNL     1      33.399 -21.848 -16.702  0.00  0.00    -0.247 N 
ATOM      3  N   UNL     1      34.221 -23.340 -15.089  0.00  0.00    -0.322 NA
ATOM      4  N   UNL     1      31.868 -22.840 -15.227  0.00  0.00    -0.170 NA
ATOM      5  C   UNL     1      33.947 -24.165 -14.057  0.00  0.00    +0.198 C 
ATOM      6  C   UNL     1      33.150 -22.719 -15.619  0.00  0.00    +0.150 C 
ATOM      7  C   UNL     1      32.677 -24.375 -13.560  0.00  0.00    +0.070 C 
ATOM      8  C   UNL     1      31.666 -23.680 -14.191  0.00  0.00    +0.116 C 
ATOM      9  H   UNL     1      34.747 -25.727 -13.061  0.00  0.00    +0.155 HD
ATOM     10  H   UNL     1      32.588 -21.417 -17.057  0.00  0.00    +0.165 HD
ENDROOT
BRANCH   1  15
ATOM     11 CL   UNL     1      36.982 -26.209 -15.335  0.00  0.00    -0.081 Cl
ATOM     12  O   UNL     1      35.935 -23.044 -11.386  0.00  0.00    -0.433 OA
ATOM     13  O   UNL     1      38.252 -22.486 -11.028  0.00  0.00    -0.435 OA
ATOM     14  C   UNL     1      36.762 -23.679 -12.261  0.00  0.00    +0.191 C 
ATOM     15  C   UNL     1      36.370 -24.551 -13.257  0.00  0.00    +0.098 C 
ATOM     16  C   UNL     1      38.085 -23.360 -12.056  0.00  0.00    +0.178 C 
ATOM     17  C   UNL     1      37.369 -25.106 -14.061  0.00  0.00    +0.074 C 
ATOM     18  C   UNL     1      39.090 -23.896 -12.836  0.00  0.00    +0.041 C 
ATOM     19  C   UNL     1      36.887 -22.291 -10.607  0.00  0.00    +0.429 C 
ATOM     20  C   UNL     1      38.721 -24.781 -13.852  0.00  0.00    +0.016 C 
ENDBRANCH   1  15
BRANCH   2  22
ATOM     21  C   UNL     1      35.677 -20.579 -19.330  0.00  0.00    +0.066 C 
ATOM     22  C   UNL     1      34.578 -21.474 -17.374  0.00  0.00    +0.059 C 
ATOM     23  C   UNL     1      34.509 -20.949 -18.664  0.00  0.00    +0.031 C 
ATOM     24  C   UNL     1      36.915 -20.734 -18.706  0.00  0.00    +0.016 C 
ATOM     25  C   UNL     1      35.816 -21.630 -16.750  0.00  0.00    +0.015 C 
ATOM     26  C   UNL     1      36.984 -21.260 -17.415  0.00  0.00    +0.003 C 
BRANCH  21  27
ATOM     27  N   UNL     1      35.607 -20.041 -20.651  0.00  0.00    -0.219 N 
ATOM     28  H   UNL     1      35.296 -20.591 -21.405  0.00  0.00    +0.173 HD
BRANCH  27  29
ATOM     29  S   UNL     1      36.082 -18.403 -20.888  0.00  0.00    +0.056 S 
ATOM     30  O   UNL     1      35.371 -17.577 -19.930  0.00  0.00    -0.154 OA
ATOM     31  O   UNL     1      37.520 -18.295 -21.029  0.00  0.00    -0.154 OA
ATOM     32  C   UNL     1      35.353 -18.091 -22.480  0.00  0.00    +0.200 C 
ENDBRANCH  27  29
ENDBRANCH  21  27
ENDBRANCH   2  22
TORSDOF 4
ENDMDL
MODEL 2
REMARK VINA RESULT:     -10.0      3.555      7.245
REMARK  Name = 25011730
REMARK  4 active torsions:
REMARK  status: ('A' for Active; 'I' for Inactive)
REMARK    1  A    between atoms: N_1  and  C_15
REMARK    2  A    between atoms: N_2  and  C_22
REMARK    3  A    between atoms: C_21  and  N_27
REMARK    4  A    between atoms: N_27  and  S_29
REMARK                            x       y       z     vdW  Elec       q    Type
REMARK                         _______ _______ _______ _____ _____    ______ ____
ROOT
ATOM      1  N   UNL     1      33.260 -22.637 -16.986  0.00  0.00    -0.284 N 
ATOM      2  N   UNL     1      37.816 -21.684 -16.196  0.00  0.00    -0.247 N 
ATOM      3  N   UNL     1      35.552 -22.172 -16.570  0.00  0.00    -0.322 NA
ATOM      4  N   UNL     1      36.763 -20.705 -18.050  0.00  0.00    -0.170 NA
ATOM      5  C   UNL     1      34.460 -21.984 -17.339  0.00  0.00    +0.198 C 
ATOM      6  C   UNL     1      36.653 -21.511 -16.977  0.00  0.00    +0.150 C 
ATOM      7  C   UNL     1      34.441 -21.184 -18.463  0.00  0.00    +0.070 C 
ATOM      8  C   UNL     1      35.633 -20.564 -18.773  0.00  0.00    +0.116 C 
ATOM      9  H   UNL     1      32.686 -22.851 -17.757  0.00  0.00    +0.155 HD
ATOM     10  H   UNL     1      38.596 -21.183 -16.531  0.00  0.00    +0.165 HD
ENDROOT
BRANCH   1  15
ATOM     11 CL   UNL     1      35.117 -24.186 -15.125  0.00  0.00    -0.081 Cl
ATOM     12  O   UNL     1      30.536 -22.053 -16.210  0.00  0.00    -0.433 OA
ATOM     13  O   UNL     1      29.562 -22.724 -14.110  0.00  0.00    -0.435 OA
ATOM     14  C   UNL     1      31.414 -22.739 -15.427  0.00  0.00    +0.191 C 
ATOM     15  C   UNL     1      32.721 -23.043 -15.752  0.00  0.00    +0.098 C 
ATOM     16  C   UNL     1      30.857 -23.122 -14.228  0.00  0.00    +0.178 C 
ATOM     17  C   UNL     1      33.471 -23.758 -14.815  0.00  0.00    +0.074 C 
ATOM     18  C   UNL     1      31.577 -23.830 -13.287  0.00  0.00    +0.041 C 
ATOM     19  C   UNL     1      29.364 -22.048 -15.369  0.00  0.00    +0.429 C 
ATOM     20  C   UNL     1      32.903 -24.149 -13.590  0.00  0.00    +0.016 C 
ENDBRANCH   1  15
BRANCH   2  22
ATOM     21  C   UNL     1      37.787 -22.779 -12.659  0.00  0.00    +0.066 C 
ATOM     22  C   UNL     1      38.081 -22.430 -15.031  0.00  0.00    +0.059 C 
ATOM     23  C   UNL     1      37.525 -22.041 -13.813  0.00  0.00    +0.031 C 
ATOM     24  C   UNL     1      38.605 -23.907 -12.724  0.00  0.00    +0.016 C 
ATOM     25  C   UNL     1      38.899 -23.557 -15.096  0.00  0.00    +0.015 C 
ATOM     26  C   UNL     1      39.161 -24.296 -13.943  0.00  0.00    +0.003 C 
BRANCH  21  27
ATOM     27  N   UNL     1      37.217 -22.380 -11.412  0.00  0.00    -0.219 N 
ATOM     28  H   UNL     1      37.466 -21.526 -10.992  0.00  0.00    +0.173 HD
BRANCH  27  29
ATOM     29  S   UNL     1      36.083 -23.437 -10.662  0.00  0.00    +0.056 S 
ATOM     30  O   UNL     1      36.401 -23.522  -9.248  0.00  0.00    -0.154 OA
ATOM     31  O   UNL     1      34.733 -23.141 -11.096  0.00  0.00    -0.154 OA
ATOM     32  C   UNL     1      36.564 -24.986 -11.392  0.00  0.00    +0.200 C 
ENDBRANCH  27  29
ENDBRANCH  21  27
ENDBRANCH   2  22
TORSDOF 4
ENDMDL
MODEL 3
REMARK VINA RESULT:      -9.8      1.881      2.393
REMARK  Name = 25011730
REMARK  4 active torsions:
REMARK  status: ('A' for Active; 'I' for Inactive)
REMARK    1  A    between atoms: N_1  and  C_15
REMARK    2  A    between atoms: N_2  and  C_22
REMARK    3  A    between atoms: C_21  and  N_27
REMARK    4  A    between atoms: N_27  and  S_29
REMARK                            x       y       z     vdW  Elec       q    Type
REMARK                         _______ _______ _______ _____ _____    ______ ____
ROOT
ATOM      1  N   UNL     1      33.870 -24.595 -13.932  0.00  0.00    -0.284 N 
ATOM      2  N   UNL     1      32.680 -21.609 -17.391  0.00  0.00    -0.247 N 
ATOM      3  N   UNL     1      33.294 -23.090 -15.678  0.00  0.00    -0.322 NA
ATOM      4  N   UNL     1      30.979 -22.559 -16.084  0.00  0.00    -0.170 NA
ATOM      5  C   UNL     1      32.894 -23.896 -14.673  0.00  0.00    +0.198 C 
ATOM      6  C   UNL     1      32.298 -22.461 -16.332  0.00  0.00    +0.150 C 
ATOM      7  C   UNL     1      31.573 -24.082 -14.318  0.00  0.00    +0.070 C 
ATOM      8  C   UNL     1      30.650 -23.381 -15.066  0.00  0.00    +0.116 C 
ATOM      9  H   UNL     1      33.554 -25.455 -13.574  0.00  0.00    +0.155 HD
ATOM     10  H   UNL     1      31.920 -21.172 -17.840  0.00  0.00    +0.165 HD
ENDROOT
BRANCH   1  15
ATOM     11 CL   UNL     1      34.324 -22.375 -11.887  0.00  0.00    -0.081 Cl
ATOM     12  O   UNL     1      36.105 -26.006 -15.105  0.00  0.00    -0.433 OA
ATOM     13  O   UNL     1      38.412 -25.549 -14.579  0.00  0.00    -0.435 OA
ATOM     14  C   UNL     1      36.239 -25.007 -14.190  0.00  0.00    +0.191 C 
ATOM     15  C   UNL     1      35.207 -24.305 -13.602  0.00  0.00    +0.098 C 
ATOM     16  C   UNL     1      37.556 -24.746 -13.890  0.00  0.00    +0.178 C 
ATOM     17  C   UNL     1      35.543 -23.310 -12.680  0.00  0.00    +0.074 C 
ATOM     18  C   UNL     1      37.915 -23.769 -12.984  0.00  0.00    +0.041 C 
ATOM     19  C   UNL     1      37.486 -26.344 -15.348  0.00  0.00    +0.429 C 
ATOM     20  C   UNL     1      36.889 -23.044 -12.372  0.00  0.00    +0.016 C 
ENDBRANCH   1  15
BRANCH   2  22
ATOM     21  C   UNL     1      35.243 -20.216 -19.671  0.00  0.00    +0.066 C 
ATOM     22  C   UNL     1      33.933 -21.262 -17.932  0.00  0.00    +0.059 C 
ATOM     23  C   UNL     1      34.002 -20.560 -19.135  0.00  0.00    +0.031 C 
ATOM     24  C   UNL     1      36.414 -20.573 -19.003  0.00  0.00    +0.016 C 
ATOM     25  C   UNL     1      35.104 -21.619 -17.264  0.00  0.00    +0.015 C 
ATOM     26  C   UNL     1      36.344 -21.275 -17.799  0.00  0.00    +0.003 C 
BRANCH  21  27
ATOM     27  N   UNL     1      35.314 -19.497 -20.903  0.00  0.00    -0.219 N 
ATOM     28  H   UNL     1      34.869 -19.836 -21.712  0.00  0.00    +0.173 HD
BRANCH  27  29
ATOM     29  S   UNL     1      36.201 -18.022 -20.933  0.00  0.00    +0.056 S 
ATOM     30  O   UNL     1      35.662 -17.143 -19.911  0.00  0.00    -0.154 OA
ATOM     31  O   UNL     1      37.626 -18.274 -21.012  0.00  0.00    -0.154 OA
ATOM     32  C   UNL     1      35.675 -17.370 -22.502  0.00  0.00    +0.200 C 
ENDBRANCH  27  29
ENDBRANCH  21  27
ENDBRANCH   2  22
TORSDOF 4
ENDMDL
MODEL 4
REMARK VINA RESULT:      -9.4      8.545     13.982
REMARK  Name = 25011730
REMARK  4 active torsions:
REMARK  status: ('A' for Active; 'I' for Inactive)
REMARK    1  A    between atoms: N_1  and  C_15
REMARK    2  A    between atoms: N_2  and  C_22
REMARK    3  A    between atoms: C_21  and  N_27
REMARK    4  A    between atoms: N_27  and  S_29
REMARK                            x       y       z     vdW  Elec       q    Type
REMARK                         _______ _______ _______ _____ _____    ______ ____
ROOT
ATOM      1  N   UNL     1      32.503  -8.931 -22.820  0.00  0.00    -0.284 N 
ATOM      2  N   UNL     1      34.514 -13.178 -23.282  0.00  0.00    -0.247 N 
ATOM      3  N   UNL     1      33.509 -11.073 -23.030  0.00  0.00    -0.322 NA
ATOM      4  N   UNL     1      34.548 -11.708 -25.110  0.00  0.00    -0.170 NA
ATOM      5  C   UNL     1      33.199  -9.886 -23.591  0.00  0.00    +0.198 C 
ATOM      6  C   UNL     1      34.174 -11.925 -23.835  0.00  0.00    +0.150 C 
ATOM      7  C   UNL     1      33.526  -9.541 -24.886  0.00  0.00    +0.070 C 
ATOM      8  C   UNL     1      34.206 -10.501 -25.606  0.00  0.00    +0.116 C 
ATOM      9  H   UNL     1      31.924  -8.340 -23.353  0.00  0.00    +0.155 HD
ATOM     10  H   UNL     1      34.998 -13.767 -23.905  0.00  0.00    +0.165 HD
ENDROOT
BRANCH   1  15
ATOM     11 CL   UNL     1      34.156  -6.550 -21.864  0.00  0.00    -0.081 Cl
ATOM     12  O   UNL     1      30.967 -10.513 -20.950  0.00  0.00    -0.433 OA
ATOM     13  O   UNL     1      30.881 -10.088 -18.579  0.00  0.00    -0.435 OA
ATOM     14  C   UNL     1      31.724  -9.441 -20.588  0.00  0.00    +0.191 C 
ATOM     15  C   UNL     1      32.473  -8.655 -21.441  0.00  0.00    +0.098 C 
ATOM     16  C   UNL     1      31.675  -9.199 -19.234  0.00  0.00    +0.178 C 
ATOM     17  C   UNL     1      33.188  -7.593 -20.882  0.00  0.00    +0.074 C 
ATOM     18  C   UNL     1      32.373  -8.156 -18.658  0.00  0.00    +0.041 C 
ATOM     19  C   UNL     1      30.436 -10.918 -19.671  0.00  0.00    +0.429 C 
ATOM     20  C   UNL     1      33.138  -7.345 -19.499  0.00  0.00    +0.016 C 
ENDBRANCH   1  15
BRANCH   2  22
ATOM     21  C   UNL     1      34.848 -15.414 -20.350  0.00  0.00    +0.066 C 
ATOM     22  C   UNL     1      34.299 -13.751 -22.014  0.00  0.00    +0.059 C 
ATOM     23  C   UNL     1      35.062 -14.845 -21.605  0.00  0.00    +0.031 C 
ATOM     24  C   UNL     1      33.872 -14.889 -19.503  0.00  0.00    +0.016 C 
ATOM     25  C   UNL     1      33.322 -13.227 -21.168  0.00  0.00    +0.015 C 
ATOM     26  C   UNL     1      33.108 -13.794 -19.913  0.00  0.00    +0.003 C 
BRANCH  21  27
ATOM     27  N   UNL     1      35.629 -16.533 -19.930  0.00  0.00    -0.219 N 
ATOM     28  H   UNL     1      36.036 -16.558 -19.035  0.00  0.00    +0.173 HD
BRANCH  27  29
ATOM     29  S   UNL     1      35.841 -17.837 -21.035  0.00  0.00    +0.056 S 
ATOM     30  O   UNL     1      34.532 -18.355 -21.387  0.00  0.00    -0.154 OA
ATOM     31  O   UNL     1      36.799 -17.493 -22.066  0.00  0.00    -0.154 OA
ATOM     32  C   UNL     1      36.599 -19.037 -19.964  0.00  0.00    +0.200 C 
ENDBRANCH  27  29
ENDBRANCH  21  27
ENDBRANCH   2  22
TORSDOF 4
ENDMDL
MODEL 5
REMARK VINA RESULT:      -9.4      3.401      6.515
REMARK  Name = 25011730
REMARK  4 active torsions:
REMARK  status: ('A' for Active; 'I' for Inactive)
REMARK    1  A    between atoms: N_1  and  C_15
REMARK    2  A    between atoms: N_2  and  C_22
REMARK    3  A    between atoms: C_21  and  N_27
REMARK    4  A    between atoms: N_27  and  S_29
REMARK                            x       y       z     vdW  Elec       q    Type
REMARK                         _______ _______ _______ _____ _____    ______ ____
ROOT
ATOM      1  N   UNL     1      33.331 -21.896 -16.367  0.00  0.00    -0.284 N 
ATOM      2  N   UNL     1      34.298 -24.442 -12.509  0.00  0.00    -0.247 N 
ATOM      3  N   UNL     1      33.840 -23.169 -14.426  0.00  0.00    -0.322 NA
ATOM      4  N   UNL     1      32.141 -24.554 -13.425  0.00  0.00    -0.170 NA
ATOM      5  C   UNL     1      32.937 -22.801 -15.359  0.00  0.00    +0.198 C 
ATOM      6  C   UNL     1      33.381 -24.035 -13.502  0.00  0.00    +0.150 C 
ATOM      7  C   UNL     1      31.637 -23.261 -15.391  0.00  0.00    +0.070 C 
ATOM      8  C   UNL     1      31.291 -24.144 -14.389  0.00  0.00    +0.116 C 
ATOM      9  H   UNL     1      32.597 -21.331 -16.699  0.00  0.00    +0.155 HD
ATOM     10  H   UNL     1      33.920 -25.074 -11.856  0.00  0.00    +0.165 HD
ENDROOT
BRANCH   1  15
ATOM     11 CL   UNL     1      33.265 -21.424 -19.381  0.00  0.00    -0.081 Cl
ATOM     12  O   UNL     1      35.828 -21.816 -14.910  0.00  0.00    -0.433 OA
ATOM     13  O   UNL     1      37.969 -21.388 -15.931  0.00  0.00    -0.435 OA
ATOM     14  C   UNL     1      35.730 -21.615 -16.253  0.00  0.00    +0.191 C 
ATOM     15  C   UNL     1      34.566 -21.643 -16.993  0.00  0.00    +0.098 C 
ATOM     16  C   UNL     1      36.953 -21.371 -16.836  0.00  0.00    +0.178 C 
ATOM     17  C   UNL     1      34.666 -21.411 -18.367  0.00  0.00    +0.074 C 
ATOM     18  C   UNL     1      37.078 -21.140 -18.191  0.00  0.00    +0.041 C 
ATOM     19  C   UNL     1      37.249 -21.671 -14.713  0.00  0.00    +0.429 C 
ATOM     20  C   UNL     1      35.914 -21.161 -18.963  0.00  0.00    +0.016 C 
ENDBRANCH   1  15
BRANCH   2  22
ATOM     21  C   UNL     1      37.990 -24.700 -12.401  0.00  0.00    +0.066 C 
ATOM     22  C   UNL     1      35.648 -24.122 -12.269  0.00  0.00    +0.059 C 
ATOM     23  C   UNL     1      36.653 -25.016 -12.639  0.00  0.00    +0.031 C 
ATOM     24  C   UNL     1      38.323 -23.489 -11.794  0.00  0.00    +0.016 C 
ATOM     25  C   UNL     1      35.981 -22.911 -11.663  0.00  0.00    +0.015 C 
ATOM     26  C   UNL     1      37.318 -22.594 -11.425  0.00  0.00    +0.003 C 
BRANCH  21  27
ATOM     27  N   UNL     1      39.019 -25.615 -12.779  0.00  0.00    -0.219 N 
ATOM     28  H   UNL     1      38.988 -26.556 -12.493  0.00  0.00    +0.173 HD
BRANCH  27  29
ATOM     29  S   UNL     1      40.314 -25.027 -13.750  0.00  0.00    +0.056 S 
ATOM     30  O   UNL     1      40.912 -23.890 -13.075  0.00  0.00    -0.154 OA
ATOM     31  O   UNL     1      41.139 -26.117 -14.229  0.00  0.00    -0.154 OA
ATOM     32  C   UNL     1      39.402 -24.383 -15.135  0.00  0.00    +0.200 C 
ENDBRANCH  27  29
ENDBRANCH  21  27
ENDBRANCH   2  22
TORSDOF 4
ENDMDL
MODEL 6
REMARK VINA RESULT:      -9.0      3.827      7.282
REMARK  Name = 25011730
REMARK  4 active torsions:
REMARK  status: ('A' for Active; 'I' for Inactive)
REMARK    1  A    between atoms: N_1  and  C_15
REMARK    2  A    between atoms: N_2  and  C_22
REMARK    3  A    between atoms: C_21  and  N_27
REMARK    4  A    between atoms: N_27  and  S_29
REMARK                            x       y       z     vdW  Elec       q    Type
REMARK                         _______ _______ _______ _____ _____    ______ ____
ROOT
ATOM      1  N   UNL     1      32.376 -22.516 -17.223  0.00  0.00    -0.284 N 
ATOM      2  N   UNL     1      36.924 -21.722 -16.229  0.00  0.00    -0.247 N 
ATOM      3  N   UNL     1      34.662 -22.130 -16.703  0.00  0.00    -0.322 NA
ATOM      4  N   UNL     1      36.013 -20.783 -18.176  0.00  0.00    -0.170 NA
ATOM      5  C   UNL     1      33.621 -21.931 -17.537  0.00  0.00    +0.198 C 
ATOM      6  C   UNL     1      35.812 -21.536 -17.078  0.00  0.00    +0.150 C 
ATOM      7  C   UNL     1      33.697 -21.181 -18.693  0.00  0.00    +0.070 C 
ATOM      8  C   UNL     1      34.930 -20.626 -18.965  0.00  0.00    +0.116 C 
ATOM      9  H   UNL     1      31.834 -22.739 -18.013  0.00  0.00    +0.155 HD
ATOM     10  H   UNL     1      37.741 -21.271 -16.542  0.00  0.00    +0.165 HD
ENDROOT
BRANCH   1  15
ATOM     11 CL   UNL     1      34.095 -23.968 -15.161  0.00  0.00    -0.081 Cl
ATOM     12  O   UNL     1      29.617 -21.862 -16.655  0.00  0.00    -0.433 OA
ATOM     13  O   UNL     1      28.505 -22.399 -14.585  0.00  0.00    -0.435 OA
ATOM     14  C   UNL     1      30.436 -22.509 -15.780  0.00  0.00    +0.191 C 
ATOM     15  C   UNL     1      31.756 -22.842 -16.003  0.00  0.00    +0.098 C 
ATOM     16  C   UNL     1      29.800 -22.816 -14.598  0.00  0.00    +0.178 C 
ATOM     17  C   UNL     1      32.438 -23.507 -14.980  0.00  0.00    +0.074 C 
ATOM     18  C   UNL     1      30.451 -23.472 -13.573  0.00  0.00    +0.041 C 
ATOM     19  C   UNL     1      28.395 -21.797 -15.891  0.00  0.00    +0.429 C 
ATOM     20  C   UNL     1      31.789 -23.821 -13.773  0.00  0.00    +0.016 C 
ENDBRANCH   1  15
BRANCH   2  22
ATOM     21  C   UNL     1      38.029 -24.290 -13.801  0.00  0.00    +0.066 C 
ATOM     22  C   UNL     1      37.094 -22.426 -15.021  0.00  0.00    +0.059 C 
ATOM     23  C   UNL     1      37.861 -23.591 -14.996  0.00  0.00    +0.031 C 
ATOM     24  C   UNL     1      37.431 -23.823 -12.630  0.00  0.00    +0.016 C 
ATOM     25  C   UNL     1      36.495 -21.960 -13.852  0.00  0.00    +0.015 C 
ATOM     26  C   UNL     1      36.664 -22.657 -12.656  0.00  0.00    +0.003 C 
BRANCH  21  27
ATOM     27  N   UNL     1      38.815 -25.482 -13.775  0.00  0.00    -0.219 N 
ATOM     28  H   UNL     1      38.436 -26.329 -13.448  0.00  0.00    +0.173 HD
BRANCH  27  29
ATOM     29  S   UNL     1      40.442 -25.396 -14.330  0.00  0.00    +0.056 S 
ATOM     30  O   UNL     1      41.208 -26.436 -13.669  0.00  0.00    -0.154 OA
ATOM     31  O   UNL     1      40.492 -25.248 -15.771  0.00  0.00    -0.154 OA
ATOM     32  C   UNL     1      40.941 -23.849 -13.607  0.00  0.00    +0.200 C 
ENDBRANCH  27  29
ENDBRANCH  21  27
ENDBRANCH   2  22
TORSDOF 4
ENDMDL
MODEL 7
REMARK VINA RESULT:      -8.9      3.664      7.519
REMARK  Name = 25011730
REMARK  4 active torsions:
REMARK  status: ('A' for Active; 'I' for Inactive)
REMARK    1  A    between atoms: N_1  and  C_15
REMARK    2  A    between atoms: N_2  and  C_22
REMARK    3  A    between atoms: C_21  and  N_27
REMARK    4  A    between atoms: N_27  and  S_29
REMARK                            x       y       z     vdW  Elec       q    Type
REMARK                         _______ _______ _______ _____ _____    ______ ____
ROOT
ATOM      1  N   UNL     1      36.125 -21.618 -17.408  0.00  0.00    -0.284 N 
ATOM      2  N   UNL     1      33.965 -23.112 -13.483  0.00  0.00    -0.247 N 
ATOM      3  N   UNL     1      35.019 -22.374 -15.446  0.00  0.00    -0.322 NA
ATOM      4  N   UNL     1      36.213 -22.453 -13.354  0.00  0.00    -0.170 NA
ATOM      5  C   UNL     1      36.143 -21.907 -16.027  0.00  0.00    +0.198 C 
ATOM      6  C   UNL     1      35.123 -22.622 -14.126  0.00  0.00    +0.150 C 
ATOM      7  C   UNL     1      37.325 -21.691 -15.348  0.00  0.00    +0.070 C 
ATOM      8  C   UNL     1      37.301 -21.985 -14.000  0.00  0.00    +0.116 C 
ATOM      9  H   UNL     1      36.997 -21.740 -17.848  0.00  0.00    +0.155 HD
ATOM     10  H   UNL     1      34.088 -23.279 -12.521  0.00  0.00    +0.165 HD
ENDROOT
BRANCH   1  15
ATOM     11 CL   UNL     1      33.514 -23.196 -17.343  0.00  0.00    -0.081 Cl
ATOM     12  O   UNL     1      36.449 -19.363 -19.189  0.00  0.00    -0.433 OA
ATOM     13  O   UNL     1      34.742 -18.589 -20.704  0.00  0.00    -0.435 OA
ATOM     14  C   UNL     1      35.311 -20.108 -19.112  0.00  0.00    +0.191 C 
ATOM     15  C   UNL     1      35.108 -21.191 -18.281  0.00  0.00    +0.098 C 
ATOM     16  C   UNL     1      34.337 -19.666 -19.978  0.00  0.00    +0.178 C 
ATOM     17  C   UNL     1      33.868 -21.831 -18.343  0.00  0.00    +0.074 C 
ATOM     18  C   UNL     1      33.105 -20.282 -20.059  0.00  0.00    +0.041 C 
ATOM     19  C   UNL     1      36.080 -18.403 -20.201  0.00  0.00    +0.429 C 
ATOM     20  C   UNL     1      32.872 -21.380 -19.227  0.00  0.00    +0.016 C 
ENDBRANCH   1  15
BRANCH   2  22
ATOM     21  C   UNL     1      30.709 -22.783 -15.214  0.00  0.00    +0.066 C 
ATOM     22  C   UNL     1      32.670 -23.407 -13.948  0.00  0.00    +0.059 C 
ATOM     23  C   UNL     1      31.992 -22.491 -14.753  0.00  0.00    +0.031 C 
ATOM     24  C   UNL     1      30.102 -23.991 -14.870  0.00  0.00    +0.016 C 
ATOM     25  C   UNL     1      32.063 -24.615 -13.604  0.00  0.00    +0.015 C 
ATOM     26  C   UNL     1      30.780 -24.908 -14.065  0.00  0.00    +0.003 C 
BRANCH  21  27
ATOM     27  N   UNL     1      30.015 -21.845 -16.038  0.00  0.00    -0.219 N 
ATOM     28  H   UNL     1      30.486 -21.081 -16.440  0.00  0.00    +0.173 HD
BRANCH  27  29
ATOM     29  S   UNL     1      28.332 -22.089 -16.308  0.00  0.00    +0.056 S 
ATOM     30  O   UNL     1      27.816 -20.949 -17.043  0.00  0.00    -0.154 OA
ATOM     31  O   UNL     1      28.070 -23.440 -16.765  0.00  0.00    -0.154 OA
ATOM     32  C   UNL     1      27.722 -21.948 -14.644  0.00  0.00    +0.200 C 
ENDBRANCH  27  29
ENDBRANCH  21  27
ENDBRANCH   2  22
TORSDOF 4
ENDMDL
MODEL 8
REMARK VINA RESULT:      -8.8     11.951     15.606
REMARK  Name = 25011730
REMARK  4 active torsions:
REMARK  status: ('A' for Active; 'I' for Inactive)
REMARK    1  A    between atoms: N_1  and  C_15
REMARK    2  A    between atoms: N_2  and  C_22
REMARK    3  A    between atoms: C_21  and  N_27
REMARK    4  A    between atoms: N_27  and  S_29
REMARK                            x       y       z     vdW  Elec       q    Type
REMARK                         _______ _______ _______ _____ _____    ______ ____
ROOT
ATOM      1  N   UNL     1      32.921  -7.141 -20.429  0.00  0.00    -0.284 N 
ATOM      2  N   UNL     1      32.454 -11.816 -20.902  0.00  0.00    -0.247 N 
ATOM      3  N   UNL     1      32.695  -9.492 -20.689  0.00  0.00    -0.322 NA
ATOM      4  N   UNL     1      31.796 -10.814 -18.885  0.00  0.00    -0.170 NA
ATOM      5  C   UNL     1      32.541  -8.399 -19.913  0.00  0.00    +0.198 C 
ATOM      6  C   UNL     1      32.308 -10.650 -20.120  0.00  0.00    +0.150 C 
ATOM      7  C   UNL     1      32.030  -8.432 -18.632  0.00  0.00    +0.070 C 
ATOM      8  C   UNL     1      31.671  -9.680 -18.166  0.00  0.00    +0.116 C 
ATOM      9  H   UNL     1      33.226  -6.508 -19.740  0.00  0.00    +0.155 HD
ATOM     10  H   UNL     1      32.159 -12.638 -20.447  0.00  0.00    +0.165 HD
ENDROOT
BRANCH   1  15
ATOM     11 CL   UNL     1      30.714  -5.159 -21.148  0.00  0.00    -0.081 Cl
ATOM     12  O   UNL     1      34.947  -7.866 -22.359  0.00  0.00    -0.433 OA
ATOM     13  O   UNL     1      35.042  -6.994 -24.604  0.00  0.00    -0.435 OA
ATOM     14  C   UNL     1      33.937  -6.990 -22.618  0.00  0.00    +0.191 C 
ATOM     15  C   UNL     1      32.948  -6.612 -21.732  0.00  0.00    +0.098 C 
ATOM     16  C   UNL     1      33.991  -6.493 -23.899  0.00  0.00    +0.178 C 
ATOM     17  C   UNL     1      31.993  -5.697 -22.181  0.00  0.00    +0.074 C 
ATOM     18  C   UNL     1      33.059  -5.588 -24.367  0.00  0.00    +0.041 C 
ATOM     19  C   UNL     1      35.642  -7.864 -23.623  0.00  0.00    +0.429 C 
ATOM     20  C   UNL     1      32.048  -5.188 -23.490  0.00  0.00    +0.016 C 
ENDBRANCH   1  15
BRANCH   2  22
ATOM     21  C   UNL     1      33.301 -13.514 -24.081  0.00  0.00    +0.066 C 
ATOM     22  C   UNL     1      32.938 -12.035 -22.206  0.00  0.00    +0.059 C 
ATOM     23  C   UNL     1      32.821 -13.296 -22.790  0.00  0.00    +0.031 C 
ATOM     24  C   UNL     1      33.898 -12.470 -24.789  0.00  0.00    +0.016 C 
ATOM     25  C   UNL     1      33.535 -10.992 -22.913  0.00  0.00    +0.015 C 
ATOM     26  C   UNL     1      34.015 -11.208 -24.204  0.00  0.00    +0.003 C 
BRANCH  21  27
ATOM     27  N   UNL     1      33.181 -14.805 -24.680  0.00  0.00    -0.219 N 
ATOM     28  H   UNL     1      32.381 -15.049 -25.198  0.00  0.00    +0.173 HD
BRANCH  27  29
ATOM     29  S   UNL     1      34.475 -15.922 -24.470  0.00  0.00    +0.056 S 
ATOM     30  O   UNL     1      35.449 -15.698 -25.523  0.00  0.00    -0.154 OA
ATOM     31  O   UNL     1      34.890 -15.980 -23.083  0.00  0.00    -0.154 OA
ATOM     32  C   UNL     1      33.641 -17.445 -24.854  0.00  0.00    +0.200 C 
ENDBRANCH  27  29
ENDBRANCH  21  27
ENDBRANCH   2  22
TORSDOF 4
ENDMDL
MODEL 9
REMARK VINA RESULT:      -8.4      8.883     13.831
REMARK  Name = 25011730
REMARK  4 active torsions:
REMARK  status: ('A' for Active; 'I' for Inactive)
REMARK    1  A    between atoms: N_1  and  C_15
REMARK    2  A    between atoms: N_2  and  C_22
REMARK    3  A    between atoms: C_21  and  N_27
REMARK    4  A    between atoms: N_27  and  S_29
REMARK                            x       y       z     vdW  Elec       q    Type
REMARK                         _______ _______ _______ _____ _____    ______ ____
ROOT
ATOM      1  N   UNL     1      32.282  -9.264 -22.361  0.00  0.00    -0.284 N 
ATOM      2  N   UNL     1      34.754 -13.215 -23.121  0.00  0.00    -0.247 N 
ATOM      3  N   UNL     1      33.519 -11.260 -22.722  0.00  0.00    -0.322 NA
ATOM      4  N   UNL     1      34.691 -11.581 -24.804  0.00  0.00    -0.170 NA
ATOM      5  C   UNL     1      33.103 -10.063 -23.185  0.00  0.00    +0.198 C 
ATOM      6  C   UNL     1      34.299 -11.957 -23.571  0.00  0.00    +0.150 C 
ATOM      7  C   UNL     1      33.434  -9.564 -24.428  0.00  0.00    +0.070 C 
ATOM      8  C   UNL     1      34.238 -10.374 -25.202  0.00  0.00    +0.116 C 
ATOM      9  H   UNL     1      31.660  -8.689 -22.863  0.00  0.00    +0.155 HD
ATOM     10  H   UNL     1      35.320 -13.688 -23.774  0.00  0.00    +0.165 HD
ENDROOT
BRANCH   1  15
ATOM     11 CL   UNL     1      30.917 -11.546 -20.863  0.00  0.00    -0.081 Cl
ATOM     12  O   UNL     1      33.291  -6.956 -20.943  0.00  0.00    -0.433 OA
ATOM     13  O   UNL     1      33.134  -6.668 -18.555  0.00  0.00    -0.435 OA
ATOM     14  C   UNL     1      32.673  -8.005 -20.334  0.00  0.00    +0.191 C 
ATOM     15  C   UNL     1      32.175  -9.127 -20.965  0.00  0.00    +0.098 C 
ATOM     16  C   UNL     1      32.583  -7.840 -18.971  0.00  0.00    +0.178 C 
ATOM     17  C   UNL     1      31.571 -10.103 -20.169  0.00  0.00    +0.074 C 
ATOM     18  C   UNL     1      31.991  -8.789 -18.163  0.00  0.00    +0.041 C 
ATOM     19  C   UNL     1      33.580  -6.112 -19.809  0.00  0.00    +0.429 C 
ATOM     20  C   UNL     1      31.479  -9.936 -18.776  0.00  0.00    +0.016 C 
ENDBRANCH   1  15
BRANCH   2  22
ATOM     21  C   UNL     1      35.100 -15.790 -20.484  0.00  0.00    +0.066 C 
ATOM     22  C   UNL     1      34.559 -13.926 -21.922  0.00  0.00    +0.059 C 
ATOM     23  C   UNL     1      35.294 -15.085 -21.671  0.00  0.00    +0.031 C 
ATOM     24  C   UNL     1      34.171 -15.337 -19.547  0.00  0.00    +0.016 C 
ATOM     25  C   UNL     1      33.630 -13.474 -20.986  0.00  0.00    +0.015 C 
ATOM     26  C   UNL     1      33.436 -14.178 -19.798  0.00  0.00    +0.003 C 
BRANCH  21  27
ATOM     27  N   UNL     1      35.853 -16.976 -20.226  0.00  0.00    -0.219 N 
ATOM     28  H   UNL     1      36.734 -16.931 -19.791  0.00  0.00    +0.173 HD
BRANCH  27  29
ATOM     29  S   UNL     1      35.176 -18.487 -20.699  0.00  0.00    +0.056 S 
ATOM     30  O   UNL     1      36.138 -19.533 -20.401  0.00  0.00    -0.154 OA
ATOM     31  O   UNL     1      33.802 -18.602 -20.256  0.00  0.00    -0.154 OA
ATOM     32  C   UNL     1      35.164 -18.287 -22.467  0.00  0.00    +0.200 C 
ENDBRANCH  27  29
ENDBRANCH  21  27
ENDBRANCH   2  22
TORSDOF 4
ENDMDL
