MODEL 1
REMARK VINA RESULT:     -12.0      0.000      0.000
REMARK  Name = 11992146
REMARK  2 active torsions:
REMARK  status: ('A' for Active; 'I' for Inactive)
REMARK    1  A    between atoms: C_2  and  C_14
REMARK    2  A    between atoms: C_5  and  C_20
REMARK                            x       y       z     vdW  Elec       q    Type
REMARK                         _______ _______ _______ _____ _____    ______ ____
ROOT
ATOM      1  N   UNL     1      32.418 -21.812 -17.436  0.00  0.00    -0.244 NA
ATOM      2  C   UNL     1      34.279 -22.810 -15.606  0.00  0.00    +0.016 C 
ATOM      3  C   UNL     1      34.707 -22.061 -16.696  0.00  0.00    +0.020 C 
ATOM      4  C   UNL     1      32.924 -23.061 -15.428  0.00  0.00    +0.022 C 
ATOM      5  C   UNL     1      33.744 -21.589 -17.575  0.00  0.00    +0.084 C 
ATOM      6  C   UNL     1      32.041 -22.545 -16.364  0.00  0.00    +0.099 C 
ENDROOT
BRANCH   2  14
ATOM      7  O   UNL     1      35.989 -24.717 -10.616  0.00  0.00    -0.270 OA
ATOM      8  N   UNL     1      36.569 -23.457 -14.974  0.00  0.00    -0.316 N 
ATOM      9  N   UNL     1      38.062 -25.129 -11.550  0.00  0.00    -0.300 N 
ATOM     10  C   UNL     1      37.232 -23.962 -13.892  0.00  0.00    +0.031 C 
ATOM     11  C   UNL     1      38.686 -24.229 -13.804  0.00  0.00    +0.063 C 
ATOM     12  C   UNL     1      36.323 -24.166 -12.874  0.00  0.00    +0.064 C 
ATOM     13  C   UNL     1      38.900 -25.314 -12.741  0.00  0.00    +0.096 C 
ATOM     14  C   UNL     1      35.239 -23.326 -14.660  0.00  0.00    +0.048 C 
ATOM     15  C   UNL     1      35.059 -23.753 -13.359  0.00  0.00    +0.020 C 
ATOM     16  C   UNL     1      36.739 -24.689 -11.587  0.00  0.00    +0.247 C 
ATOM     17  H   UNL     1      36.980 -23.225 -15.839  0.00  0.00    +0.152 HD
ATOM     18  H   UNL     1      38.459 -25.328 -10.671  0.00  0.00    +0.150 HD
ENDBRANCH   2  14
BRANCH   5  20
ATOM     19  F   UNL     1      36.420 -21.247 -18.361  0.00  0.00    -0.204 F 
ATOM     20  C   UNL     1      34.112 -20.804 -18.729  0.00  0.00    +0.045 C 
ATOM     21  C   UNL     1      35.455 -20.659 -19.083  0.00  0.00    +0.142 C 
ATOM     22  C   UNL     1      33.122 -20.186 -19.495  0.00  0.00    +0.004 C 
ATOM     23  C   UNL     1      35.806 -19.896 -20.198  0.00  0.00    +0.030 C 
ATOM     24  C   UNL     1      33.472 -19.424 -20.609  0.00  0.00    +0.000 C 
ATOM     25  C   UNL     1      34.815 -19.279 -20.960  0.00  0.00    +0.002 C 
ENDBRANCH   5  20
TORSDOF 2
ENDMDL
MODEL 2
REMARK VINA RESULT:     -11.8      3.150      7.516
REMARK  Name = 11992146
REMARK  2 active torsions:
REMARK  status: ('A' for Active; 'I' for Inactive)
REMARK    1  A    between atoms: C_2  and  C_14
REMARK    2  A    between atoms: C_5  and  C_20
REMARK                            x       y       z     vdW  Elec       q    Type
REMARK                         _______ _______ _______ _____ _____    ______ ____
ROOT
ATOM      1  N   UNL     1      34.075 -24.063 -13.767  0.00  0.00    -0.244 NA
ATOM      2  C   UNL     1      34.279 -22.535 -16.097  0.00  0.00    +0.016 C 
ATOM      3  C   UNL     1      35.426 -23.022 -15.481  0.00  0.00    +0.020 C 
ATOM      4  C   UNL     1      33.031 -22.810 -15.551  0.00  0.00    +0.022 C 
ATOM      5  C   UNL     1      35.271 -23.775 -14.328  0.00  0.00    +0.084 C 
ATOM      6  C   UNL     1      32.984 -23.572 -14.393  0.00  0.00    +0.099 C 
ENDROOT
BRANCH   2  14
ATOM      7  O   UNL     1      32.301 -19.821 -20.590  0.00  0.00    -0.270 OA
ATOM      8  N   UNL     1      35.596 -21.389 -17.833  0.00  0.00    -0.316 N 
ATOM      9  N   UNL     1      34.455 -19.111 -21.035  0.00  0.00    -0.300 N 
ATOM     10  C   UNL     1      35.385 -20.655 -18.964  0.00  0.00    +0.031 C 
ATOM     11  C   UNL     1      36.431 -20.100 -19.855  0.00  0.00    +0.063 C 
ATOM     12  C   UNL     1      34.026 -20.529 -19.161  0.00  0.00    +0.064 C 
ATOM     13  C   UNL     1      35.833 -18.890 -20.583  0.00  0.00    +0.096 C 
ATOM     14  C   UNL     1      34.382 -21.746 -17.300  0.00  0.00    +0.048 C 
ATOM     15  C   UNL     1      33.388 -21.229 -18.109  0.00  0.00    +0.020 C 
ATOM     16  C   UNL     1      33.494 -19.803 -20.298  0.00  0.00    +0.247 C 
ATOM     17  H   UNL     1      36.478 -21.625 -17.460  0.00  0.00    +0.152 HD
ATOM     18  H   UNL     1      34.192 -18.748 -21.912  0.00  0.00    +0.150 HD
ENDBRANCH   2  14
BRANCH   5  20
ATOM     19  F   UNL     1      36.533 -26.151 -15.140  0.00  0.00    -0.204 F 
ATOM     20  C   UNL     1      36.416 -24.314 -13.633  0.00  0.00    +0.045 C 
ATOM     21  C   UNL     1      37.011 -25.499 -14.071  0.00  0.00    +0.142 C 
ATOM     22  C   UNL     1      36.931 -23.650 -12.518  0.00  0.00    +0.004 C 
ATOM     23  C   UNL     1      38.116 -26.018 -13.394  0.00  0.00    +0.030 C 
ATOM     24  C   UNL     1      38.034 -24.168 -11.842  0.00  0.00    +0.000 C 
ATOM     25  C   UNL     1      38.627 -25.353 -12.279  0.00  0.00    +0.002 C 
ENDBRANCH   5  20
TORSDOF 2
ENDMDL
MODEL 3
REMARK VINA RESULT:     -11.7      1.072      1.489
REMARK  Name = 11992146
REMARK  2 active torsions:
REMARK  status: ('A' for Active; 'I' for Inactive)
REMARK    1  A    between atoms: C_2  and  C_14
REMARK    2  A    between atoms: C_5  and  C_20
REMARK                            x       y       z     vdW  Elec       q    Type
REMARK                         _______ _______ _______ _____ _____    ______ ____
ROOT
ATOM      1  N   UNL     1      33.011 -21.540 -18.004  0.00  0.00    -0.244 NA
ATOM      2  C   UNL     1      34.649 -22.605 -16.007  0.00  0.00    +0.016 C 
ATOM      3  C   UNL     1      35.197 -21.810 -17.006  0.00  0.00    +0.020 C 
ATOM      4  C   UNL     1      33.285 -22.869 -16.003  0.00  0.00    +0.022 C 
ATOM      5  C   UNL     1      34.342 -21.306 -17.974  0.00  0.00    +0.084 C 
ATOM      6  C   UNL     1      32.515 -22.318 -17.016  0.00  0.00    +0.099 C 
ENDROOT
BRANCH   2  14
ATOM      7  O   UNL     1      35.809 -24.536 -10.870  0.00  0.00    -0.270 OA
ATOM      8  N   UNL     1      36.839 -23.354 -15.166  0.00  0.00    -0.316 N 
ATOM      9  N   UNL     1      37.936 -25.057 -11.611  0.00  0.00    -0.300 N 
ATOM     10  C   UNL     1      37.376 -23.878 -14.026  0.00  0.00    +0.031 C 
ATOM     11  C   UNL     1      38.802 -24.213 -13.805  0.00  0.00    +0.063 C 
ATOM     12  C   UNL     1      36.372 -24.026 -13.092  0.00  0.00    +0.064 C 
ATOM     13  C   UNL     1      38.866 -25.295 -12.720  0.00  0.00    +0.096 C 
ATOM     14  C   UNL     1      35.494 -23.155 -14.975  0.00  0.00    +0.048 C 
ATOM     15  C   UNL     1      35.177 -23.559 -13.692  0.00  0.00    +0.020 C 
ATOM     16  C   UNL     1      36.644 -24.555 -11.770  0.00  0.00    +0.247 C 
ATOM     17  H   UNL     1      37.337 -23.152 -15.993  0.00  0.00    +0.152 HD
ATOM     18  H   UNL     1      38.242 -25.265 -10.698  0.00  0.00    +0.150 HD
ENDBRANCH   2  14
BRANCH   5  20
ATOM     19  F   UNL     1      32.625 -20.015 -19.786  0.00  0.00    -0.204 F 
ATOM     20  C   UNL     1      34.838 -20.472 -19.043  0.00  0.00    +0.045 C 
ATOM     21  C   UNL     1      33.949 -19.850 -19.922  0.00  0.00    +0.142 C 
ATOM     22  C   UNL     1      36.213 -20.287 -19.200  0.00  0.00    +0.004 C 
ATOM     23  C   UNL     1      34.434 -19.048 -20.956  0.00  0.00    +0.030 C 
ATOM     24  C   UNL     1      36.698 -19.485 -20.233  0.00  0.00    +0.000 C 
ATOM     25  C   UNL     1      35.808 -18.866 -21.111  0.00  0.00    +0.002 C 
ENDBRANCH   5  20
TORSDOF 2
ENDMDL
MODEL 4
REMARK VINA RESULT:     -11.3      3.489      7.025
REMARK  Name = 11992146
REMARK  2 active torsions:
REMARK  status: ('A' for Active; 'I' for Inactive)
REMARK    1  A    between atoms: C_2  and  C_14
REMARK    2  A    between atoms: C_5  and  C_20
REMARK                            x       y       z     vdW  Elec       q    Type
REMARK                         _______ _______ _______ _____ _____    ______ ____
ROOT
ATOM      1  N   UNL     1      37.362 -22.008 -16.200  0.00  0.00    -0.244 NA
ATOM      2  C   UNL     1      34.647 -22.495 -15.755  0.00  0.00    +0.016 C 
ATOM      3  C   UNL     1      35.605 -23.109 -14.956  0.00  0.00    +0.020 C 
ATOM      4  C   UNL     1      35.044 -21.639 -16.776  0.00  0.00    +0.022 C 
ATOM      5  C   UNL     1      36.938 -22.834 -15.218  0.00  0.00    +0.084 C 
ATOM      6  C   UNL     1      36.403 -21.431 -16.956  0.00  0.00    +0.099 C 
ENDROOT
BRANCH   2  14
ATOM      7  O   UNL     1      29.149 -21.866 -16.670  0.00  0.00    -0.270 OA
ATOM      8  N   UNL     1      32.808 -23.550 -14.504  0.00  0.00    -0.316 N 
ATOM      9  N   UNL     1      28.760 -23.514 -15.098  0.00  0.00    -0.300 N 
ATOM     10  C   UNL     1      31.444 -23.599 -14.530  0.00  0.00    +0.031 C 
ATOM     11  C   UNL     1      30.577 -24.333 -13.580  0.00  0.00    +0.063 C 
ATOM     12  C   UNL     1      30.995 -22.827 -15.581  0.00  0.00    +0.064 C 
ATOM     13  C   UNL     1      29.253 -24.638 -14.293  0.00  0.00    +0.096 C 
ATOM     14  C   UNL     1      33.245 -22.746 -15.527  0.00  0.00    +0.048 C 
ATOM     15  C   UNL     1      32.139 -22.277 -16.210  0.00  0.00    +0.020 C 
ATOM     16  C   UNL     1      29.579 -22.677 -15.855  0.00  0.00    +0.247 C 
ATOM     17  H   UNL     1      33.385 -24.017 -13.856  0.00  0.00    +0.152 HD
ATOM     18  H   UNL     1      27.790 -23.341 -15.104  0.00  0.00    +0.150 HD
ENDBRANCH   2  14
BRANCH   5  20
ATOM     19  F   UNL     1      36.825 -22.951 -12.412  0.00  0.00    -0.204 F 
ATOM     20  C   UNL     1      37.989 -23.434 -14.430  0.00  0.00    +0.045 C 
ATOM     21  C   UNL     1      37.892 -23.469 -13.037  0.00  0.00    +0.142 C 
ATOM     22  C   UNL     1      39.107 -23.980 -15.062  0.00  0.00    +0.004 C 
ATOM     23  C   UNL     1      38.912 -24.047 -12.280  0.00  0.00    +0.030 C 
ATOM     24  C   UNL     1      40.127 -24.558 -14.305  0.00  0.00    +0.000 C 
ATOM     25  C   UNL     1      40.029 -24.591 -12.914  0.00  0.00    +0.002 C 
ENDBRANCH   5  20
TORSDOF 2
ENDMDL
MODEL 5
REMARK VINA RESULT:     -10.9      3.704      7.551
REMARK  Name = 11992146
REMARK  2 active torsions:
REMARK  status: ('A' for Active; 'I' for Inactive)
REMARK    1  A    between atoms: C_2  and  C_14
REMARK    2  A    between atoms: C_5  and  C_20
REMARK                            x       y       z     vdW  Elec       q    Type
REMARK                         _______ _______ _______ _____ _____    ______ ____
ROOT
ATOM      1  N   UNL     1      36.892 -24.302 -11.161  0.00  0.00    -0.244 NA
ATOM      2  C   UNL     1      34.732 -23.562 -12.771  0.00  0.00    +0.016 C 
ATOM      3  C   UNL     1      35.930 -23.961 -13.353  0.00  0.00    +0.020 C 
ATOM      4  C   UNL     1      34.612 -23.531 -11.387  0.00  0.00    +0.022 C 
ATOM      5  C   UNL     1      36.971 -24.318 -12.511  0.00  0.00    +0.084 C 
ATOM      6  C   UNL     1      35.713 -23.907 -10.633  0.00  0.00    +0.099 C 
ENDROOT
BRANCH   2  14
ATOM      7  O   UNL     1      32.263 -21.837 -17.503  0.00  0.00    -0.270 OA
ATOM      8  N   UNL     1      32.339 -23.085 -13.104  0.00  0.00    -0.316 N 
ATOM      9  N   UNL     1      30.218 -22.099 -16.461  0.00  0.00    -0.300 N 
ATOM     10  C   UNL     1      31.499 -22.702 -14.110  0.00  0.00    +0.031 C 
ATOM     11  C   UNL     1      30.043 -22.459 -13.988  0.00  0.00    +0.063 C 
ATOM     12  C   UNL     1      32.235 -22.554 -15.267  0.00  0.00    +0.064 C 
ATOM     13  C   UNL     1      29.416 -22.668 -15.372  0.00  0.00    +0.096 C 
ATOM     14  C   UNL     1      33.615 -23.179 -13.601  0.00  0.00    +0.048 C 
ATOM     15  C   UNL     1      33.581 -22.849 -14.942  0.00  0.00    +0.020 C 
ATOM     16  C   UNL     1      31.611 -22.141 -16.509  0.00  0.00    +0.247 C 
ATOM     17  H   UNL     1      32.072 -23.265 -12.173  0.00  0.00    +0.152 HD
ATOM     18  H   UNL     1      29.743 -21.660 -17.205  0.00  0.00    +0.150 HD
ENDBRANCH   2  14
BRANCH   5  20
ATOM     19  F   UNL     1      37.233 -26.609 -14.117  0.00  0.00    -0.204 F 
ATOM     20  C   UNL     1      38.244 -24.743 -13.042  0.00  0.00    +0.045 C 
ATOM     21  C   UNL     1      38.329 -25.890 -13.835  0.00  0.00    +0.142 C 
ATOM     22  C   UNL     1      39.397 -24.007 -12.762  0.00  0.00    +0.004 C 
ATOM     23  C   UNL     1      39.563 -26.299 -14.344  0.00  0.00    +0.030 C 
ATOM     24  C   UNL     1      40.629 -24.416 -13.270  0.00  0.00    +0.000 C 
ATOM     25  C   UNL     1      40.713 -25.562 -14.060  0.00  0.00    +0.002 C 
ENDBRANCH   5  20
TORSDOF 2
ENDMDL
MODEL 6
REMARK VINA RESULT:     -10.9      2.439      4.368
REMARK  Name = 11992146
REMARK  2 active torsions:
REMARK  status: ('A' for Active; 'I' for Inactive)
REMARK    1  A    between atoms: C_2  and  C_14
REMARK    2  A    between atoms: C_5  and  C_20
REMARK                            x       y       z     vdW  Elec       q    Type
REMARK                         _______ _______ _______ _____ _____    ______ ____
ROOT
ATOM      1  N   UNL     1      32.441 -22.085 -17.332  0.00  0.00    -0.244 NA
ATOM      2  C   UNL     1      34.595 -22.577 -15.622  0.00  0.00    +0.016 C 
ATOM      3  C   UNL     1      33.296 -22.825 -15.194  0.00  0.00    +0.020 C 
ATOM      4  C   UNL     1      34.820 -22.084 -16.901  0.00  0.00    +0.022 C 
ATOM      5  C   UNL     1      32.263 -22.564 -16.081  0.00  0.00    +0.084 C 
ATOM      6  C   UNL     1      33.718 -21.856 -17.711  0.00  0.00    +0.099 C 
ENDROOT
BRANCH   2  14
ATOM      7  O   UNL     1      37.454 -22.239 -10.807  0.00  0.00    -0.270 OA
ATOM      8  N   UNL     1      36.836 -23.489 -15.163  0.00  0.00    -0.316 N 
ATOM      9  N   UNL     1      39.040 -23.651 -11.719  0.00  0.00    -0.300 N 
ATOM     10  C   UNL     1      37.715 -23.578 -14.122  0.00  0.00    +0.031 C 
ATOM     11  C   UNL     1      39.063 -24.190 -14.165  0.00  0.00    +0.063 C 
ATOM     12  C   UNL     1      37.149 -22.980 -13.015  0.00  0.00    +0.064 C 
ATOM     13  C   UNL     1      39.423 -24.631 -12.742  0.00  0.00    +0.096 C 
ATOM     14  C   UNL     1      35.709 -22.830 -14.739  0.00  0.00    +0.048 C 
ATOM     15  C   UNL     1      35.878 -22.497 -13.409  0.00  0.00    +0.020 C 
ATOM     16  C   UNL     1      37.858 -22.911 -11.752  0.00  0.00    +0.247 C 
ATOM     17  H   UNL     1      36.988 -23.840 -16.071  0.00  0.00    +0.152 HD
ATOM     18  H   UNL     1      39.654 -23.507 -10.963  0.00  0.00    +0.150 HD
ENDBRANCH   2  14
BRANCH   5  20
ATOM     19  F   UNL     1      31.495 -24.736 -14.470  0.00  0.00    -0.204 F 
ATOM     20  C   UNL     1      30.887 -22.798 -15.708  0.00  0.00    +0.045 C 
ATOM     21  C   UNL     1      30.550 -23.891 -14.907  0.00  0.00    +0.142 C 
ATOM     22  C   UNL     1      29.889 -21.928 -16.151  0.00  0.00    +0.004 C 
ATOM     23  C   UNL     1      29.219 -24.114 -14.552  0.00  0.00    +0.030 C 
ATOM     24  C   UNL     1      28.559 -22.151 -15.797  0.00  0.00    +0.000 C 
ATOM     25  C   UNL     1      28.223 -23.244 -14.998  0.00  0.00    +0.002 C 
ENDBRANCH   5  20
TORSDOF 2
ENDMDL
MODEL 7
REMARK VINA RESULT:     -10.8      5.824     10.543
REMARK  Name = 11992146
REMARK  2 active torsions:
REMARK  status: ('A' for Active; 'I' for Inactive)
REMARK    1  A    between atoms: C_2  and  C_14
REMARK    2  A    between atoms: C_5  and  C_20
REMARK                            x       y       z     vdW  Elec       q    Type
REMARK                         _______ _______ _______ _____ _____    ______ ____
ROOT
ATOM      1  N   UNL     1      36.978 -19.794 -19.734  0.00  0.00    -0.244 NA
ATOM      2  C   UNL     1      35.909 -17.774 -21.340  0.00  0.00    +0.016 C 
ATOM      3  C   UNL     1      35.068 -18.577 -20.580  0.00  0.00    +0.020 C 
ATOM      4  C   UNL     1      37.283 -17.978 -21.300  0.00  0.00    +0.022 C 
ATOM      5  C   UNL     1      35.648 -19.566 -19.800  0.00  0.00    +0.084 C 
ATOM      6  C   UNL     1      37.764 -18.993 -20.487  0.00  0.00    +0.099 C 
ENDROOT
BRANCH   2  14
ATOM      7  O   UNL     1      33.628 -15.650 -26.004  0.00  0.00    -0.270 OA
ATOM      8  N   UNL     1      35.330 -15.418 -21.765  0.00  0.00    -0.316 N 
ATOM      9  N   UNL     1      33.422 -13.625 -24.910  0.00  0.00    -0.300 N 
ATOM     10  C   UNL     1      34.760 -14.663 -22.750  0.00  0.00    +0.031 C 
ATOM     11  C   UNL     1      34.566 -13.195 -22.723  0.00  0.00    +0.063 C 
ATOM     12  C   UNL     1      34.411 -15.492 -23.796  0.00  0.00    +0.064 C 
ATOM     13  C   UNL     1      33.397 -12.860 -23.658  0.00  0.00    +0.096 C 
ATOM     14  C   UNL     1      35.358 -16.730 -22.171  0.00  0.00    +0.048 C 
ATOM     15  C   UNL     1      34.799 -16.804 -23.431  0.00  0.00    +0.020 C 
ATOM     16  C   UNL     1      33.790 -14.968 -24.997  0.00  0.00    +0.247 C 
ATOM     17  H   UNL     1      35.666 -15.077 -20.904  0.00  0.00    +0.152 HD
ATOM     18  H   UNL     1      33.161 -13.163 -25.740  0.00  0.00    +0.150 HD
ENDBRANCH   2  14
BRANCH   5  20
ATOM     19  F   UNL     1      32.846 -19.639 -20.009  0.00  0.00    -0.204 F 
ATOM     20  C   UNL     1      34.838 -20.439 -18.984  0.00  0.00    +0.045 C 
ATOM     21  C   UNL     1      33.448 -20.441 -19.119  0.00  0.00    +0.142 C 
ATOM     22  C   UNL     1      35.446 -21.283 -18.053  0.00  0.00    +0.004 C 
ATOM     23  C   UNL     1      32.670 -21.285 -18.325  0.00  0.00    +0.030 C 
ATOM     24  C   UNL     1      34.669 -22.126 -17.259  0.00  0.00    +0.000 C 
ATOM     25  C   UNL     1      33.280 -22.127 -17.395  0.00  0.00    +0.002 C 
ENDBRANCH   5  20
TORSDOF 2
ENDMDL
MODEL 8
REMARK VINA RESULT:     -10.7      3.065      7.627
REMARK  Name = 11992146
REMARK  2 active torsions:
REMARK  status: ('A' for Active; 'I' for Inactive)
REMARK    1  A    between atoms: C_2  and  C_14
REMARK    2  A    between atoms: C_5  and  C_20
REMARK                            x       y       z     vdW  Elec       q    Type
REMARK                         _______ _______ _______ _____ _____    ______ ____
ROOT
ATOM      1  N   UNL     1      34.231 -24.003 -14.273  0.00  0.00    -0.244 NA
ATOM      2  C   UNL     1      34.567 -22.325 -16.481  0.00  0.00    +0.016 C 
ATOM      3  C   UNL     1      35.678 -22.812 -15.802  0.00  0.00    +0.020 C 
ATOM      4  C   UNL     1      33.290 -22.674 -16.060  0.00  0.00    +0.022 C 
ATOM      5  C   UNL     1      35.457 -23.640 -14.712  0.00  0.00    +0.084 C 
ATOM      6  C   UNL     1      33.177 -23.509 -14.959  0.00  0.00    +0.099 C 
ENDROOT
BRANCH   2  14
ATOM      7  O   UNL     1      37.487 -19.143 -20.061  0.00  0.00    -0.270 OA
ATOM      8  N   UNL     1      33.673 -21.011 -18.363  0.00  0.00    -0.316 N 
ATOM      9  N   UNL     1      35.549 -18.846 -21.285  0.00  0.00    -0.300 N 
ATOM     10  C   UNL     1      34.136 -20.211 -19.368  0.00  0.00    +0.031 C 
ATOM     11  C   UNL     1      33.310 -19.506 -20.374  0.00  0.00    +0.063 C 
ATOM     12  C   UNL     1      35.511 -20.146 -19.282  0.00  0.00    +0.064 C 
ATOM     13  C   UNL     1      34.182 -19.268 -21.613  0.00  0.00    +0.096 C 
ATOM     14  C   UNL     1      34.740 -21.458 -17.622  0.00  0.00    +0.048 C 
ATOM     15  C   UNL     1      35.895 -20.931 -18.167  0.00  0.00    +0.020 C 
ATOM     16  C   UNL     1      36.288 -19.356 -20.217  0.00  0.00    +0.247 C 
ATOM     17  H   UNL     1      32.727 -21.232 -18.197  0.00  0.00    +0.152 HD
ATOM     18  H   UNL     1      35.970 -18.161 -21.854  0.00  0.00    +0.150 HD
ENDBRANCH   2  14
BRANCH   5  20
ATOM     19  F   UNL     1      36.499 -26.201 -15.219  0.00  0.00    -0.204 F 
ATOM     20  C   UNL     1      36.561 -24.185 -13.958  0.00  0.00    +0.045 C 
ATOM     21  C   UNL     1      37.046 -25.463 -14.242  0.00  0.00    +0.142 C 
ATOM     22  C   UNL     1      37.145 -23.432 -12.938  0.00  0.00    +0.004 C 
ATOM     23  C   UNL     1      38.111 -25.987 -13.507  0.00  0.00    +0.030 C 
ATOM     24  C   UNL     1      38.209 -23.955 -12.203  0.00  0.00    +0.000 C 
ATOM     25  C   UNL     1      38.692 -25.232 -12.487  0.00  0.00    +0.002 C 
ENDBRANCH   5  20
TORSDOF 2
ENDMDL
MODEL 9
REMARK VINA RESULT:     -10.7     10.616     13.612
REMARK  Name = 11992146
REMARK  2 active torsions:
REMARK  status: ('A' for Active; 'I' for Inactive)
REMARK    1  A    between atoms: C_2  and  C_14
REMARK    2  A    between atoms: C_5  and  C_20
REMARK                            x       y       z     vdW  Elec       q    Type
REMARK                         _______ _______ _______ _____ _____    ______ ____
ROOT
ATOM      1  N   UNL     1      31.358  -9.722 -19.618  0.00  0.00    -0.244 NA
ATOM      2  C   UNL     1      32.615 -11.774 -21.038  0.00  0.00    +0.016 C 
ATOM      3  C   UNL     1      32.673 -10.466 -21.506  0.00  0.00    +0.020 C 
ATOM      4  C   UNL     1      31.930 -12.058 -19.863  0.00  0.00    +0.022 C 
ATOM      5  C   UNL     1      32.034  -9.484 -20.765  0.00  0.00    +0.084 C 
ATOM      6  C   UNL     1      31.323 -11.005 -19.196  0.00  0.00    +0.099 C 
ENDROOT
BRANCH   2  14
ATOM      7  O   UNL     1      36.000 -16.203 -21.656  0.00  0.00    -0.270 OA
ATOM      8  N   UNL     1      33.116 -12.974 -23.129  0.00  0.00    -0.316 N 
ATOM      9  N   UNL     1      35.291 -16.365 -23.849  0.00  0.00    -0.300 N 
ATOM     10  C   UNL     1      33.842 -14.053 -23.544  0.00  0.00    +0.031 C 
ATOM     11  C   UNL     1      33.977 -14.532 -24.940  0.00  0.00    +0.063 C 
ATOM     12  C   UNL     1      34.457 -14.620 -22.447  0.00  0.00    +0.064 C 
ATOM     13  C   UNL     1      34.315 -16.027 -24.892  0.00  0.00    +0.096 C 
ATOM     14  C   UNL     1      33.263 -12.834 -21.771  0.00  0.00    +0.048 C 
ATOM     15  C   UNL     1      34.096 -13.840 -21.322  0.00  0.00    +0.020 C 
ATOM     16  C   UNL     1      35.310 -15.785 -22.580  0.00  0.00    +0.247 C 
ATOM     17  H   UNL     1      32.575 -12.390 -23.711  0.00  0.00    +0.152 HD
ATOM     18  H   UNL     1      35.974 -17.043 -24.057  0.00  0.00    +0.150 HD
ENDBRANCH   2  14
BRANCH   5  20
ATOM     19  F   UNL     1      33.225  -7.462 -19.220  0.00  0.00    -0.204 F 
ATOM     20  C   UNL     1      32.052  -8.104 -21.187  0.00  0.00    +0.045 C 
ATOM     21  C   UNL     1      32.654  -7.131 -20.387  0.00  0.00    +0.142 C 
ATOM     22  C   UNL     1      31.464  -7.739 -22.399  0.00  0.00    +0.004 C 
ATOM     23  C   UNL     1      32.666  -5.797 -20.798  0.00  0.00    +0.030 C 
ATOM     24  C   UNL     1      31.475  -6.407 -22.810  0.00  0.00    +0.000 C 
ATOM     25  C   UNL     1      32.076  -5.435 -22.010  0.00  0.00    +0.002 C 
ENDBRANCH   5  20
TORSDOF 2
ENDMDL
