MODEL 1
REMARK VINA RESULT:     -12.1      0.000      0.000
REMARK  Name = 9826451
REMARK  9 active torsions:
REMARK  status: ('A' for Active; 'I' for Inactive)
REMARK    1  A    between atoms: C_1  and  N_2
REMARK    2  A    between atoms: C_1  and  C_19
REMARK    3  A    between atoms: C_8  and  O_10
REMARK    4  A    between atoms: O_10  and  C_11
REMARK    5  A    between atoms: C_14  and  O_17
REMARK    6  A    between atoms: C_19  and  O_20
REMARK    7  A    between atoms: O_20  and  C_24
REMARK    8  A    between atoms: C_21  and  C_27
REMARK    9  A    between atoms: C_27  and  C_32
REMARK                            x       y       z     vdW  Elec       q    Type
REMARK                         _______ _______ _______ _____ _____    ______ ____
ROOT
ATOM      1  C   UNL     1      36.202 -21.470 -16.905  0.00  0.00    +0.139 C 
ENDROOT
BRANCH   1   2
ATOM      2  N   UNL     1      34.973 -22.042 -16.409  0.00  0.00    -0.291 N 
ATOM      3  C   UNL     1      33.811 -22.081 -17.297  0.00  0.00    +0.113 C 
ATOM      4  N   UNL     1      35.961 -22.495 -14.304  0.00  0.00    -0.233 NA
ATOM      5  N   UNL     1      34.649 -23.524 -12.566  0.00  0.00    -0.214 NA
ATOM      6  C   UNL     1      34.875 -22.542 -15.104  0.00  0.00    +0.115 C 
ATOM      7  C   UNL     1      33.657 -23.058 -14.710  0.00  0.00    +0.146 C 
ATOM      8  C   UNL     1      33.602 -23.540 -13.418  0.00  0.00    +0.210 C 
ATOM      9  C   UNL     1      35.780 -22.995 -13.068  0.00  0.00    +0.254 C 
BRANCH   8  10
ATOM     10  O   UNL     1      32.427 -24.070 -12.952  0.00  0.00    -0.440 OA
BRANCH  10  11
ATOM     11  C   UNL     1      31.277 -23.779 -13.656  0.00  0.00    +0.147 C 
ATOM     12  C   UNL     1      30.519 -24.809 -14.213  0.00  0.00    +0.041 C 
ATOM     13  C   UNL     1      30.871 -22.452 -13.811  0.00  0.00    +0.041 C 
ATOM     14  C   UNL     1      28.951 -23.188 -15.079  0.00  0.00    +0.139 C 
ATOM     15  C   UNL     1      29.356 -24.514 -14.924  0.00  0.00    +0.040 C 
ATOM     16  C   UNL     1      29.708 -22.157 -14.522  0.00  0.00    +0.040 C 
BRANCH  14  17
ATOM     17  O   UNL     1      27.816 -22.900 -15.773  0.00  0.00    -0.471 OA
ATOM     18  C   UNL     1      27.090 -21.737 -15.377  0.00  0.00    +0.252 C 
ENDBRANCH  14  17
ENDBRANCH  10  11
ENDBRANCH   8  10
ENDBRANCH   1   2
BRANCH   1  19
ATOM     19  C   UNL     1      36.099 -21.236 -18.403  0.00  0.00    +0.227 C 
BRANCH  19  20
ATOM     20  O   UNL     1      36.738 -20.005 -18.735  0.00  0.00    -0.474 OA
BRANCH  20  24
ATOM     21  C   UNL     1      35.391 -18.029 -22.128  0.00  0.00    -0.021 C 
ATOM     22  C   UNL     1      34.514 -18.822 -21.388  0.00  0.00    -0.001 C 
ATOM     23  C   UNL     1      36.721 -17.900 -21.727  0.00  0.00    -0.001 C 
ATOM     24  C   UNL     1      36.296 -19.357 -19.848  0.00  0.00    +0.139 C 
ATOM     25  C   UNL     1      34.966 -19.486 -20.249  0.00  0.00    +0.037 C 
ATOM     26  C   UNL     1      37.173 -18.565 -20.588  0.00  0.00    +0.037 C 
BRANCH  21  27
ATOM     27  C   UNL     1      34.901 -17.312 -23.359  0.00  0.00    +0.047 C 
BRANCH  27  32
ATOM     28  S   UNL     1      34.905 -15.059 -21.774  0.00  0.00    -0.048 S 
ATOM     29  O   UNL     1      34.558 -15.352 -25.606  0.00  0.00    -0.274 OA
ATOM     30  O   UNL     1      33.372 -12.926 -21.860  0.00  0.00    -0.263 OA
ATOM     31  N   UNL     1      33.869 -14.005 -23.856  0.00  0.00    -0.246 N 
ATOM     32  C   UNL     1      35.308 -15.849 -23.363  0.00  0.00    +0.137 C 
ATOM     33  C   UNL     1      34.551 -15.067 -24.413  0.00  0.00    +0.239 C 
ATOM     34  C   UNL     1      33.918 -13.810 -22.501  0.00  0.00    +0.279 C 
ATOM     35  H   UNL     1      33.351 -13.393 -24.428  0.00  0.00    +0.158 HD
ENDBRANCH  27  32
ENDBRANCH  21  27
ENDBRANCH  20  24
ENDBRANCH  19  20
ENDBRANCH   1  19
TORSDOF 9
ENDMDL
MODEL 2
REMARK VINA RESULT:     -11.9      5.155      9.785
REMARK  Name = 9826451
REMARK  9 active torsions:
REMARK  status: ('A' for Active; 'I' for Inactive)
REMARK    1  A    between atoms: C_1  and  N_2
REMARK    2  A    between atoms: C_1  and  C_19
REMARK    3  A    between atoms: C_8  and  O_10
REMARK    4  A    between atoms: O_10  and  C_11
REMARK    5  A    between atoms: C_14  and  O_17
REMARK    6  A    between atoms: C_19  and  O_20
REMARK    7  A    between atoms: O_20  and  C_24
REMARK    8  A    between atoms: C_21  and  C_27
REMARK    9  A    between atoms: C_27  and  C_32
REMARK                            x       y       z     vdW  Elec       q    Type
REMARK                         _______ _______ _______ _____ _____    ______ ____
ROOT
ATOM      1  C   UNL     1      33.751 -13.616 -23.735  0.00  0.00    +0.139 C 
ENDROOT
BRANCH   1   2
ATOM      2  N   UNL     1      34.425 -14.877 -23.541  0.00  0.00    -0.291 N 
ATOM      3  C   UNL     1      34.722 -15.699 -24.715  0.00  0.00    +0.113 C 
ATOM      4  N   UNL     1      34.497 -14.550 -21.197  0.00  0.00    -0.233 NA
ATOM      5  N   UNL     1      35.492 -16.231 -19.787  0.00  0.00    -0.214 NA
ATOM      6  C   UNL     1      34.782 -15.326 -22.263  0.00  0.00    +0.115 C 
ATOM      7  C   UNL     1      35.412 -16.551 -22.172  0.00  0.00    +0.146 C 
ATOM      8  C   UNL     1      35.747 -16.957 -20.896  0.00  0.00    +0.210 C 
ATOM      9  C   UNL     1      34.874 -15.056 -20.007  0.00  0.00    +0.254 C 
BRANCH   8  10
ATOM     10  O   UNL     1      36.376 -18.162 -20.721  0.00  0.00    -0.440 OA
BRANCH  10  11
ATOM     11  C   UNL     1      35.651 -19.175 -20.125  0.00  0.00    +0.147 C 
ATOM     12  C   UNL     1      34.278 -19.273 -20.344  0.00  0.00    +0.041 C 
ATOM     13  C   UNL     1      36.295 -20.102 -19.304  0.00  0.00    +0.041 C 
ATOM     14  C   UNL     1      34.190 -21.222 -18.921  0.00  0.00    +0.139 C 
ATOM     15  C   UNL     1      33.546 -20.296 -19.742  0.00  0.00    +0.040 C 
ATOM     16  C   UNL     1      35.564 -21.125 -18.703  0.00  0.00    +0.040 C 
BRANCH  14  17
ATOM     17  O   UNL     1      33.477 -22.223 -18.334  0.00  0.00    -0.471 OA
ATOM     18  C   UNL     1      33.756 -22.502 -16.963  0.00  0.00    +0.252 C 
ENDBRANCH  14  17
ENDBRANCH  10  11
ENDBRANCH   8  10
ENDBRANCH   1   2
BRANCH   1  19
ATOM     19  C   UNL     1      34.524 -12.502 -23.049  0.00  0.00    +0.227 C 
BRANCH  19  20
ATOM     20  O   UNL     1      34.514 -11.339 -23.876  0.00  0.00    -0.474 OA
BRANCH  20  24
ATOM     21  C   UNL     1      32.394  -8.051 -22.489  0.00  0.00    -0.021 C 
ATOM     22  C   UNL     1      32.149  -9.315 -21.953  0.00  0.00    -0.001 C 
ATOM     23  C   UNL     1      33.352  -7.892 -23.491  0.00  0.00    -0.001 C 
ATOM     24  C   UNL     1      33.818 -10.261 -23.421  0.00  0.00    +0.139 C 
ATOM     25  C   UNL     1      32.860 -10.420 -22.419  0.00  0.00    +0.037 C 
ATOM     26  C   UNL     1      34.063  -8.997 -23.957  0.00  0.00    +0.037 C 
BRANCH  21  27
ATOM     27  C   UNL     1      31.625  -6.857 -21.985  0.00  0.00    +0.047 C 
BRANCH  27  32
ATOM     28  S   UNL     1      33.135  -6.547 -19.702  0.00  0.00    -0.048 S 
ATOM     29  O   UNL     1      31.187  -3.900 -21.725  0.00  0.00    -0.274 OA
ATOM     30  O   UNL     1      32.649  -5.153 -17.528  0.00  0.00    -0.263 OA
ATOM     31  N   UNL     1      31.840  -4.351 -19.553  0.00  0.00    -0.246 N 
ATOM     32  C   UNL     1      32.524  -5.862 -21.273  0.00  0.00    +0.137 C 
ATOM     33  C   UNL     1      31.773  -4.601 -20.907  0.00  0.00    +0.239 C 
ATOM     34  C   UNL     1      32.503  -5.230 -18.738  0.00  0.00    +0.279 C 
ATOM     35  H   UNL     1      31.415  -3.547 -19.175  0.00  0.00    +0.158 HD
ENDBRANCH  27  32
ENDBRANCH  21  27
ENDBRANCH  20  24
ENDBRANCH  19  20
ENDBRANCH   1  19
TORSDOF 9
ENDMDL
MODEL 3
REMARK VINA RESULT:     -11.8      3.048      5.445
REMARK  Name = 9826451
REMARK  9 active torsions:
REMARK  status: ('A' for Active; 'I' for Inactive)
REMARK    1  A    between atoms: C_1  and  N_2
REMARK    2  A    between atoms: C_1  and  C_19
REMARK    3  A    between atoms: C_8  and  O_10
REMARK    4  A    between atoms: O_10  and  C_11
REMARK    5  A    between atoms: C_14  and  O_17
REMARK    6  A    between atoms: C_19  and  O_20
REMARK    7  A    between atoms: O_20  and  C_24
REMARK    8  A    between atoms: C_21  and  C_27
REMARK    9  A    between atoms: C_27  and  C_32
REMARK                            x       y       z     vdW  Elec       q    Type
REMARK                         _______ _______ _______ _____ _____    ______ ____
ROOT
ATOM      1  C   UNL     1      34.959 -20.541 -19.612  0.00  0.00    +0.139 C 
ENDROOT
BRANCH   1   2
ATOM      2  N   UNL     1      35.446 -21.032 -18.345  0.00  0.00    -0.291 N 
ATOM      3  C   UNL     1      36.861 -20.846 -18.019  0.00  0.00    +0.113 C 
ATOM      4  N   UNL     1      33.298 -21.844 -17.764  0.00  0.00    -0.233 NA
ATOM      5  N   UNL     1      32.976 -22.963 -15.655  0.00  0.00    -0.214 NA
ATOM      6  C   UNL     1      34.599 -21.685 -17.440  0.00  0.00    +0.115 C 
ATOM      7  C   UNL     1      35.154 -22.133 -16.259  0.00  0.00    +0.146 C 
ATOM      8  C   UNL     1      34.285 -22.771 -15.395  0.00  0.00    +0.210 C 
ATOM      9  C   UNL     1      32.555 -22.482 -16.840  0.00  0.00    +0.254 C 
BRANCH   8  10
ATOM     10  O   UNL     1      34.760 -23.244 -14.200  0.00  0.00    -0.440 OA
BRANCH  10  11
ATOM     11  C   UNL     1      35.932 -23.974 -14.227  0.00  0.00    +0.147 C 
ATOM     12  C   UNL     1      35.926 -25.288 -14.694  0.00  0.00    +0.041 C 
ATOM     13  C   UNL     1      37.123 -23.395 -13.787  0.00  0.00    +0.041 C 
ATOM     14  C   UNL     1      38.301 -25.445 -14.281  0.00  0.00    +0.139 C 
ATOM     15  C   UNL     1      37.110 -26.023 -14.722  0.00  0.00    +0.040 C 
ATOM     16  C   UNL     1      38.307 -24.130 -13.815  0.00  0.00    +0.040 C 
BRANCH  14  17
ATOM     17  O   UNL     1      39.458 -26.163 -14.309  0.00  0.00    -0.471 OA
ATOM     18  C   UNL     1      40.651 -25.488 -13.912  0.00  0.00    +0.252 C 
ENDBRANCH  14  17
ENDBRANCH  10  11
ENDBRANCH   8  10
ENDBRANCH   1   2
BRANCH   1  19
ATOM     19  C   UNL     1      35.982 -19.606 -20.236  0.00  0.00    +0.227 C 
BRANCH  19  20
ATOM     20  O   UNL     1      35.431 -19.017 -21.412  0.00  0.00    -0.474 OA
BRANCH  20  24
ATOM     21  C   UNL     1      35.064 -14.883 -21.463  0.00  0.00    -0.021 C 
ATOM     22  C   UNL     1      35.135 -15.591 -22.662  0.00  0.00    -0.001 C 
ATOM     23  C   UNL     1      35.118 -15.564 -20.246  0.00  0.00    -0.001 C 
ATOM     24  C   UNL     1      35.311 -17.661 -21.429  0.00  0.00    +0.139 C 
ATOM     25  C   UNL     1      35.258 -16.981 -22.646  0.00  0.00    +0.037 C 
ATOM     26  C   UNL     1      35.242 -16.952 -20.230  0.00  0.00    +0.037 C 
BRANCH  21  27
ATOM     27  C   UNL     1      34.931 -13.382 -21.482  0.00  0.00    +0.047 C 
BRANCH  27  32
ATOM     28  S   UNL     1      33.833 -11.412 -23.063  0.00  0.00    -0.048 S 
ATOM     29  O   UNL     1      32.235 -13.397 -20.165  0.00  0.00    -0.274 OA
ATOM     30  O   UNL     1      32.323  -9.363 -22.409  0.00  0.00    -0.263 OA
ATOM     31  N   UNL     1      32.125 -11.316 -21.167  0.00  0.00    -0.246 N 
ATOM     32  C   UNL     1      33.615 -12.937 -22.095  0.00  0.00    +0.137 C 
ATOM     33  C   UNL     1      32.593 -12.606 -21.030  0.00  0.00    +0.239 C 
ATOM     34  C   UNL     1      32.629 -10.518 -22.160  0.00  0.00    +0.279 C 
ATOM     35  H   UNL     1      31.435 -10.971 -20.555  0.00  0.00    +0.158 HD
ENDBRANCH  27  32
ENDBRANCH  21  27
ENDBRANCH  20  24
ENDBRANCH  19  20
ENDBRANCH   1  19
TORSDOF 9
ENDMDL
MODEL 4
REMARK VINA RESULT:     -11.7      3.448     11.440
REMARK  Name = 9826451
REMARK  9 active torsions:
REMARK  status: ('A' for Active; 'I' for Inactive)
REMARK    1  A    between atoms: C_1  and  N_2
REMARK    2  A    between atoms: C_1  and  C_19
REMARK    3  A    between atoms: C_8  and  O_10
REMARK    4  A    between atoms: O_10  and  C_11
REMARK    5  A    between atoms: C_14  and  O_17
REMARK    6  A    between atoms: C_19  and  O_20
REMARK    7  A    between atoms: O_20  and  C_24
REMARK    8  A    between atoms: C_21  and  C_27
REMARK    9  A    between atoms: C_27  and  C_32
REMARK                            x       y       z     vdW  Elec       q    Type
REMARK                         _______ _______ _______ _____ _____    ______ ____
ROOT
ATOM      1  C   UNL     1      34.462 -20.730 -18.623  0.00  0.00    +0.139 C 
ENDROOT
BRANCH   1   2
ATOM      2  N   UNL     1      34.132 -19.975 -19.808  0.00  0.00    -0.291 N 
ATOM      3  C   UNL     1      32.760 -20.032 -20.314  0.00  0.00    +0.113 C 
ATOM      4  N   UNL     1      36.354 -19.175 -19.992  0.00  0.00    -0.233 NA
ATOM      5  N   UNL     1      36.948 -17.711 -21.811  0.00  0.00    -0.214 NA
ATOM      6  C   UNL     1      35.096 -19.211 -20.479  0.00  0.00    +0.115 C 
ATOM      7  C   UNL     1      34.694 -18.533 -21.612  0.00  0.00    +0.146 C 
ATOM      8  C   UNL     1      35.673 -17.791 -22.243  0.00  0.00    +0.210 C 
ATOM      9  C   UNL     1      37.216 -18.418 -20.697  0.00  0.00    +0.254 C 
BRANCH   8  10
ATOM     10  O   UNL     1      35.353 -17.088 -23.375  0.00  0.00    -0.440 OA
BRANCH  10  11
ATOM     11  C   UNL     1      34.908 -15.791 -23.211  0.00  0.00    +0.147 C 
ATOM     12  C   UNL     1      35.134 -15.122 -22.009  0.00  0.00    +0.041 C 
ATOM     13  C   UNL     1      34.233 -15.150 -24.251  0.00  0.00    +0.041 C 
ATOM     14  C   UNL     1      34.011 -13.171 -22.884  0.00  0.00    +0.139 C 
ATOM     15  C   UNL     1      34.686 -13.812 -21.845  0.00  0.00    +0.040 C 
ATOM     16  C   UNL     1      33.785 -13.840 -24.087  0.00  0.00    +0.040 C 
BRANCH  14  17
ATOM     17  O   UNL     1      33.574 -11.891 -22.724  0.00  0.00    -0.471 OA
ATOM     18  C   UNL     1      34.232 -10.880 -23.486  0.00  0.00    +0.252 C 
ENDBRANCH  14  17
ENDBRANCH  10  11
ENDBRANCH   8  10
ENDBRANCH   1   2
BRANCH   1  19
ATOM     19  C   UNL     1      33.573 -21.958 -18.523  0.00  0.00    +0.227 C 
BRANCH  19  20
ATOM     20  O   UNL     1      32.794 -21.884 -17.330  0.00  0.00    -0.474 OA
BRANCH  20  24
ATOM     21  C   UNL     1      34.404 -23.600 -13.911  0.00  0.00    -0.021 C 
ATOM     22  C   UNL     1      33.078 -23.168 -13.916  0.00  0.00    -0.001 C 
ATOM     23  C   UNL     1      35.190 -23.455 -15.055  0.00  0.00    -0.001 C 
ATOM     24  C   UNL     1      33.322 -22.446 -16.209  0.00  0.00    +0.139 C 
ATOM     25  C   UNL     1      32.537 -22.591 -15.065  0.00  0.00    +0.037 C 
ATOM     26  C   UNL     1      34.648 -22.878 -16.203  0.00  0.00    +0.037 C 
BRANCH  21  27
ATOM     27  C   UNL     1      34.988 -24.223 -12.670  0.00  0.00    +0.047 C 
BRANCH  27  32
ATOM     28  S   UNL     1      37.090 -22.446 -12.553  0.00  0.00    -0.048 S 
ATOM     29  O   UNL     1      35.411 -24.439  -9.707  0.00  0.00    -0.274 OA
ATOM     30  O   UNL     1      39.358 -22.591 -11.233  0.00  0.00    -0.263 OA
ATOM     31  N   UNL     1      37.474 -23.572 -10.293  0.00  0.00    -0.246 N 
ATOM     32  C   UNL     1      35.628 -23.187 -11.762  0.00  0.00    +0.137 C 
ATOM     33  C   UNL     1      36.127 -23.810 -10.478  0.00  0.00    +0.239 C 
ATOM     34  C   UNL     1      38.171 -22.879 -11.247  0.00  0.00    +0.279 C 
ATOM     35  H   UNL     1      37.929 -23.900  -9.484  0.00  0.00    +0.158 HD
ENDBRANCH  27  32
ENDBRANCH  21  27
ENDBRANCH  20  24
ENDBRANCH  19  20
ENDBRANCH   1  19
TORSDOF 9
ENDMDL
MODEL 5
REMARK VINA RESULT:     -11.7      5.191      9.638
REMARK  Name = 9826451
REMARK  9 active torsions:
REMARK  status: ('A' for Active; 'I' for Inactive)
REMARK    1  A    between atoms: C_1  and  N_2
REMARK    2  A    between atoms: C_1  and  C_19
REMARK    3  A    between atoms: C_8  and  O_10
REMARK    4  A    between atoms: O_10  and  C_11
REMARK    5  A    between atoms: C_14  and  O_17
REMARK    6  A    between atoms: C_19  and  O_20
REMARK    7  A    between atoms: O_20  and  C_24
REMARK    8  A    between atoms: C_21  and  C_27
REMARK    9  A    between atoms: C_27  and  C_32
REMARK                            x       y       z     vdW  Elec       q    Type
REMARK                         _______ _______ _______ _____ _____    ______ ____
ROOT
ATOM      1  C   UNL     1      34.147 -13.776 -22.861  0.00  0.00    +0.139 C 
ENDROOT
BRANCH   1   2
ATOM      2  N   UNL     1      34.669 -14.674 -21.858  0.00  0.00    -0.291 N 
ATOM      3  C   UNL     1      34.893 -14.158 -20.507  0.00  0.00    +0.113 C 
ATOM      4  N   UNL     1      34.754 -16.460 -23.411  0.00  0.00    -0.233 NA
ATOM      5  N   UNL     1      35.569 -18.615 -22.708  0.00  0.00    -0.214 NA
ATOM      6  C   UNL     1      34.970 -16.009 -22.158  0.00  0.00    +0.115 C 
ATOM      7  C   UNL     1      35.477 -16.791 -21.140  0.00  0.00    +0.146 C 
ATOM      8  C   UNL     1      35.761 -18.099 -21.476  0.00  0.00    +0.210 C 
ATOM      9  C   UNL     1      35.071 -17.753 -23.613  0.00  0.00    +0.254 C 
BRANCH   8  10
ATOM     10  O   UNL     1      36.267 -18.940 -20.520  0.00  0.00    -0.440 OA
BRANCH  10  11
ATOM     11  C   UNL     1      35.369 -19.732 -19.832  0.00  0.00    +0.147 C 
ATOM     12  C   UNL     1      33.998 -19.564 -20.027  0.00  0.00    +0.041 C 
ATOM     13  C   UNL     1      35.834 -20.700 -18.941  0.00  0.00    +0.041 C 
ATOM     14  C   UNL     1      33.557 -21.332 -18.441  0.00  0.00    +0.139 C 
ATOM     15  C   UNL     1      33.092 -20.364 -19.332  0.00  0.00    +0.040 C 
ATOM     16  C   UNL     1      34.928 -21.501 -18.247  0.00  0.00    +0.040 C 
BRANCH  14  17
ATOM     17  O   UNL     1      32.672 -22.114 -17.763  0.00  0.00    -0.471 OA
ATOM     18  C   UNL     1      33.042 -22.523 -16.448  0.00  0.00    +0.252 C 
ENDBRANCH  14  17
ENDBRANCH  10  11
ENDBRANCH   8  10
ENDBRANCH   1   2
BRANCH   1  19
ATOM     19  C   UNL     1      34.560 -12.348 -22.547  0.00  0.00    +0.227 C 
BRANCH  19  20
ATOM     20  O   UNL     1      34.130 -11.487 -23.600  0.00  0.00    -0.474 OA
BRANCH  20  24
ATOM     21  C   UNL     1      32.212  -7.973 -22.506  0.00  0.00    -0.021 C 
ATOM     22  C   UNL     1      33.087  -7.981 -23.592  0.00  0.00    -0.001 C 
ATOM     23  C   UNL     1      31.982  -9.146 -21.787  0.00  0.00    -0.001 C 
ATOM     24  C   UNL     1      33.502 -10.335 -23.241  0.00  0.00    +0.139 C 
ATOM     25  C   UNL     1      33.732  -9.161 -23.960  0.00  0.00    +0.037 C 
ATOM     26  C   UNL     1      32.627 -10.326 -22.154  0.00  0.00    +0.037 C 
BRANCH  21  27
ATOM     27  C   UNL     1      31.516  -6.697 -22.110  0.00  0.00    +0.047 C 
BRANCH  27  32
ATOM     28  S   UNL     1      33.073  -6.517 -19.844  0.00  0.00    -0.048 S 
ATOM     29  O   UNL     1      31.134  -3.748 -21.705  0.00  0.00    -0.274 OA
ATOM     30  O   UNL     1      32.651  -5.218 -17.599  0.00  0.00    -0.263 OA
ATOM     31  N   UNL     1      31.819  -4.310 -19.569  0.00  0.00    -0.246 N 
ATOM     32  C   UNL     1      32.445  -5.750 -21.370  0.00  0.00    +0.137 C 
ATOM     33  C   UNL     1      31.722  -4.496 -20.932  0.00  0.00    +0.239 C 
ATOM     34  C   UNL     1      32.481  -5.237 -18.808  0.00  0.00    +0.279 C 
ATOM     35  H   UNL     1      31.415  -3.518 -19.146  0.00  0.00    +0.158 HD
ENDBRANCH  27  32
ENDBRANCH  21  27
ENDBRANCH  20  24
ENDBRANCH  19  20
ENDBRANCH   1  19
TORSDOF 9
ENDMDL
MODEL 6
REMARK VINA RESULT:     -11.7      3.941     11.381
REMARK  Name = 9826451
REMARK  9 active torsions:
REMARK  status: ('A' for Active; 'I' for Inactive)
REMARK    1  A    between atoms: C_1  and  N_2
REMARK    2  A    between atoms: C_1  and  C_19
REMARK    3  A    between atoms: C_8  and  O_10
REMARK    4  A    between atoms: O_10  and  C_11
REMARK    5  A    between atoms: C_14  and  O_17
REMARK    6  A    between atoms: C_19  and  O_20
REMARK    7  A    between atoms: O_20  and  C_24
REMARK    8  A    between atoms: C_21  and  C_27
REMARK    9  A    between atoms: C_27  and  C_32
REMARK                            x       y       z     vdW  Elec       q    Type
REMARK                         _______ _______ _______ _____ _____    ______ ____
ROOT
ATOM      1  C   UNL     1      35.045 -20.912 -18.351  0.00  0.00    +0.139 C 
ENDROOT
BRANCH   1   2
ATOM      2  N   UNL     1      34.577 -20.187 -19.508  0.00  0.00    -0.291 N 
ATOM      3  C   UNL     1      33.172 -20.321 -19.897  0.00  0.00    +0.113 C 
ATOM      4  N   UNL     1      36.730 -19.273 -19.883  0.00  0.00    -0.233 NA
ATOM      5  N   UNL     1      37.091 -17.797 -21.752  0.00  0.00    -0.214 NA
ATOM      6  C   UNL     1      35.439 -19.380 -20.262  0.00  0.00    +0.115 C 
ATOM      7  C   UNL     1      34.908 -18.735 -21.360  0.00  0.00    +0.146 C 
ATOM      8  C   UNL     1      35.790 -17.949 -22.075  0.00  0.00    +0.210 C 
ATOM      9  C   UNL     1      37.488 -18.478 -20.661  0.00  0.00    +0.254 C 
BRANCH   8  10
ATOM     10  O   UNL     1      35.339 -17.275 -23.180  0.00  0.00    -0.440 OA
BRANCH  10  11
ATOM     11  C   UNL     1      34.923 -15.971 -23.002  0.00  0.00    +0.147 C 
ATOM     12  C   UNL     1      34.261 -15.301 -24.031  0.00  0.00    +0.041 C 
ATOM     13  C   UNL     1      35.165 -15.321 -21.790  0.00  0.00    +0.041 C 
ATOM     14  C   UNL     1      34.083 -13.335 -22.639  0.00  0.00    +0.139 C 
ATOM     15  C   UNL     1      33.842 -13.984 -23.850  0.00  0.00    +0.040 C 
ATOM     16  C   UNL     1      34.745 -14.005 -21.609  0.00  0.00    +0.040 C 
BRANCH  14  17
ATOM     17  O   UNL     1      33.673 -12.050 -22.462  0.00  0.00    -0.471 OA
ATOM     18  C   UNL     1      34.217 -11.066 -23.341  0.00  0.00    +0.252 C 
ENDBRANCH  14  17
ENDBRANCH  10  11
ENDBRANCH   8  10
ENDBRANCH   1   2
BRANCH   1  19
ATOM     19  C   UNL     1      33.892 -21.660 -17.704  0.00  0.00    +0.227 C 
BRANCH  19  20
ATOM     20  O   UNL     1      34.373 -22.878 -17.139  0.00  0.00    -0.474 OA
BRANCH  20  24
ATOM     21  C   UNL     1      36.327 -22.627 -13.486  0.00  0.00    -0.021 C 
ATOM     22  C   UNL     1      35.114 -23.309 -13.582  0.00  0.00    -0.001 C 
ATOM     23  C   UNL     1      36.884 -22.030 -14.617  0.00  0.00    -0.001 C 
ATOM     24  C   UNL     1      35.014 -22.796 -15.940  0.00  0.00    +0.139 C 
ATOM     25  C   UNL     1      34.457 -23.393 -14.809  0.00  0.00    +0.037 C 
ATOM     26  C   UNL     1      36.227 -22.114 -15.843  0.00  0.00    +0.037 C 
BRANCH  21  27
ATOM     27  C   UNL     1      37.036 -22.537 -12.159  0.00  0.00    +0.047 C 
BRANCH  27  32
ATOM     28  S   UNL     1      38.825 -24.243 -13.375  0.00  0.00    -0.048 S 
ATOM     29  O   UNL     1      36.250 -24.974 -10.595  0.00  0.00    -0.274 OA
ATOM     30  O   UNL     1      38.497 -26.703 -14.240  0.00  0.00    -0.263 OA
ATOM     31  N   UNL     1      37.285 -26.021 -12.379  0.00  0.00    -0.246 N 
ATOM     32  C   UNL     1      37.892 -23.762 -11.888  0.00  0.00    +0.137 C 
ATOM     33  C   UNL     1      37.044 -24.961 -11.529  0.00  0.00    +0.239 C 
ATOM     34  C   UNL     1      38.178 -25.869 -13.407  0.00  0.00    +0.279 C 
ATOM     35  H   UNL     1      36.819 -26.878 -12.248  0.00  0.00    +0.158 HD
ENDBRANCH  27  32
ENDBRANCH  21  27
ENDBRANCH  20  24
ENDBRANCH  19  20
ENDBRANCH   1  19
TORSDOF 9
ENDMDL
MODEL 7
REMARK VINA RESULT:     -11.6      4.289     11.593
REMARK  Name = 9826451
REMARK  9 active torsions:
REMARK  status: ('A' for Active; 'I' for Inactive)
REMARK    1  A    between atoms: C_1  and  N_2
REMARK    2  A    between atoms: C_1  and  C_19
REMARK    3  A    between atoms: C_8  and  O_10
REMARK    4  A    between atoms: O_10  and  C_11
REMARK    5  A    between atoms: C_14  and  O_17
REMARK    6  A    between atoms: C_19  and  O_20
REMARK    7  A    between atoms: O_20  and  C_24
REMARK    8  A    between atoms: C_21  and  C_27
REMARK    9  A    between atoms: C_27  and  C_32
REMARK                            x       y       z     vdW  Elec       q    Type
REMARK                         _______ _______ _______ _____ _____    ______ ____
ROOT
ATOM      1  C   UNL     1      35.107 -19.282 -21.183  0.00  0.00    +0.139 C 
ENDROOT
BRANCH   1   2
ATOM      2  N   UNL     1      35.347 -17.859 -21.192  0.00  0.00    -0.291 N 
ATOM      3  C   UNL     1      35.883 -17.232 -19.982  0.00  0.00    +0.113 C 
ATOM      4  N   UNL     1      34.574 -17.679 -23.423  0.00  0.00    -0.233 NA
ATOM      5  N   UNL     1      34.532 -15.526 -24.502  0.00  0.00    -0.214 NA
ATOM      6  C   UNL     1      35.067 -17.078 -22.321  0.00  0.00    +0.115 C 
ATOM      7  C   UNL     1      35.315 -15.723 -22.234  0.00  0.00    +0.146 C 
ATOM      8  C   UNL     1      35.026 -14.989 -23.368  0.00  0.00    +0.210 C 
ATOM      9  C   UNL     1      34.333 -16.857 -24.461  0.00  0.00    +0.254 C 
BRANCH   8  10
ATOM     10  O   UNL     1      35.245 -13.637 -23.362  0.00  0.00    -0.440 OA
BRANCH  10  11
ATOM     11  C   UNL     1      34.288 -12.841 -22.765  0.00  0.00    +0.147 C 
ATOM     12  C   UNL     1      34.159 -11.503 -23.139  0.00  0.00    +0.041 C 
ATOM     13  C   UNL     1      33.447 -13.376 -21.788  0.00  0.00    +0.041 C 
ATOM     14  C   UNL     1      32.352 -11.235 -21.560  0.00  0.00    +0.139 C 
ATOM     15  C   UNL     1      33.192 -10.700 -22.536  0.00  0.00    +0.040 C 
ATOM     16  C   UNL     1      32.479 -12.574 -21.187  0.00  0.00    +0.040 C 
BRANCH  14  17
ATOM     17  O   UNL     1      31.406 -10.452 -20.972  0.00  0.00    -0.471 OA
ATOM     18  C   UNL     1      30.904 -10.878 -19.706  0.00  0.00    +0.252 C 
ENDBRANCH  14  17
ENDBRANCH  10  11
ENDBRANCH   8  10
ENDBRANCH   1   2
BRANCH   1  19
ATOM     19  C   UNL     1      34.370 -19.678 -19.915  0.00  0.00    +0.227 C 
BRANCH  19  20
ATOM     20  O   UNL     1      34.636 -21.048 -19.619  0.00  0.00    -0.474 OA
BRANCH  20  24
ATOM     21  C   UNL     1      36.296 -21.894 -15.911  0.00  0.00    -0.021 C 
ATOM     22  C   UNL     1      34.991 -22.294 -16.198  0.00  0.00    -0.001 C 
ATOM     23  C   UNL     1      37.044 -21.210 -16.870  0.00  0.00    -0.001 C 
ATOM     24  C   UNL     1      35.180 -21.325 -18.403  0.00  0.00    +0.139 C 
ATOM     25  C   UNL     1      34.433 -22.009 -17.444  0.00  0.00    +0.037 C 
ATOM     26  C   UNL     1      36.485 -20.925 -18.115  0.00  0.00    +0.037 C 
BRANCH  21  27
ATOM     27  C   UNL     1      36.899 -22.202 -14.564  0.00  0.00    +0.047 C 
BRANCH  27  32
ATOM     28  S   UNL     1      36.057 -24.322 -13.019  0.00  0.00    -0.048 S 
ATOM     29  O   UNL     1      39.513 -23.674 -14.610  0.00  0.00    -0.274 OA
ATOM     30  O   UNL     1      37.269 -25.563 -11.044  0.00  0.00    -0.263 OA
ATOM     31  N   UNL     1      38.571 -24.689 -12.758  0.00  0.00    -0.246 N 
ATOM     32  C   UNL     1      37.109 -23.693 -14.364  0.00  0.00    +0.137 C 
ATOM     33  C   UNL     1      38.531 -24.000 -13.952  0.00  0.00    +0.239 C 
ATOM     34  C   UNL     1      37.401 -24.968 -12.102  0.00  0.00    +0.279 C 
ATOM     35  H   UNL     1      39.433 -24.978 -12.380  0.00  0.00    +0.158 HD
ENDBRANCH  27  32
ENDBRANCH  21  27
ENDBRANCH  20  24
ENDBRANCH  19  20
ENDBRANCH   1  19
TORSDOF 9
ENDMDL
MODEL 8
REMARK VINA RESULT:     -11.5      3.415     12.349
REMARK  Name = 9826451
REMARK  9 active torsions:
REMARK  status: ('A' for Active; 'I' for Inactive)
REMARK    1  A    between atoms: C_1  and  N_2
REMARK    2  A    between atoms: C_1  and  C_19
REMARK    3  A    between atoms: C_8  and  O_10
REMARK    4  A    between atoms: O_10  and  C_11
REMARK    5  A    between atoms: C_14  and  O_17
REMARK    6  A    between atoms: C_19  and  O_20
REMARK    7  A    between atoms: O_20  and  C_24
REMARK    8  A    between atoms: C_21  and  C_27
REMARK    9  A    between atoms: C_27  and  C_32
REMARK                            x       y       z     vdW  Elec       q    Type
REMARK                         _______ _______ _______ _____ _____    ______ ____
ROOT
ATOM      1  C   UNL     1      36.034 -16.988 -21.104  0.00  0.00    +0.139 C 
ENDROOT
BRANCH   1   2
ATOM      2  N   UNL     1      35.290 -15.802 -21.458  0.00  0.00    -0.291 N 
ATOM      3  C   UNL     1      34.942 -14.852 -20.400  0.00  0.00    +0.113 C 
ATOM      4  N   UNL     1      35.225 -16.448 -23.736  0.00  0.00    -0.233 NA
ATOM      5  N   UNL     1      34.099 -15.049 -25.342  0.00  0.00    -0.214 NA
ATOM      6  C   UNL     1      34.891 -15.557 -22.779  0.00  0.00    +0.115 C 
ATOM      7  C   UNL     1      34.172 -14.405 -23.023  0.00  0.00    +0.146 C 
ATOM      8  C   UNL     1      33.799 -14.200 -24.336  0.00  0.00    +0.210 C 
ATOM      9  C   UNL     1      34.803 -16.136 -24.976  0.00  0.00    +0.254 C 
BRANCH   8  10
ATOM     10  O   UNL     1      33.083 -13.078 -24.660  0.00  0.00    -0.440 OA
BRANCH  10  11
ATOM     11  C   UNL     1      33.749 -11.869 -24.628  0.00  0.00    +0.147 C 
ATOM     12  C   UNL     1      33.875 -11.173 -23.426  0.00  0.00    +0.041 C 
ATOM     13  C   UNL     1      34.296 -11.344 -25.800  0.00  0.00    +0.041 C 
ATOM     14  C   UNL     1      35.095  -9.427 -24.565  0.00  0.00    +0.139 C 
ATOM     15  C   UNL     1      34.548  -9.953 -23.394  0.00  0.00    +0.040 C 
ATOM     16  C   UNL     1      34.969 -10.124 -25.768  0.00  0.00    +0.040 C 
BRANCH  14  17
ATOM     17  O   UNL     1      35.753  -8.236 -24.534  0.00  0.00    -0.471 OA
ATOM     18  C   UNL     1      35.653  -7.469 -23.336  0.00  0.00    +0.252 C 
ENDBRANCH  14  17
ENDBRANCH  10  11
ENDBRANCH   8  10
ENDBRANCH   1   2
BRANCH   1  19
ATOM     19  C   UNL     1      35.100 -18.032 -20.517  0.00  0.00    +0.227 C 
BRANCH  19  20
ATOM     20  O   UNL     1      35.839 -19.215 -20.217  0.00  0.00    -0.474 OA
BRANCH  20  24
ATOM     21  C   UNL     1      34.033 -21.993 -17.717  0.00  0.00    -0.021 C 
ATOM     22  C   UNL     1      33.271 -21.308 -18.664  0.00  0.00    -0.001 C 
ATOM     23  C   UNL     1      35.402 -21.744 -17.611  0.00  0.00    -0.001 C 
ATOM     24  C   UNL     1      35.246 -20.125 -19.397  0.00  0.00    +0.139 C 
ATOM     25  C   UNL     1      33.877 -20.374 -19.504  0.00  0.00    +0.037 C 
ATOM     26  C   UNL     1      36.007 -20.810 -18.450  0.00  0.00    +0.037 C 
BRANCH  21  27
ATOM     27  C   UNL     1      33.377 -23.001 -16.810  0.00  0.00    +0.047 C 
BRANCH  27  32
ATOM     28  S   UNL     1      33.328 -23.193 -14.062  0.00  0.00    -0.048 S 
ATOM     29  O   UNL     1      30.560 -22.021 -16.483  0.00  0.00    -0.274 OA
ATOM     30  O   UNL     1      31.455 -24.111 -12.463  0.00  0.00    -0.263 OA
ATOM     31  N   UNL     1      30.805 -23.076 -14.439  0.00  0.00    -0.246 N 
ATOM     32  C   UNL     1      32.776 -22.349 -15.577  0.00  0.00    +0.137 C 
ATOM     33  C   UNL     1      31.267 -22.450 -15.578  0.00  0.00    +0.239 C 
ATOM     34  C   UNL     1      31.702 -23.538 -13.513  0.00  0.00    +0.279 C 
ATOM     35  H   UNL     1      29.837 -23.189 -14.293  0.00  0.00    +0.158 HD
ENDBRANCH  27  32
ENDBRANCH  21  27
ENDBRANCH  20  24
ENDBRANCH  19  20
ENDBRANCH   1  19
TORSDOF 9
ENDMDL
MODEL 9
REMARK VINA RESULT:     -11.4      4.731     13.179
REMARK  Name = 9826451
REMARK  9 active torsions:
REMARK  status: ('A' for Active; 'I' for Inactive)
REMARK    1  A    between atoms: C_1  and  N_2
REMARK    2  A    between atoms: C_1  and  C_19
REMARK    3  A    between atoms: C_8  and  O_10
REMARK    4  A    between atoms: O_10  and  C_11
REMARK    5  A    between atoms: C_14  and  O_17
REMARK    6  A    between atoms: C_19  and  O_20
REMARK    7  A    between atoms: O_20  and  C_24
REMARK    8  A    between atoms: C_21  and  C_27
REMARK    9  A    between atoms: C_27  and  C_32
REMARK                            x       y       z     vdW  Elec       q    Type
REMARK                         _______ _______ _______ _____ _____    ______ ____
ROOT
ATOM      1  C   UNL     1      33.224 -13.836 -24.071  0.00  0.00    +0.139 C 
ENDROOT
BRANCH   1   2
ATOM      2  N   UNL     1      33.500 -12.650 -23.295  0.00  0.00    -0.291 N 
ATOM      3  C   UNL     1      33.200 -12.666 -21.862  0.00  0.00    +0.113 C 
ATOM      4  N   UNL     1      34.300 -11.508 -25.209  0.00  0.00    -0.233 NA
ATOM      5  N   UNL     1      35.066  -9.233 -25.008  0.00  0.00    -0.214 NA
ATOM      6  C   UNL     1      34.031 -11.497 -23.887  0.00  0.00    +0.115 C 
ATOM      7  C   UNL     1      34.250 -10.406 -23.070  0.00  0.00    +0.146 C 
ATOM      8  C   UNL     1      34.775  -9.291 -23.692  0.00  0.00    +0.210 C 
ATOM      9  C   UNL     1      34.807 -10.360 -25.697  0.00  0.00    +0.254 C 
BRANCH   8  10
ATOM     10  O   UNL     1      35.022  -8.166 -22.949  0.00  0.00    -0.440 OA
BRANCH  10  11
ATOM     11  C   UNL     1      33.935  -7.401 -22.576  0.00  0.00    +0.147 C 
ATOM     12  C   UNL     1      33.522  -7.376 -21.244  0.00  0.00    +0.041 C 
ATOM     13  C   UNL     1      33.249  -6.651 -23.533  0.00  0.00    +0.041 C 
ATOM     14  C   UNL     1      31.739  -5.854 -21.824  0.00  0.00    +0.139 C 
ATOM     15  C   UNL     1      32.424  -6.603 -20.868  0.00  0.00    +0.040 C 
ATOM     16  C   UNL     1      32.152  -5.877 -23.157  0.00  0.00    +0.040 C 
BRANCH  14  17
ATOM     17  O   UNL     1      30.668  -5.098 -21.457  0.00  0.00    -0.471 OA
ATOM     18  C   UNL     1      30.829  -4.250 -20.321  0.00  0.00    +0.252 C 
ENDBRANCH  14  17
ENDBRANCH  10  11
ENDBRANCH   8  10
ENDBRANCH   1   2
BRANCH   1  19
ATOM     19  C   UNL     1      34.491 -14.658 -24.233  0.00  0.00    +0.227 C 
BRANCH  19  20
ATOM     20  O   UNL     1      35.155 -14.761 -22.975  0.00  0.00    -0.474 OA
BRANCH  20  24
ATOM     21  C   UNL     1      35.400 -18.536 -21.269  0.00  0.00    -0.021 C 
ATOM     22  C   UNL     1      35.484 -17.401 -20.464  0.00  0.00    -0.001 C 
ATOM     23  C   UNL     1      35.234 -18.403 -22.648  0.00  0.00    -0.001 C 
ATOM     24  C   UNL     1      35.236 -15.999 -22.415  0.00  0.00    +0.139 C 
ATOM     25  C   UNL     1      35.402 -16.132 -21.036  0.00  0.00    +0.037 C 
ATOM     26  C   UNL     1      35.153 -17.135 -23.220  0.00  0.00    +0.037 C 
BRANCH  21  27
ATOM     27  C   UNL     1      35.489 -19.907 -20.649  0.00  0.00    +0.047 C 
BRANCH  27  32
ATOM     28  S   UNL     1      35.492 -21.212 -18.223  0.00  0.00    -0.048 S 
ATOM     29  O   UNL     1      32.512 -19.864 -20.272  0.00  0.00    -0.274 OA
ATOM     30  O   UNL     1      33.931 -23.129 -17.330  0.00  0.00    -0.263 OA
ATOM     31  N   UNL     1      33.029 -21.568 -18.796  0.00  0.00    -0.246 N 
ATOM     32  C   UNL     1      34.735 -19.984 -19.333  0.00  0.00    +0.137 C 
ATOM     33  C   UNL     1      33.308 -20.440 -19.538  0.00  0.00    +0.239 C 
ATOM     34  C   UNL     1      34.017 -22.136 -18.036  0.00  0.00    +0.279 C 
ATOM     35  H   UNL     1      32.127 -21.963 -18.813  0.00  0.00    +0.158 HD
ENDBRANCH  27  32
ENDBRANCH  21  27
ENDBRANCH  20  24
ENDBRANCH  19  20
ENDBRANCH   1  19
TORSDOF 9
ENDMDL
