MODEL 1
REMARK VINA RESULT:     -12.6      0.000      0.000
REMARK  Name = 118513932
REMARK  2 active torsions:
REMARK  status: ('A' for Active; 'I' for Inactive)
REMARK    1  A    between atoms: C_4  and  N_24
REMARK    2  A    between atoms: C_10  and  C_15
REMARK                            x       y       z     vdW  Elec       q    Type
REMARK                         _______ _______ _______ _____ _____    ______ ____
ROOT
ATOM      1  O   UNL     1      32.704 -22.107 -17.990  0.00  0.00    -0.274 OA
ATOM      2  N   UNL     1      34.929 -21.608 -17.418  0.00  0.00    -0.209 N 
ATOM      3  N   UNL     1      36.096 -19.954 -18.684  0.00  0.00    -0.389 NA
ATOM      4  C   UNL     1      36.051 -22.716 -15.601  0.00  0.00    +0.063 C 
ATOM      5  C   UNL     1      34.966 -22.523 -16.371  0.00  0.00    +0.089 C 
ATOM      6  C   UNL     1      37.233 -21.929 -15.886  0.00  0.00    +0.020 C 
ATOM      7  C   UNL     1      37.261 -21.034 -16.879  0.00  0.00    +0.050 C 
ATOM      8  C   UNL     1      36.053 -20.828 -17.723  0.00  0.00    +0.193 C 
ATOM      9  C   UNL     1      33.749 -21.482 -18.162  0.00  0.00    +0.242 C 
ATOM     10  C   UNL     1      34.958 -19.809 -19.427  0.00  0.00    +0.139 C 
ATOM     11  C   UNL     1      33.816 -20.481 -19.252  0.00  0.00    +0.146 C 
ENDROOT
BRANCH  10  15
ATOM     12  N   UNL     1      35.050 -16.776 -21.381  0.00  0.00    -0.178 N 
ATOM     13  N   UNL     1      35.032 -17.551 -20.266  0.00  0.00    -0.173 NA
ATOM     14  N   UNL     1      35.050 -16.173 -23.525  0.00  0.00    -0.392 NA
ATOM     15  C   UNL     1      34.982 -18.830 -20.517  0.00  0.00    +0.124 C 
ATOM     16  C   UNL     1      34.947 -19.426 -21.886  0.00  0.00    +0.023 C 
ATOM     17  C   UNL     1      34.966 -18.603 -22.951  0.00  0.00    +0.025 C 
ATOM     18  C   UNL     1      35.021 -17.199 -22.697  0.00  0.00    +0.198 C 
ATOM     19  C   UNL     1      35.100 -15.407 -21.397  0.00  0.00    +0.173 C 
ATOM     20  C   UNL     1      35.099 -15.061 -22.726  0.00  0.00    +0.111 C 
ATOM     21  C   UNL     1      34.931 -19.181 -24.342  0.00  0.00    +0.035 C 
ATOM     22  C   UNL     1      35.144 -13.715 -23.317  0.00  0.00    +0.063 C 
ENDBRANCH  10  15
BRANCH   4  24
ATOM     23  N   UNL     1      36.512 -24.888 -12.036  0.00  0.00    +0.389 N 
ATOM     24  N   UNL     1      36.102 -23.609 -14.570  0.00  0.00    -0.311 N 
ATOM     25  C   UNL     1      37.622 -24.715 -13.009  0.00  0.00    -0.027 C 
ATOM     26  C   UNL     1      38.924 -25.434 -12.735  0.00  0.00    -0.020 C 
ATOM     27  C   UNL     1      38.850 -23.945 -12.571  0.00  0.00    -0.020 C 
ATOM     28  C   UNL     1      37.179 -24.597 -14.453  0.00  0.00    +0.071 C 
ATOM     29  C   UNL     1      35.534 -23.810 -12.190  0.00  0.00    -0.060 C 
ATOM     30  C   UNL     1      34.996 -23.760 -13.620  0.00  0.00    +0.067 C 
ATOM     31  H   UNL     1      36.888 -24.870 -11.089  0.00  0.00    -0.084 HD
ATOM     32  H   UNL     1      36.053 -25.782 -12.210  0.00  0.00    -0.084 HD
ENDBRANCH   4  24
TORSDOF 2
ENDMDL
MODEL 2
REMARK VINA RESULT:     -11.7      6.301     13.801
REMARK  Name = 118513932
REMARK  2 active torsions:
REMARK  status: ('A' for Active; 'I' for Inactive)
REMARK    1  A    between atoms: C_4  and  N_24
REMARK    2  A    between atoms: C_10  and  C_15
REMARK                            x       y       z     vdW  Elec       q    Type
REMARK                         _______ _______ _______ _____ _____    ______ ____
ROOT
ATOM      1  O   UNL     1      31.227 -10.997 -20.252  0.00  0.00    -0.274 OA
ATOM      2  N   UNL     1      32.601 -10.313 -22.032  0.00  0.00    -0.209 N 
ATOM      3  N   UNL     1      34.142 -11.882 -22.962  0.00  0.00    -0.389 NA
ATOM      4  C   UNL     1      32.495  -8.085 -22.933  0.00  0.00    +0.063 C 
ATOM      5  C   UNL     1      32.081  -9.023 -22.064  0.00  0.00    +0.089 C 
ATOM      6  C   UNL     1      33.533  -8.445 -23.876  0.00  0.00    +0.020 C 
ATOM      7  C   UNL     1      34.073  -9.667 -23.896  0.00  0.00    +0.050 C 
ATOM      8  C   UNL     1      33.606 -10.699 -22.930  0.00  0.00    +0.193 C 
ATOM      9  C   UNL     1      32.103 -11.218 -21.087  0.00  0.00    +0.242 C 
ATOM     10  C   UNL     1      33.674 -12.787 -22.051  0.00  0.00    +0.139 C 
ATOM     11  C   UNL     1      32.723 -12.563 -21.139  0.00  0.00    +0.146 C 
ENDROOT
BRANCH  10  15
ATOM     12  N   UNL     1      35.228 -15.918 -21.153  0.00  0.00    -0.178 N 
ATOM     13  N   UNL     1      34.716 -14.673 -20.973  0.00  0.00    -0.173 NA
ATOM     14  N   UNL     1      35.865 -17.809 -22.144  0.00  0.00    -0.392 NA
ATOM     15  C   UNL     1      34.262 -14.130 -22.067  0.00  0.00    +0.124 C 
ATOM     16  C   UNL     1      34.285 -14.780 -23.412  0.00  0.00    +0.023 C 
ATOM     17  C   UNL     1      34.806 -16.016 -23.524  0.00  0.00    +0.025 C 
ATOM     18  C   UNL     1      35.308 -16.629 -22.337  0.00  0.00    +0.198 C 
ATOM     19  C   UNL     1      35.767 -16.706 -20.171  0.00  0.00    +0.173 C 
ATOM     20  C   UNL     1      36.151 -17.862 -20.804  0.00  0.00    +0.111 C 
ATOM     21  C   UNL     1      34.840 -16.692 -24.870  0.00  0.00    +0.035 C 
ATOM     22  C   UNL     1      36.788 -19.053 -20.223  0.00  0.00    +0.063 C 
ENDBRANCH  10  15
BRANCH   4  24
ATOM     23  N   UNL     1      31.635  -3.975 -22.803  0.00  0.00    +0.389 N 
ATOM     24  N   UNL     1      31.994  -6.816 -22.977  0.00  0.00    -0.311 N 
ATOM     25  C   UNL     1      31.516  -4.849 -21.608  0.00  0.00    -0.027 C 
ATOM     26  C   UNL     1      30.973  -4.240 -20.334  0.00  0.00    -0.020 C 
ATOM     27  C   UNL     1      32.429  -4.584 -20.429  0.00  0.00    -0.020 C 
ATOM     28  C   UNL     1      31.137  -6.284 -21.912  0.00  0.00    +0.071 C 
ATOM     29  C   UNL     1      32.569  -4.563 -23.766  0.00  0.00    -0.060 C 
ATOM     30  C   UNL     1      32.127  -5.970 -24.167  0.00  0.00    +0.067 C 
ATOM     31  H   UNL     1      31.977  -3.058 -22.519  0.00  0.00    -0.084 HD
ATOM     32  H   UNL     1      30.719  -3.884 -23.241  0.00  0.00    -0.084 HD
ENDBRANCH   4  24
TORSDOF 2
ENDMDL
MODEL 3
REMARK VINA RESULT:     -11.2      6.268     13.719
REMARK  Name = 118513932
REMARK  2 active torsions:
REMARK  status: ('A' for Active; 'I' for Inactive)
REMARK    1  A    between atoms: C_4  and  N_24
REMARK    2  A    between atoms: C_10  and  C_15
REMARK                            x       y       z     vdW  Elec       q    Type
REMARK                         _______ _______ _______ _____ _____    ______ ____
ROOT
ATOM      1  O   UNL     1      34.550 -10.542 -25.397  0.00  0.00    -0.274 OA
ATOM      2  N   UNL     1      33.385 -10.451 -23.358  0.00  0.00    -0.209 N 
ATOM      3  N   UNL     1      33.339 -12.397 -21.975  0.00  0.00    -0.389 NA
ATOM      4  C   UNL     1      32.245  -8.459 -22.635  0.00  0.00    +0.063 C 
ATOM      5  C   UNL     1      32.991  -9.128 -23.532  0.00  0.00    +0.089 C 
ATOM      6  C   UNL     1      31.838  -9.159 -21.435  0.00  0.00    +0.020 C 
ATOM      7  C   UNL     1      32.184 -10.431 -21.210  0.00  0.00    +0.050 C 
ATOM      8  C   UNL     1      33.011 -11.161 -22.209  0.00  0.00    +0.193 C 
ATOM      9  C   UNL     1      34.162 -11.059 -24.352  0.00  0.00    +0.242 C 
ATOM     10  C   UNL     1      34.097 -13.016 -22.927  0.00  0.00    +0.139 C 
ATOM     11  C   UNL     1      34.528 -12.467 -24.067  0.00  0.00    +0.146 C 
ENDROOT
BRANCH  10  15
ATOM     12  N   UNL     1      35.265 -16.103 -21.467  0.00  0.00    -0.178 N 
ATOM     13  N   UNL     1      34.961 -14.782 -21.533  0.00  0.00    -0.173 NA
ATOM     14  N   UNL     1      35.516 -18.237 -22.057  0.00  0.00    -0.392 NA
ATOM     15  C   UNL     1      34.480 -14.411 -22.686  0.00  0.00    +0.124 C 
ATOM     16  C   UNL     1      34.269 -15.321 -23.852  0.00  0.00    +0.023 C 
ATOM     17  C   UNL     1      34.591 -16.622 -23.723  0.00  0.00    +0.025 C 
ATOM     18  C   UNL     1      35.119 -17.048 -22.467  0.00  0.00    +0.198 C 
ATOM     19  C   UNL     1      35.782 -16.747 -20.375  0.00  0.00    +0.173 C 
ATOM     20  C   UNL     1      35.927 -18.057 -20.762  0.00  0.00    +0.111 C 
ATOM     21  C   UNL     1      34.387 -17.559 -24.885  0.00  0.00    +0.035 C 
ATOM     22  C   UNL     1      36.441 -19.189 -19.976  0.00  0.00    +0.063 C 
ENDBRANCH  10  15
BRANCH   4  24
ATOM     23  N   UNL     1      31.729  -4.297 -22.861  0.00  0.00    +0.389 N 
ATOM     24  N   UNL     1      31.852  -7.161 -22.792  0.00  0.00    -0.311 N 
ATOM     25  C   UNL     1      31.528  -5.054 -21.599  0.00  0.00    -0.027 C 
ATOM     26  C   UNL     1      31.028  -4.297 -20.389  0.00  0.00    -0.020 C 
ATOM     27  C   UNL     1      32.451  -4.767 -20.433  0.00  0.00    -0.020 C 
ATOM     28  C   UNL     1      31.033  -6.474 -21.788  0.00  0.00    +0.071 C 
ATOM     29  C   UNL     1      32.618  -5.038 -23.758  0.00  0.00    -0.060 C 
ATOM     30  C   UNL     1      32.063  -6.434 -24.047  0.00  0.00    +0.067 C 
ATOM     31  H   UNL     1      32.144  -3.390 -22.649  0.00  0.00    -0.084 HD
ATOM     32  H   UNL     1      30.826  -4.168 -23.319  0.00  0.00    -0.084 HD
ENDBRANCH   4  24
TORSDOF 2
ENDMDL
MODEL 4
REMARK VINA RESULT:     -11.1      6.431     11.372
REMARK  Name = 118513932
REMARK  2 active torsions:
REMARK  status: ('A' for Active; 'I' for Inactive)
REMARK    1  A    between atoms: C_4  and  N_24
REMARK    2  A    between atoms: C_10  and  C_15
REMARK                            x       y       z     vdW  Elec       q    Type
REMARK                         _______ _______ _______ _____ _____    ______ ____
ROOT
ATOM      1  O   UNL     1      33.912 -12.042 -25.986  0.00  0.00    -0.274 OA
ATOM      2  N   UNL     1      34.090 -12.524 -23.692  0.00  0.00    -0.209 N 
ATOM      3  N   UNL     1      33.681 -10.776 -22.117  0.00  0.00    -0.389 NA
ATOM      4  C   UNL     1      34.673 -14.718 -22.897  0.00  0.00    +0.063 C 
ATOM      5  C   UNL     1      34.427 -13.856 -23.900  0.00  0.00    +0.089 C 
ATOM      6  C   UNL     1      34.579 -14.223 -21.540  0.00  0.00    +0.020 C 
ATOM      7  C   UNL     1      34.260 -12.952 -21.274  0.00  0.00    +0.050 C 
ATOM      8  C   UNL     1      33.990 -12.007 -22.392  0.00  0.00    +0.193 C 
ATOM      9  C   UNL     1      33.854 -11.706 -24.804  0.00  0.00    +0.242 C 
ATOM     10  C   UNL     1      33.444  -9.955 -23.183  0.00  0.00    +0.139 C 
ATOM     11  C   UNL     1      33.502 -10.305 -24.472  0.00  0.00    +0.146 C 
ENDROOT
BRANCH  10  15
ATOM     12  N   UNL     1      32.628  -6.448 -23.439  0.00  0.00    -0.178 N 
ATOM     13  N   UNL     1      32.955  -7.696 -23.865  0.00  0.00    -0.173 NA
ATOM     14  N   UNL     1      32.131  -4.749 -22.088  0.00  0.00    -0.392 NA
ATOM     15  C   UNL     1      33.094  -8.560 -22.899  0.00  0.00    +0.124 C 
ATOM     16  C   UNL     1      32.920  -8.249 -21.448  0.00  0.00    +0.023 C 
ATOM     17  C   UNL     1      32.596  -6.991 -21.091  0.00  0.00    +0.025 C 
ATOM     18  C   UNL     1      32.439  -6.030 -22.135  0.00  0.00    +0.198 C 
ATOM     19  C   UNL     1      32.425  -5.361 -24.246  0.00  0.00    +0.173 C 
ATOM     20  C   UNL     1      32.120  -4.329 -23.393  0.00  0.00    +0.111 C 
ATOM     21  C   UNL     1      32.416  -6.653 -19.634  0.00  0.00    +0.035 C 
ATOM     22  C   UNL     1      31.810  -2.931 -23.726  0.00  0.00    +0.063 C 
ENDBRANCH  10  15
BRANCH   4  24
ATOM     23  N   UNL     1      35.015 -18.896 -23.162  0.00  0.00    +0.389 N 
ATOM     24  N   UNL     1      35.004 -16.029 -23.086  0.00  0.00    -0.311 N 
ATOM     25  C   UNL     1      35.351 -18.149 -21.923  0.00  0.00    -0.027 C 
ATOM     26  C   UNL     1      35.926 -18.927 -20.759  0.00  0.00    -0.020 C 
ATOM     27  C   UNL     1      34.522 -18.405 -20.682  0.00  0.00    -0.020 C 
ATOM     28  C   UNL     1      35.880 -16.748 -22.155  0.00  0.00    +0.071 C 
ATOM     29  C   UNL     1      34.080 -18.121 -23.980  0.00  0.00    -0.060 C 
ATOM     30  C   UNL     1      34.659 -16.746 -24.317  0.00  0.00    +0.067 C 
ATOM     31  H   UNL     1      34.587 -19.787 -22.914  0.00  0.00    -0.084 HD
ATOM     32  H   UNL     1      35.870 -19.057 -23.696  0.00  0.00    -0.084 HD
ENDBRANCH   4  24
TORSDOF 2
ENDMDL
MODEL 5
REMARK VINA RESULT:     -10.3      1.375      9.920
REMARK  Name = 118513932
REMARK  2 active torsions:
REMARK  status: ('A' for Active; 'I' for Inactive)
REMARK    1  A    between atoms: C_4  and  N_24
REMARK    2  A    between atoms: C_10  and  C_15
REMARK                            x       y       z     vdW  Elec       q    Type
REMARK                         _______ _______ _______ _____ _____    ______ ____
ROOT
ATOM      1  O   UNL     1      32.553 -20.985 -19.635  0.00  0.00    -0.274 OA
ATOM      2  N   UNL     1      34.762 -20.183 -19.604  0.00  0.00    -0.209 N 
ATOM      3  N   UNL     1      36.202 -20.855 -17.821  0.00  0.00    -0.389 NA
ATOM      4  C   UNL     1      35.602 -18.712 -21.312  0.00  0.00    +0.063 C 
ATOM      5  C   UNL     1      34.613 -19.446 -20.774  0.00  0.00    +0.089 C 
ATOM      6  C   UNL     1      36.880 -18.696 -20.632  0.00  0.00    +0.020 C 
ATOM      7  C   UNL     1      37.087 -19.383 -19.504  0.00  0.00    +0.050 C 
ATOM      8  C   UNL     1      35.985 -20.192 -18.918  0.00  0.00    +0.193 C 
ATOM      9  C   UNL     1      33.669 -20.915 -19.124  0.00  0.00    +0.242 C 
ATOM     10  C   UNL     1      35.153 -21.579 -17.330  0.00  0.00    +0.139 C 
ATOM     11  C   UNL     1      33.935 -21.665 -17.873  0.00  0.00    +0.146 C 
ENDROOT
BRANCH  10  15
ATOM     12  N   UNL     1      36.612 -23.369 -14.556  0.00  0.00    -0.178 N 
ATOM     13  N   UNL     1      36.575 -22.676 -15.723  0.00  0.00    -0.173 NA
ATOM     14  N   UNL     1      35.942 -24.400 -12.699  0.00  0.00    -0.392 NA
ATOM     15  C   UNL     1      35.373 -22.334 -16.093  0.00  0.00    +0.124 C 
ATOM     16  C   UNL     1      34.126 -22.656 -15.334  0.00  0.00    +0.023 C 
ATOM     17  C   UNL     1      34.231 -23.347 -14.183  0.00  0.00    +0.025 C 
ATOM     18  C   UNL     1      35.539 -23.730 -13.761  0.00  0.00    +0.198 C 
ATOM     19  C   UNL     1      37.744 -23.844 -13.948  0.00  0.00    +0.173 C 
ATOM     20  C   UNL     1      37.306 -24.473 -12.809  0.00  0.00    +0.111 C 
ATOM     21  C   UNL     1      32.988 -23.684 -13.401  0.00  0.00    +0.035 C 
ATOM     22  C   UNL     1      38.104 -25.160 -11.783  0.00  0.00    +0.063 C 
ENDBRANCH  10  15
BRANCH   4  24
ATOM     23  N   UNL     1      34.507 -16.305 -24.576  0.00  0.00    +0.389 N 
ATOM     24  N   UNL     1      35.471 -17.985 -22.460  0.00  0.00    -0.311 N 
ATOM     25  C   UNL     1      34.117 -17.735 -24.478  0.00  0.00    -0.027 C 
ATOM     26  C   UNL     1      33.383 -18.352 -25.648  0.00  0.00    -0.020 C 
ATOM     27  C   UNL     1      32.645 -18.074 -24.373  0.00  0.00    -0.020 C 
ATOM     28  C   UNL     1      35.108 -18.609 -23.736  0.00  0.00    +0.071 C 
ATOM     29  C   UNL     1      34.775 -15.763 -23.242  0.00  0.00    -0.060 C 
ATOM     30  C   UNL     1      35.860 -16.573 -22.531  0.00  0.00    +0.067 C 
ATOM     31  H   UNL     1      33.750 -15.777 -25.008  0.00  0.00    -0.084 HD
ATOM     32  H   UNL     1      35.352 -16.229 -25.142  0.00  0.00    -0.084 HD
ENDBRANCH   4  24
TORSDOF 2
ENDMDL
MODEL 6
REMARK VINA RESULT:     -10.2      6.153     11.034
REMARK  Name = 118513932
REMARK  2 active torsions:
REMARK  status: ('A' for Active; 'I' for Inactive)
REMARK    1  A    between atoms: C_4  and  N_24
REMARK    2  A    between atoms: C_10  and  C_15
REMARK                            x       y       z     vdW  Elec       q    Type
REMARK                         _______ _______ _______ _____ _____    ______ ____
ROOT
ATOM      1  O   UNL     1      34.018 -12.224 -25.657  0.00  0.00    -0.274 OA
ATOM      2  N   UNL     1      34.063 -12.739 -23.364  0.00  0.00    -0.209 N 
ATOM      3  N   UNL     1      33.457 -11.043 -21.795  0.00  0.00    -0.389 NA
ATOM      4  C   UNL     1      34.702 -14.916 -22.564  0.00  0.00    +0.063 C 
ATOM      5  C   UNL     1      34.482 -14.049 -23.568  0.00  0.00    +0.089 C 
ATOM      6  C   UNL     1      34.491 -14.451 -21.210  0.00  0.00    +0.020 C 
ATOM      7  C   UNL     1      34.089 -13.203 -20.947  0.00  0.00    +0.050 C 
ATOM      8  C   UNL     1      33.847 -12.253 -22.067  0.00  0.00    +0.193 C 
ATOM      9  C   UNL     1      33.862 -11.914 -24.478  0.00  0.00    +0.242 C 
ATOM     10  C   UNL     1      33.252 -10.216 -22.863  0.00  0.00    +0.139 C 
ATOM     11  C   UNL     1      33.417 -10.539 -24.150  0.00  0.00    +0.146 C 
ENDROOT
BRANCH  10  15
ATOM     12  N   UNL     1      32.305  -7.122 -21.264  0.00  0.00    -0.178 N 
ATOM     13  N   UNL     1      32.725  -8.410 -21.357  0.00  0.00    -0.173 NA
ATOM     14  N   UNL     1      31.607  -5.088 -21.848  0.00  0.00    -0.392 NA
ATOM     15  C   UNL     1      32.812  -8.846 -22.582  0.00  0.00    +0.124 C 
ATOM     16  C   UNL     1      32.490  -8.038 -23.797  0.00  0.00    +0.023 C 
ATOM     17  C   UNL     1      32.078  -6.766 -23.637  0.00  0.00    +0.025 C 
ATOM     18  C   UNL     1      31.976  -6.270 -22.303  0.00  0.00    +0.198 C 
ATOM     19  C   UNL     1      32.129  -6.425 -20.098  0.00  0.00    +0.173 C 
ATOM     20  C   UNL     1      31.700  -5.178 -20.483  0.00  0.00    +0.111 C 
ATOM     21  C   UNL     1      31.747  -5.932 -24.848  0.00  0.00    +0.035 C 
ATOM     22  C   UNL     1      31.360  -4.028 -19.633  0.00  0.00    +0.063 C 
ENDBRANCH  10  15
BRANCH   4  24
ATOM     23  N   UNL     1      35.278 -19.066 -22.862  0.00  0.00    +0.389 N 
ATOM     24  N   UNL     1      35.112 -16.204 -22.749  0.00  0.00    -0.311 N 
ATOM     25  C   UNL     1      35.499 -18.323 -21.595  0.00  0.00    -0.027 C 
ATOM     26  C   UNL     1      36.041 -19.089 -20.408  0.00  0.00    -0.020 C 
ATOM     27  C   UNL     1      34.610 -18.641 -20.411  0.00  0.00    -0.020 C 
ATOM     28  C   UNL     1      35.966 -16.893 -21.776  0.00  0.00    +0.071 C 
ATOM     29  C   UNL     1      34.356 -18.326 -23.726  0.00  0.00    -0.060 C 
ATOM     30  C   UNL     1      34.881 -16.918 -24.009  0.00  0.00    +0.067 C 
ATOM     31  H   UNL     1      34.883 -19.982 -22.653  0.00  0.00    -0.084 HD
ATOM     32  H   UNL     1      36.171 -19.174 -23.344  0.00  0.00    -0.084 HD
ENDBRANCH   4  24
TORSDOF 2
ENDMDL
MODEL 7
REMARK VINA RESULT:      -9.9      6.161     13.893
REMARK  Name = 118513932
REMARK  2 active torsions:
REMARK  status: ('A' for Active; 'I' for Inactive)
REMARK    1  A    between atoms: C_4  and  N_24
REMARK    2  A    between atoms: C_10  and  C_15
REMARK                            x       y       z     vdW  Elec       q    Type
REMARK                         _______ _______ _______ _____ _____    ______ ____
ROOT
ATOM      1  O   UNL     1      31.433 -10.961 -20.420  0.00  0.00    -0.274 OA
ATOM      2  N   UNL     1      33.097 -10.282 -21.934  0.00  0.00    -0.209 N 
ATOM      3  N   UNL     1      34.580 -11.929 -22.823  0.00  0.00    -0.389 NA
ATOM      4  C   UNL     1      33.343  -7.985 -22.604  0.00  0.00    +0.063 C 
ATOM      5  C   UNL     1      32.722  -8.944 -21.896  0.00  0.00    +0.089 C 
ATOM      6  C   UNL     1      34.457  -8.376 -23.443  0.00  0.00    +0.020 C 
ATOM      7  C   UNL     1      34.866  -9.646 -23.523  0.00  0.00    +0.050 C 
ATOM      8  C   UNL     1      34.170 -10.699 -22.735  0.00  0.00    +0.193 C 
ATOM      9  C   UNL     1      32.385 -11.205 -21.157  0.00  0.00    +0.242 C 
ATOM     10  C   UNL     1      33.903 -12.852 -22.077  0.00  0.00    +0.139 C 
ATOM     11  C   UNL     1      32.866 -12.602 -21.271  0.00  0.00    +0.146 C 
ENDROOT
BRANCH  10  15
ATOM     12  N   UNL     1      35.159 -16.155 -21.343  0.00  0.00    -0.178 N 
ATOM     13  N   UNL     1      34.788 -14.871 -21.103  0.00  0.00    -0.173 NA
ATOM     14  N   UNL     1      35.554 -18.066 -22.417  0.00  0.00    -0.392 NA
ATOM     15  C   UNL     1      34.348 -14.247 -22.159  0.00  0.00    +0.124 C 
ATOM     16  C   UNL     1      34.245 -14.850 -23.522  0.00  0.00    +0.023 C 
ATOM     17  C   UNL     1      34.630 -16.128 -23.694  0.00  0.00    +0.025 C 
ATOM     18  C   UNL     1      35.115 -16.829 -22.549  0.00  0.00    +0.198 C 
ATOM     19  C   UNL     1      35.654 -17.027 -20.410  0.00  0.00    +0.173 C 
ATOM     20  C   UNL     1      35.889 -18.194 -21.094  0.00  0.00    +0.111 C 
ATOM     21  C   UNL     1      34.536 -16.758 -25.060  0.00  0.00    +0.035 C 
ATOM     22  C   UNL     1      36.422 -19.463 -20.577  0.00  0.00    +0.063 C 
ENDBRANCH  10  15
BRANCH   4  24
ATOM     23  N   UNL     1      31.578  -4.178 -22.794  0.00  0.00    +0.389 N 
ATOM     24  N   UNL     1      32.986  -6.668 -22.578  0.00  0.00    -0.311 N 
ATOM     25  C   UNL     1      32.213  -4.818 -23.975  0.00  0.00    -0.027 C 
ATOM     26  C   UNL     1      32.302  -4.016 -25.254  0.00  0.00    -0.020 C 
ATOM     27  C   UNL     1      31.340  -5.163 -25.163  0.00  0.00    -0.020 C 
ATOM     28  C   UNL     1      33.371  -5.739 -23.645  0.00  0.00    +0.071 C 
ATOM     29  C   UNL     1      31.167  -5.199 -21.828  0.00  0.00    -0.060 C 
ATOM     30  C   UNL     1      32.357  -6.059 -21.402  0.00  0.00    +0.067 C 
ATOM     31  H   UNL     1      30.759  -3.651 -23.095  0.00  0.00    -0.084 HD
ATOM     32  H   UNL     1      32.251  -3.553 -22.352  0.00  0.00    -0.084 HD
ENDBRANCH   4  24
TORSDOF 2
ENDMDL
MODEL 8
REMARK VINA RESULT:      -9.8      7.596     12.328
REMARK  Name = 118513932
REMARK  2 active torsions:
REMARK  status: ('A' for Active; 'I' for Inactive)
REMARK    1  A    between atoms: C_4  and  N_24
REMARK    2  A    between atoms: C_10  and  C_15
REMARK                            x       y       z     vdW  Elec       q    Type
REMARK                         _______ _______ _______ _____ _____    ______ ____
ROOT
ATOM      1  O   UNL     1      32.167 -12.432 -20.462  0.00  0.00    -0.274 OA
ATOM      2  N   UNL     1      33.171 -11.937 -22.529  0.00  0.00    -0.209 N 
ATOM      3  N   UNL     1      33.360  -9.651 -23.194  0.00  0.00    -0.389 NA
ATOM      4  C   UNL     1      34.006 -13.664 -23.980  0.00  0.00    +0.063 C 
ATOM      5  C   UNL     1      33.411 -13.271 -22.841  0.00  0.00    +0.089 C 
ATOM      6  C   UNL     1      34.412 -12.641 -24.921  0.00  0.00    +0.020 C 
ATOM      7  C   UNL     1      34.209 -11.341 -24.680  0.00  0.00    +0.050 C 
ATOM      8  C   UNL     1      33.550 -10.918 -23.414  0.00  0.00    +0.193 C 
ATOM      9  C   UNL     1      32.543 -11.631 -21.315  0.00  0.00    +0.242 C 
ATOM     10  C   UNL     1      32.750  -9.323 -22.017  0.00  0.00    +0.139 C 
ATOM     11  C   UNL     1      32.336 -10.182 -21.080  0.00  0.00    +0.146 C 
ENDROOT
BRANCH  10  15
ATOM     12  N   UNL     1      32.187  -5.770 -22.308  0.00  0.00    -0.178 N 
ATOM     13  N   UNL     1      32.392  -7.047 -22.722  0.00  0.00    -0.173 NA
ATOM     14  N   UNL     1      31.903  -4.011 -20.971  0.00  0.00    -0.392 NA
ATOM     15  C   UNL     1      32.524  -7.900 -21.746  0.00  0.00    +0.124 C 
ATOM     16  C   UNL     1      32.463  -7.548 -20.295  0.00  0.00    +0.023 C 
ATOM     17  C   UNL     1      32.257  -6.263 -19.950  0.00  0.00    +0.025 C 
ATOM     18  C   UNL     1      32.110  -5.313 -21.005  0.00  0.00    +0.198 C 
ATOM     19  C   UNL     1      32.017  -4.685 -23.128  0.00  0.00    +0.173 C 
ATOM     20  C   UNL     1      31.844  -3.617 -22.283  0.00  0.00    +0.111 C 
ATOM     21  C   UNL     1      32.192  -5.883 -18.493  0.00  0.00    +0.035 C 
ATOM     22  C   UNL     1      31.621  -2.206 -22.631  0.00  0.00    +0.063 C 
ENDBRANCH  10  15
BRANCH   4  24
ATOM     23  N   UNL     1      34.239 -17.834 -24.426  0.00  0.00    +0.389 N 
ATOM     24  N   UNL     1      34.249 -14.969 -24.300  0.00  0.00    -0.311 N 
ATOM     25  C   UNL     1      35.002 -17.104 -23.381  0.00  0.00    -0.027 C 
ATOM     26  C   UNL     1      35.963 -17.894 -22.522  0.00  0.00    -0.020 C 
ATOM     27  C   UNL     1      34.683 -17.386 -21.928  0.00  0.00    -0.020 C 
ATOM     28  C   UNL     1      35.406 -15.695 -23.766  0.00  0.00    +0.071 C 
ATOM     29  C   UNL     1      33.068 -17.054 -24.833  0.00  0.00    -0.060 C 
ATOM     30  C   UNL     1      33.481 -15.669 -25.333  0.00  0.00    +0.067 C 
ATOM     31  H   UNL     1      33.934 -18.733 -24.055  0.00  0.00    -0.084 HD
ATOM     32  H   UNL     1      34.841 -17.979 -25.237  0.00  0.00    -0.084 HD
ENDBRANCH   4  24
TORSDOF 2
ENDMDL
MODEL 9
REMARK VINA RESULT:      -9.7      7.406     14.215
REMARK  Name = 118513932
REMARK  2 active torsions:
REMARK  status: ('A' for Active; 'I' for Inactive)
REMARK    1  A    between atoms: C_4  and  N_24
REMARK    2  A    between atoms: C_10  and  C_15
REMARK                            x       y       z     vdW  Elec       q    Type
REMARK                         _______ _______ _______ _____ _____    ______ ____
ROOT
ATOM      1  O   UNL     1      34.735  -9.745 -25.340  0.00  0.00    -0.274 OA
ATOM      2  N   UNL     1      33.314  -9.797 -23.468  0.00  0.00    -0.209 N 
ATOM      3  N   UNL     1      33.053 -11.854 -22.284  0.00  0.00    -0.389 NA
ATOM      4  C   UNL     1      32.125  -7.844 -22.722  0.00  0.00    +0.063 C 
ATOM      5  C   UNL     1      32.970  -8.454 -23.571  0.00  0.00    +0.089 C 
ATOM      6  C   UNL     1      31.552  -8.634 -21.652  0.00  0.00    +0.020 C 
ATOM      7  C   UNL     1      31.842  -9.930 -21.500  0.00  0.00    +0.050 C 
ATOM      8  C   UNL     1      32.780 -10.594 -22.446  0.00  0.00    +0.193 C 
ATOM      9  C   UNL     1      34.204 -10.339 -24.404  0.00  0.00    +0.242 C 
ATOM     10  C   UNL     1      33.919 -12.410 -23.182  0.00  0.00    +0.139 C 
ATOM     11  C   UNL     1      34.504 -11.777 -24.203  0.00  0.00    +0.146 C 
ENDROOT
BRANCH  10  15
ATOM     12  N   UNL     1      34.478 -15.936 -23.715  0.00  0.00    -0.178 N 
ATOM     13  N   UNL     1      34.143 -14.657 -24.025  0.00  0.00    -0.173 NA
ATOM     14  N   UNL     1      35.137 -17.715 -22.548  0.00  0.00    -0.392 NA
ATOM     15  C   UNL     1      34.242 -13.831 -23.021  0.00  0.00    +0.124 C 
ATOM     16  C   UNL     1      34.678 -14.214 -21.644  0.00  0.00    +0.023 C 
ATOM     17  C   UNL     1      34.997 -15.500 -21.402  0.00  0.00    +0.025 C 
ATOM     18  C   UNL     1      34.895 -16.420 -22.488  0.00  0.00    +0.198 C 
ATOM     19  C   UNL     1      34.461 -16.995 -24.583  0.00  0.00    +0.173 C 
ATOM     20  C   UNL     1      34.870 -18.077 -23.843  0.00  0.00    +0.111 C 
ATOM     21  C   UNL     1      35.440 -15.910 -20.021  0.00  0.00    +0.035 C 
ATOM     22  C   UNL     1      35.034 -19.471 -24.279  0.00  0.00    +0.063 C 
ENDBRANCH  10  15
BRANCH   4  24
ATOM     23  N   UNL     1      31.762  -3.659 -22.737  0.00  0.00    +0.389 N 
ATOM     24  N   UNL     1      31.778  -6.527 -22.810  0.00  0.00    -0.311 N 
ATOM     25  C   UNL     1      31.546  -4.470 -21.511  0.00  0.00    -0.027 C 
ATOM     26  C   UNL     1      31.087  -3.756 -20.259  0.00  0.00    -0.020 C 
ATOM     27  C   UNL     1      32.492  -4.275 -20.344  0.00  0.00    -0.020 C 
ATOM     28  C   UNL     1      30.997  -5.859 -21.763  0.00  0.00    +0.071 C 
ATOM     29  C   UNL     1      32.613  -4.388 -23.680  0.00  0.00    -0.060 C 
ATOM     30  C   UNL     1      32.004  -5.746 -24.030  0.00  0.00    +0.067 C 
ATOM     31  H   UNL     1      32.212  -2.780 -22.486  0.00  0.00    -0.084 HD
ATOM     32  H   UNL     1      30.860  -3.475 -23.177  0.00  0.00    -0.084 HD
ENDBRANCH   4  24
TORSDOF 2
ENDMDL
