MODEL 1
REMARK VINA RESULT:     -11.5      0.000      0.000
REMARK  Name = 24941254
REMARK  6 active torsions:
REMARK  status: ('A' for Active; 'I' for Inactive)
REMARK    1  A    between atoms: C_1  and  S_21
REMARK    2  A    between atoms: C_4  and  C_9
REMARK    3  A    between atoms: N_8  and  C_11
REMARK    4  A    between atoms: C_12  and  C_18
REMARK    5  A    between atoms: C_18  and  O_19
REMARK    6  A    between atoms: S_21  and  N_24
REMARK                            x       y       z     vdW  Elec       q    Type
REMARK                         _______ _______ _______ _____ _____    ______ ____
ROOT
ATOM      1  C   UNL     1      32.220  -9.024 -20.060  0.00  0.00    +0.122 C 
ATOM      2  C   UNL     1      32.490 -10.241 -20.686  0.00  0.00    +0.024 C 
ATOM      3  C   UNL     1      31.703  -9.008 -18.764  0.00  0.00    +0.020 C 
ATOM      4  C   UNL     1      32.242 -11.440 -20.018  0.00  0.00    +0.055 C 
ATOM      5  C   UNL     1      31.455 -10.207 -18.096  0.00  0.00    +0.002 C 
ATOM      6  C   UNL     1      31.725 -11.423 -18.724  0.00  0.00    +0.005 C 
ENDROOT
BRANCH   4   9
ATOM      7  O   UNL     1      31.922 -13.727 -20.297  0.00  0.00    -0.270 OA
ATOM      8  N   UNL     1      33.460 -12.665 -21.714  0.00  0.00    -0.280 N 
ATOM      9  C   UNL     1      32.524 -12.708 -20.672  0.00  0.00    +0.250 C 
ATOM     10  H   UNL     1      33.856 -11.783 -21.898  0.00  0.00    +0.155 HD
BRANCH   8  11
ATOM     11  C   UNL     1      33.911 -13.724 -22.540  0.00  0.00    +0.057 C 
ATOM     12  C   UNL     1      34.714 -14.743 -22.027  0.00  0.00    +0.089 C 
ATOM     13  C   UNL     1      33.539 -13.738 -23.884  0.00  0.00    +0.015 C 
ATOM     14  C   UNL     1      35.145 -15.777 -22.861  0.00  0.00    +0.008 C 
ATOM     15  C   UNL     1      33.972 -14.770 -24.717  0.00  0.00    +0.001 C 
ATOM     16  C   UNL     1      34.774 -15.789 -24.205  0.00  0.00    +0.000 C 
BRANCH  12  18
ATOM     17  O   UNL     1      35.395 -13.765 -19.954  0.00  0.00    -0.245 OA
ATOM     18  C   UNL     1      35.120 -14.760 -20.628  0.00  0.00    +0.339 C 
BRANCH  18  19
ATOM     19  O   UNL     1      35.166 -16.020 -20.118  0.00  0.00    -0.477 OA
ATOM     20  H   UNL     1      35.472 -16.161 -19.244  0.00  0.00    +0.295 HD
ENDBRANCH  18  19
ENDBRANCH  12  18
ENDBRANCH   8  11
ENDBRANCH   4   9
BRANCH   1  21
ATOM     21  S   UNL     1      32.531  -7.506 -20.905  0.00  0.00    +0.064 S 
ATOM     22  O   UNL     1      31.290  -7.078 -21.517  0.00  0.00    -0.153 OA
ATOM     23  O   UNL     1      33.255  -6.635 -20.003  0.00  0.00    -0.153 OA
BRANCH  21  24
ATOM     24  N   UNL     1      33.598  -8.055 -22.126  0.00  0.00    -0.151 NA
ATOM     25  C   UNL     1      34.496  -7.025 -22.714  0.00  0.00    +0.101 C 
ATOM     26  C   UNL     1      32.981  -8.923 -23.174  0.00  0.00    +0.122 C 
ATOM     27  C   UNL     1      35.670  -7.727 -23.390  0.00  0.00    +0.045 C 
ATOM     28  C   UNL     1      33.949  -9.377 -24.241  0.00  0.00    -0.008 C 
ATOM     29  C   UNL     1      35.217  -8.784 -24.365  0.00  0.00    -0.023 C 
ATOM     30  C   UNL     1      33.561 -10.375 -25.145  0.00  0.00    -0.003 C 
ATOM     31  C   UNL     1      36.090  -9.224 -25.370  0.00  0.00    -0.004 C 
ATOM     32  C   UNL     1      34.432 -10.797 -26.149  0.00  0.00    -0.000 C 
ATOM     33  C   UNL     1      35.696 -10.223 -26.260  0.00  0.00    -0.000 C 
ENDBRANCH  21  24
ENDBRANCH   1  21
TORSDOF 6
ENDMDL
MODEL 2
REMARK VINA RESULT:     -11.4      4.572      9.368
REMARK  Name = 24941254
REMARK  6 active torsions:
REMARK  status: ('A' for Active; 'I' for Inactive)
REMARK    1  A    between atoms: C_1  and  S_21
REMARK    2  A    between atoms: C_4  and  C_9
REMARK    3  A    between atoms: N_8  and  C_11
REMARK    4  A    between atoms: C_12  and  C_18
REMARK    5  A    between atoms: C_18  and  O_19
REMARK    6  A    between atoms: S_21  and  N_24
REMARK                            x       y       z     vdW  Elec       q    Type
REMARK                         _______ _______ _______ _____ _____    ______ ____
ROOT
ATOM      1  C   UNL     1      35.357 -16.469 -21.419  0.00  0.00    +0.122 C 
ATOM      2  C   UNL     1      35.016 -15.440 -22.296  0.00  0.00    +0.024 C 
ATOM      3  C   UNL     1      35.268 -16.269 -20.041  0.00  0.00    +0.020 C 
ATOM      4  C   UNL     1      34.585 -14.211 -21.796  0.00  0.00    +0.055 C 
ATOM      5  C   UNL     1      34.837 -15.040 -19.541  0.00  0.00    +0.002 C 
ATOM      6  C   UNL     1      34.496 -14.011 -20.419  0.00  0.00    +0.005 C 
ENDROOT
BRANCH   4   9
ATOM      7  O   UNL     1      33.965 -13.414 -23.891  0.00  0.00    -0.270 OA
ATOM      8  N   UNL     1      34.188 -11.850 -22.157  0.00  0.00    -0.280 N 
ATOM      9  C   UNL     1      34.229 -13.138 -22.710  0.00  0.00    +0.250 C 
ATOM     10  H   UNL     1      34.423 -11.786 -21.203  0.00  0.00    +0.155 HD
BRANCH   8  11
ATOM     11  C   UNL     1      33.853 -10.628 -22.790  0.00  0.00    +0.057 C 
ATOM     12  C   UNL     1      32.791  -9.849 -22.330  0.00  0.00    +0.089 C 
ATOM     13  C   UNL     1      34.602 -10.208 -23.889  0.00  0.00    +0.015 C 
ATOM     14  C   UNL     1      32.479  -8.649 -22.970  0.00  0.00    +0.008 C 
ATOM     15  C   UNL     1      34.289  -9.009 -24.529  0.00  0.00    +0.001 C 
ATOM     16  C   UNL     1      33.227  -8.230 -24.070  0.00  0.00    +0.000 C 
BRANCH  12  18
ATOM     17  O   UNL     1      31.841  -9.606 -20.149  0.00  0.00    -0.245 OA
ATOM     18  C   UNL     1      31.988 -10.258 -21.185  0.00  0.00    +0.339 C 
BRANCH  18  19
ATOM     19  O   UNL     1      31.396 -11.468 -21.374  0.00  0.00    -0.477 OA
ATOM     20  H   UNL     1      31.862 -12.154 -21.811  0.00  0.00    +0.295 HD
ENDBRANCH  18  19
ENDBRANCH  12  18
ENDBRANCH   8  11
ENDBRANCH   4   9
BRANCH   1  21
ATOM     21  S   UNL     1      35.904 -18.024 -22.051  0.00  0.00    +0.064 S 
ATOM     22  O   UNL     1      34.933 -18.471 -23.027  0.00  0.00    -0.153 OA
ATOM     23  O   UNL     1      37.304 -17.896 -22.398  0.00  0.00    -0.153 OA
BRANCH  21  24
ATOM     24  N   UNL     1      35.766 -18.986 -20.641  0.00  0.00    -0.151 NA
ATOM     25  C   UNL     1      36.910 -19.895 -20.362  0.00  0.00    +0.101 C 
ATOM     26  C   UNL     1      34.450 -19.671 -20.458  0.00  0.00    +0.122 C 
ATOM     27  C   UNL     1      36.870 -20.293 -18.889  0.00  0.00    +0.045 C 
ATOM     28  C   UNL     1      34.370 -20.520 -19.213  0.00  0.00    -0.008 C 
ATOM     29  C   UNL     1      35.527 -20.845 -18.483  0.00  0.00    -0.023 C 
ATOM     30  C   UNL     1      33.129 -21.026 -18.801  0.00  0.00    -0.003 C 
ATOM     31  C   UNL     1      35.418 -21.641 -17.335  0.00  0.00    -0.004 C 
ATOM     32  C   UNL     1      33.034 -21.827 -17.664  0.00  0.00    -0.000 C 
ATOM     33  C   UNL     1      34.178 -22.133 -16.930  0.00  0.00    -0.000 C 
ENDBRANCH  21  24
ENDBRANCH   1  21
TORSDOF 6
ENDMDL
MODEL 3
REMARK VINA RESULT:     -11.3      8.562     13.225
REMARK  Name = 24941254
REMARK  6 active torsions:
REMARK  status: ('A' for Active; 'I' for Inactive)
REMARK    1  A    between atoms: C_1  and  S_21
REMARK    2  A    between atoms: C_4  and  C_9
REMARK    3  A    between atoms: N_8  and  C_11
REMARK    4  A    between atoms: C_12  and  C_18
REMARK    5  A    between atoms: C_18  and  O_19
REMARK    6  A    between atoms: S_21  and  N_24
REMARK                            x       y       z     vdW  Elec       q    Type
REMARK                         _______ _______ _______ _____ _____    ______ ____
ROOT
ATOM      1  C   UNL     1      34.992 -21.794 -17.377  0.00  0.00    +0.122 C 
ATOM      2  C   UNL     1      34.382 -21.140 -18.448  0.00  0.00    +0.024 C 
ATOM      3  C   UNL     1      36.348 -21.591 -17.118  0.00  0.00    +0.020 C 
ATOM      4  C   UNL     1      35.127 -20.284 -19.259  0.00  0.00    +0.055 C 
ATOM      5  C   UNL     1      37.093 -20.735 -17.929  0.00  0.00    +0.002 C 
ATOM      6  C   UNL     1      36.482 -20.081 -19.000  0.00  0.00    +0.005 C 
ENDROOT
BRANCH   4   9
ATOM      7  O   UNL     1      33.263 -19.705 -20.524  0.00  0.00    -0.270 OA
ATOM      8  N   UNL     1      35.340 -18.844 -21.194  0.00  0.00    -0.280 N 
ATOM      9  C   UNL     1      34.491 -19.602 -20.374  0.00  0.00    +0.250 C 
ATOM     10  H   UNL     1      36.293 -18.857 -20.950  0.00  0.00    +0.155 HD
BRANCH   8  11
ATOM     11  C   UNL     1      35.006 -18.060 -22.325  0.00  0.00    +0.057 C 
ATOM     12  C   UNL     1      34.993 -16.667 -22.256  0.00  0.00    +0.089 C 
ATOM     13  C   UNL     1      34.685 -18.702 -23.521  0.00  0.00    +0.015 C 
ATOM     14  C   UNL     1      34.661 -15.916 -23.384  0.00  0.00    +0.008 C 
ATOM     15  C   UNL     1      34.351 -17.951 -24.648  0.00  0.00    +0.001 C 
ATOM     16  C   UNL     1      34.340 -16.559 -24.579  0.00  0.00    +0.000 C 
BRANCH  12  18
ATOM     17  O   UNL     1      35.686 -16.500 -19.973  0.00  0.00    -0.245 OA
ATOM     18  C   UNL     1      35.323 -15.964 -21.022  0.00  0.00    +0.339 C 
BRANCH  18  19
ATOM     19  O   UNL     1      35.189 -14.617 -21.143  0.00  0.00    -0.477 OA
ATOM     20  H   UNL     1      35.404 -14.195 -21.952  0.00  0.00    +0.295 HD
ENDBRANCH  18  19
ENDBRANCH  12  18
ENDBRANCH   8  11
ENDBRANCH   4   9
BRANCH   1  21
ATOM     21  S   UNL     1      34.051 -22.879 -16.351  0.00  0.00    +0.064 S 
ATOM     22  O   UNL     1      33.117 -22.073 -15.594  0.00  0.00    -0.153 OA
ATOM     23  O   UNL     1      33.590 -23.979 -17.172  0.00  0.00    -0.153 OA
BRANCH  21  24
ATOM     24  N   UNL     1      35.282 -23.444 -15.304  0.00  0.00    -0.151 NA
ATOM     25  C   UNL     1      35.275 -24.905 -15.024  0.00  0.00    +0.101 C 
ATOM     26  C   UNL     1      35.487 -22.639 -14.062  0.00  0.00    +0.122 C 
ATOM     27  C   UNL     1      36.653 -25.312 -14.510  0.00  0.00    +0.045 C 
ATOM     28  C   UNL     1      36.570 -23.174 -13.157  0.00  0.00    -0.008 C 
ATOM     29  C   UNL     1      37.103 -24.461 -13.349  0.00  0.00    -0.023 C 
ATOM     30  C   UNL     1      37.022 -22.393 -12.084  0.00  0.00    -0.003 C 
ATOM     31  C   UNL     1      38.102 -24.931 -12.487  0.00  0.00    -0.004 C 
ATOM     32  C   UNL     1      38.009 -22.875 -11.225  0.00  0.00    -0.000 C 
ATOM     33  C   UNL     1      38.550 -24.143 -11.428  0.00  0.00    -0.000 C 
ENDBRANCH  21  24
ENDBRANCH   1  21
TORSDOF 6
ENDMDL
MODEL 4
REMARK VINA RESULT:     -11.0      6.843      9.866
REMARK  Name = 24941254
REMARK  6 active torsions:
REMARK  status: ('A' for Active; 'I' for Inactive)
REMARK    1  A    between atoms: C_1  and  S_21
REMARK    2  A    between atoms: C_4  and  C_9
REMARK    3  A    between atoms: N_8  and  C_11
REMARK    4  A    between atoms: C_12  and  C_18
REMARK    5  A    between atoms: C_18  and  O_19
REMARK    6  A    between atoms: S_21  and  N_24
REMARK                            x       y       z     vdW  Elec       q    Type
REMARK                         _______ _______ _______ _____ _____    ______ ____
ROOT
ATOM      1  C   UNL     1      35.497 -18.997 -20.809  0.00  0.00    +0.122 C 
ATOM      2  C   UNL     1      36.108 -19.672 -19.753  0.00  0.00    +0.024 C 
ATOM      3  C   UNL     1      34.121 -19.115 -21.008  0.00  0.00    +0.020 C 
ATOM      4  C   UNL     1      35.345 -20.465 -18.896  0.00  0.00    +0.055 C 
ATOM      5  C   UNL     1      33.357 -19.908 -20.151  0.00  0.00    +0.002 C 
ATOM      6  C   UNL     1      33.970 -20.583 -19.095  0.00  0.00    +0.005 C 
ENDROOT
BRANCH   4   9
ATOM      7  O   UNL     1      37.221 -21.251 -17.767  0.00  0.00    -0.270 OA
ATOM      8  N   UNL     1      35.120 -21.688 -16.818  0.00  0.00    -0.280 N 
ATOM      9  C   UNL     1      35.982 -21.169 -17.795  0.00  0.00    +0.250 C 
ATOM     10  H   UNL     1      34.159 -21.544 -16.977  0.00  0.00    +0.155 HD
BRANCH   8  11
ATOM     11  C   UNL     1      35.450 -22.389 -15.633  0.00  0.00    +0.057 C 
ATOM     12  C   UNL     1      34.455 -22.938 -14.823  0.00  0.00    +0.089 C 
ATOM     13  C   UNL     1      36.792 -22.528 -15.281  0.00  0.00    +0.015 C 
ATOM     14  C   UNL     1      34.805 -23.625 -13.660  0.00  0.00    +0.008 C 
ATOM     15  C   UNL     1      37.141 -23.214 -14.117  0.00  0.00    +0.001 C 
ATOM     16  C   UNL     1      36.147 -23.762 -13.307  0.00  0.00    +0.000 C 
BRANCH  12  18
ATOM     17  O   UNL     1      32.581 -22.837 -16.304  0.00  0.00    -0.245 OA
ATOM     18  C   UNL     1      33.043 -22.812 -15.162  0.00  0.00    +0.339 C 
BRANCH  18  19
ATOM     19  O   UNL     1      32.259 -22.660 -14.061  0.00  0.00    -0.477 OA
ATOM     20  H   UNL     1      32.518 -22.071 -13.379  0.00  0.00    +0.295 HD
ENDBRANCH  18  19
ENDBRANCH  12  18
ENDBRANCH   8  11
ENDBRANCH   4   9
BRANCH   1  21
ATOM     21  S   UNL     1      36.462 -17.994 -21.894  0.00  0.00    +0.064 S 
ATOM     22  O   UNL     1      37.831 -18.025 -21.425  0.00  0.00    -0.153 OA
ATOM     23  O   UNL     1      36.133 -18.366 -23.255  0.00  0.00    -0.153 OA
BRANCH  21  24
ATOM     24  N   UNL     1      35.789 -16.456 -21.560  0.00  0.00    -0.151 NA
ATOM     25  C   UNL     1      35.056 -16.334 -20.271  0.00  0.00    +0.101 C 
ATOM     26  C   UNL     1      35.042 -15.823 -22.689  0.00  0.00    +0.122 C 
ATOM     27  C   UNL     1      34.955 -14.857 -19.903  0.00  0.00    +0.045 C 
ATOM     28  C   UNL     1      34.451 -14.475 -22.354  0.00  0.00    -0.008 C 
ATOM     29  C   UNL     1      34.379 -14.028 -21.023  0.00  0.00    -0.023 C 
ATOM     30  C   UNL     1      33.930 -13.675 -23.380  0.00  0.00    -0.003 C 
ATOM     31  C   UNL     1      33.819 -12.774 -20.744  0.00  0.00    -0.004 C 
ATOM     32  C   UNL     1      33.364 -12.433 -23.091  0.00  0.00    -0.000 C 
ATOM     33  C   UNL     1      33.311 -11.983 -21.774  0.00  0.00    -0.000 C 
ENDBRANCH  21  24
ENDBRANCH   1  21
TORSDOF 6
ENDMDL
MODEL 5
REMARK VINA RESULT:     -11.0      6.866      9.859
REMARK  Name = 24941254
REMARK  6 active torsions:
REMARK  status: ('A' for Active; 'I' for Inactive)
REMARK    1  A    between atoms: C_1  and  S_21
REMARK    2  A    between atoms: C_4  and  C_9
REMARK    3  A    between atoms: N_8  and  C_11
REMARK    4  A    between atoms: C_12  and  C_18
REMARK    5  A    between atoms: C_18  and  O_19
REMARK    6  A    between atoms: S_21  and  N_24
REMARK                            x       y       z     vdW  Elec       q    Type
REMARK                         _______ _______ _______ _____ _____    ______ ____
ROOT
ATOM      1  C   UNL     1      34.867 -19.159 -20.122  0.00  0.00    +0.122 C 
ATOM      2  C   UNL     1      35.095 -20.166 -19.184  0.00  0.00    +0.024 C 
ATOM      3  C   UNL     1      33.609 -19.027 -20.711  0.00  0.00    +0.020 C 
ATOM      4  C   UNL     1      34.066 -21.041 -18.836  0.00  0.00    +0.055 C 
ATOM      5  C   UNL     1      32.580 -19.902 -20.363  0.00  0.00    +0.002 C 
ATOM      6  C   UNL     1      32.810 -20.909 -19.424  0.00  0.00    +0.005 C 
ENDROOT
BRANCH   4   9
ATOM      7  O   UNL     1      34.023 -23.263 -18.150  0.00  0.00    -0.270 OA
ATOM      8  N   UNL     1      34.869 -21.678 -16.642  0.00  0.00    -0.280 N 
ATOM      9  C   UNL     1      34.304 -22.090 -17.857  0.00  0.00    +0.250 C 
ATOM     10  H   UNL     1      35.037 -20.712 -16.555  0.00  0.00    +0.155 HD
BRANCH   8  11
ATOM     11  C   UNL     1      35.232 -22.468 -15.525  0.00  0.00    +0.057 C 
ATOM     12  C   UNL     1      36.558 -22.540 -15.095  0.00  0.00    +0.089 C 
ATOM     13  C   UNL     1      34.241 -23.182 -14.851  0.00  0.00    +0.015 C 
ATOM     14  C   UNL     1      36.891 -23.326 -13.991  0.00  0.00    +0.008 C 
ATOM     15  C   UNL     1      34.575 -23.969 -13.749  0.00  0.00    +0.001 C 
ATOM     16  C   UNL     1      35.899 -24.040 -13.319  0.00  0.00    +0.000 C 
BRANCH  12  18
ATOM     17  O   UNL     1      37.477 -20.730 -16.359  0.00  0.00    -0.245 OA
ATOM     18  C   UNL     1      37.618 -21.807 -15.776  0.00  0.00    +0.339 C 
BRANCH  18  19
ATOM     19  O   UNL     1      38.816 -22.446 -15.703  0.00  0.00    -0.477 OA
ATOM     20  H   UNL     1      39.168 -22.689 -14.870  0.00  0.00    +0.295 HD
ENDBRANCH  18  19
ENDBRANCH  12  18
ENDBRANCH   8  11
ENDBRANCH   4   9
BRANCH   1  21
ATOM     21  S   UNL     1      36.169 -18.052 -20.566  0.00  0.00    +0.064 S 
ATOM     22  O   UNL     1      36.407 -17.175 -19.439  0.00  0.00    -0.153 OA
ATOM     23  O   UNL     1      37.243 -18.835 -21.140  0.00  0.00    -0.153 OA
BRANCH  21  24
ATOM     24  N   UNL     1      35.398 -17.167 -21.813  0.00  0.00    -0.151 NA
ATOM     25  C   UNL     1      35.703 -17.603 -23.202  0.00  0.00    +0.101 C 
ATOM     26  C   UNL     1      35.450 -15.680 -21.670  0.00  0.00    +0.122 C 
ATOM     27  C   UNL     1      34.613 -17.076 -24.131  0.00  0.00    +0.045 C 
ATOM     28  C   UNL     1      34.772 -14.933 -22.794  0.00  0.00    -0.008 C 
ATOM     29  C   UNL     1      34.404 -15.591 -23.980  0.00  0.00    -0.023 C 
ATOM     30  C   UNL     1      34.545 -13.556 -22.668  0.00  0.00    -0.003 C 
ATOM     31  C   UNL     1      33.783 -14.867 -25.007  0.00  0.00    -0.004 C 
ATOM     32  C   UNL     1      33.937 -12.842 -23.701  0.00  0.00    -0.000 C 
ATOM     33  C   UNL     1      33.554 -13.499 -24.868  0.00  0.00    -0.000 C 
ENDBRANCH  21  24
ENDBRANCH   1  21
TORSDOF 6
ENDMDL
MODEL 6
REMARK VINA RESULT:     -10.9      7.146     11.898
REMARK  Name = 24941254
REMARK  6 active torsions:
REMARK  status: ('A' for Active; 'I' for Inactive)
REMARK    1  A    between atoms: C_1  and  S_21
REMARK    2  A    between atoms: C_4  and  C_9
REMARK    3  A    between atoms: N_8  and  C_11
REMARK    4  A    between atoms: C_12  and  C_18
REMARK    5  A    between atoms: C_18  and  O_19
REMARK    6  A    between atoms: S_21  and  N_24
REMARK                            x       y       z     vdW  Elec       q    Type
REMARK                         _______ _______ _______ _____ _____    ______ ____
ROOT
ATOM      1  C   UNL     1      35.118 -20.603 -19.189  0.00  0.00    +0.122 C 
ATOM      2  C   UNL     1      34.612 -19.778 -20.194  0.00  0.00    +0.024 C 
ATOM      3  C   UNL     1      36.459 -20.506 -18.817  0.00  0.00    +0.020 C 
ATOM      4  C   UNL     1      35.448 -18.858 -20.827  0.00  0.00    +0.055 C 
ATOM      5  C   UNL     1      37.294 -19.585 -19.450  0.00  0.00    +0.002 C 
ATOM      6  C   UNL     1      36.788 -18.761 -20.456  0.00  0.00    +0.005 C 
ENDROOT
BRANCH   4   9
ATOM      7  O   UNL     1      34.203 -18.493 -22.759  0.00  0.00    -0.270 OA
ATOM      8  N   UNL     1      35.258 -16.640 -21.780  0.00  0.00    -0.280 N 
ATOM      9  C   UNL     1      34.920 -17.998 -21.875  0.00  0.00    +0.250 C 
ATOM     10  H   UNL     1      35.837 -16.395 -21.023  0.00  0.00    +0.155 HD
BRANCH   8  11
ATOM     11  C   UNL     1      34.874 -15.574 -22.630  0.00  0.00    +0.057 C 
ATOM     12  C   UNL     1      34.482 -14.342 -22.106  0.00  0.00    +0.089 C 
ATOM     13  C   UNL     1      34.892 -15.771 -24.011  0.00  0.00    +0.015 C 
ATOM     14  C   UNL     1      34.108 -13.307 -22.964  0.00  0.00    +0.008 C 
ATOM     15  C   UNL     1      34.517 -14.736 -24.868  0.00  0.00    +0.001 C 
ATOM     16  C   UNL     1      34.125 -13.505 -24.344  0.00  0.00    +0.000 C 
BRANCH  12  18
ATOM     17  O   UNL     1      35.215 -14.615 -19.846  0.00  0.00    -0.245 OA
ATOM     18  C   UNL     1      34.452 -14.103 -20.669  0.00  0.00    +0.339 C 
BRANCH  18  19
ATOM     19  O   UNL     1      33.471 -13.232 -20.310  0.00  0.00    -0.477 OA
ATOM     20  H   UNL     1      33.112 -12.644 -20.945  0.00  0.00    +0.295 HD
ENDBRANCH  18  19
ENDBRANCH  12  18
ENDBRANCH   8  11
ENDBRANCH   4   9
BRANCH   1  21
ATOM     21  S   UNL     1      34.062 -21.769 -18.388  0.00  0.00    +0.064 S 
ATOM     22  O   UNL     1      32.763 -21.152 -18.226  0.00  0.00    -0.153 OA
ATOM     23  O   UNL     1      34.204 -23.039 -19.070  0.00  0.00    -0.153 OA
BRANCH  21  24
ATOM     24  N   UNL     1      34.830 -21.869 -16.861  0.00  0.00    -0.151 NA
ATOM     25  C   UNL     1      36.309 -22.021 -16.887  0.00  0.00    +0.101 C 
ATOM     26  C   UNL     1      34.190 -22.799 -15.882  0.00  0.00    +0.122 C 
ATOM     27  C   UNL     1      36.867 -21.611 -15.527  0.00  0.00    +0.045 C 
ATOM     28  C   UNL     1      34.901 -22.872 -14.552  0.00  0.00    -0.008 C 
ATOM     29  C   UNL     1      36.191 -22.335 -14.391  0.00  0.00    -0.023 C 
ATOM     30  C   UNL     1      34.284 -23.520 -13.473  0.00  0.00    -0.003 C 
ATOM     31  C   UNL     1      36.826 -22.425 -13.145  0.00  0.00    -0.004 C 
ATOM     32  C   UNL     1      34.930 -23.614 -12.241  0.00  0.00    -0.000 C 
ATOM     33  C   UNL     1      36.200 -23.065 -12.077  0.00  0.00    -0.000 C 
ENDBRANCH  21  24
ENDBRANCH   1  21
TORSDOF 6
ENDMDL
MODEL 7
REMARK VINA RESULT:     -10.7     10.196     14.330
REMARK  Name = 24941254
REMARK  6 active torsions:
REMARK  status: ('A' for Active; 'I' for Inactive)
REMARK    1  A    between atoms: C_1  and  S_21
REMARK    2  A    between atoms: C_4  and  C_9
REMARK    3  A    between atoms: N_8  and  C_11
REMARK    4  A    between atoms: C_12  and  C_18
REMARK    5  A    between atoms: C_18  and  O_19
REMARK    6  A    between atoms: S_21  and  N_24
REMARK                            x       y       z     vdW  Elec       q    Type
REMARK                         _______ _______ _______ _____ _____    ______ ____
ROOT
ATOM      1  C   UNL     1      32.018 -22.877 -14.423  0.00  0.00    +0.122 C 
ATOM      2  C   UNL     1      32.927 -22.683 -15.464  0.00  0.00    +0.024 C 
ATOM      3  C   UNL     1      30.654 -22.680 -14.644  0.00  0.00    +0.020 C 
ATOM      4  C   UNL     1      32.473 -22.291 -16.723  0.00  0.00    +0.055 C 
ATOM      5  C   UNL     1      30.200 -22.287 -15.903  0.00  0.00    +0.002 C 
ATOM      6  C   UNL     1      31.110 -22.094 -16.943  0.00  0.00    +0.005 C 
ENDROOT
BRANCH   4   9
ATOM      7  O   UNL     1      33.805 -23.071 -18.463  0.00  0.00    -0.270 OA
ATOM      8  N   UNL     1      33.810 -20.763 -18.042  0.00  0.00    -0.280 N 
ATOM      9  C   UNL     1      33.420 -22.090 -17.808  0.00  0.00    +0.250 C 
ATOM     10  H   UNL     1      33.420 -20.090 -17.438  0.00  0.00    +0.155 HD
BRANCH   8  11
ATOM     11  C   UNL     1      34.689 -20.264 -19.033  0.00  0.00    +0.057 C 
ATOM     12  C   UNL     1      36.071 -20.278 -18.842  0.00  0.00    +0.089 C 
ATOM     13  C   UNL     1      34.154 -19.752 -20.215  0.00  0.00    +0.015 C 
ATOM     14  C   UNL     1      36.917 -19.781 -19.834  0.00  0.00    +0.008 C 
ATOM     15  C   UNL     1      35.000 -19.254 -21.206  0.00  0.00    +0.001 C 
ATOM     16  C   UNL     1      36.381 -19.268 -21.015  0.00  0.00    +0.000 C 
BRANCH  12  18
ATOM     17  O   UNL     1      36.522 -21.957 -17.199  0.00  0.00    -0.245 OA
ATOM     18  C   UNL     1      36.663 -20.806 -17.620  0.00  0.00    +0.339 C 
BRANCH  18  19
ATOM     19  O   UNL     1      37.411 -19.878 -16.965  0.00  0.00    -0.477 OA
ATOM     20  H   UNL     1      37.022 -19.071 -16.692  0.00  0.00    +0.295 HD
ENDBRANCH  18  19
ENDBRANCH  12  18
ENDBRANCH   8  11
ENDBRANCH   4   9
BRANCH   1  21
ATOM     21  S   UNL     1      32.591 -23.372 -12.829  0.00  0.00    +0.064 S 
ATOM     22  O   UNL     1      32.462 -22.236 -11.941  0.00  0.00    -0.153 OA
ATOM     23  O   UNL     1      31.974 -24.642 -12.508  0.00  0.00    -0.153 OA
BRANCH  21  24
ATOM     24  N   UNL     1      34.248 -23.629 -13.172  0.00  0.00    -0.151 NA
ATOM     25  C   UNL     1      34.557 -24.800 -14.037  0.00  0.00    +0.101 C 
ATOM     26  C   UNL     1      35.168 -23.545 -11.997  0.00  0.00    +0.122 C 
ATOM     27  C   UNL     1      35.949 -24.613 -14.634  0.00  0.00    +0.045 C 
ATOM     28  C   UNL     1      36.619 -23.791 -12.335  0.00  0.00    -0.008 C 
ATOM     29  C   UNL     1      36.989 -24.331 -13.579  0.00  0.00    -0.023 C 
ATOM     30  C   UNL     1      37.606 -23.514 -11.381  0.00  0.00    -0.003 C 
ATOM     31  C   UNL     1      38.344 -24.553 -13.860  0.00  0.00    -0.004 C 
ATOM     32  C   UNL     1      38.951 -23.750 -11.665  0.00  0.00    -0.000 C 
ATOM     33  C   UNL     1      39.319 -24.268 -12.905  0.00  0.00    -0.000 C 
ENDBRANCH  21  24
ENDBRANCH   1  21
TORSDOF 6
ENDMDL
MODEL 8
REMARK VINA RESULT:     -10.7      7.245     11.995
REMARK  Name = 24941254
REMARK  6 active torsions:
REMARK  status: ('A' for Active; 'I' for Inactive)
REMARK    1  A    between atoms: C_1  and  S_21
REMARK    2  A    between atoms: C_4  and  C_9
REMARK    3  A    between atoms: N_8  and  C_11
REMARK    4  A    between atoms: C_12  and  C_18
REMARK    5  A    between atoms: C_18  and  O_19
REMARK    6  A    between atoms: S_21  and  N_24
REMARK                            x       y       z     vdW  Elec       q    Type
REMARK                         _______ _______ _______ _____ _____    ______ ____
ROOT
ATOM      1  C   UNL     1      35.222 -20.549 -19.275  0.00  0.00    +0.122 C 
ATOM      2  C   UNL     1      34.802 -19.328 -19.803  0.00  0.00    +0.024 C 
ATOM      3  C   UNL     1      36.571 -20.903 -19.327  0.00  0.00    +0.020 C 
ATOM      4  C   UNL     1      35.729 -18.463 -20.383  0.00  0.00    +0.055 C 
ATOM      5  C   UNL     1      37.498 -20.038 -19.907  0.00  0.00    +0.002 C 
ATOM      6  C   UNL     1      37.076 -18.817 -20.435  0.00  0.00    +0.005 C 
ENDROOT
BRANCH   4   9
ATOM      7  O   UNL     1      35.128 -16.226 -20.168  0.00  0.00    -0.270 OA
ATOM      8  N   UNL     1      35.109 -17.153 -22.323  0.00  0.00    -0.280 N 
ATOM      9  C   UNL     1      35.291 -17.189 -20.933  0.00  0.00    +0.250 C 
ATOM     10  H   UNL     1      35.277 -17.998 -22.798  0.00  0.00    +0.155 HD
BRANCH   8  11
ATOM     11  C   UNL     1      34.717 -16.059 -23.132  0.00  0.00    +0.057 C 
ATOM     12  C   UNL     1      34.053 -16.262 -24.342  0.00  0.00    +0.089 C 
ATOM     13  C   UNL     1      35.005 -14.763 -22.704  0.00  0.00    +0.015 C 
ATOM     14  C   UNL     1      33.677 -15.168 -25.123  0.00  0.00    +0.008 C 
ATOM     15  C   UNL     1      34.630 -13.670 -23.485  0.00  0.00    +0.001 C 
ATOM     16  C   UNL     1      33.966 -13.873 -24.694  0.00  0.00    +0.000 C 
BRANCH  12  18
ATOM     17  O   UNL     1      34.404 -18.615 -24.595  0.00  0.00    -0.245 OA
ATOM     18  C   UNL     1      33.736 -17.603 -24.819  0.00  0.00    +0.339 C 
BRANCH  18  19
ATOM     19  O   UNL     1      32.596 -17.631 -25.560  0.00  0.00    -0.477 OA
ATOM     20  H   UNL     1      32.293 -18.440 -25.922  0.00  0.00    +0.295 HD
ENDBRANCH  18  19
ENDBRANCH  12  18
ENDBRANCH   8  11
ENDBRANCH   4   9
BRANCH   1  21
ATOM     21  S   UNL     1      34.049 -21.647 -18.543  0.00  0.00    +0.064 S 
ATOM     22  O   UNL     1      32.787 -20.945 -18.446  0.00  0.00    -0.153 OA
ATOM     23  O   UNL     1      34.143 -22.919 -19.228  0.00  0.00    -0.153 OA
BRANCH  21  24
ATOM     24  N   UNL     1      34.724 -21.806 -16.978  0.00  0.00    -0.151 NA
ATOM     25  C   UNL     1      36.205 -21.931 -16.919  0.00  0.00    +0.101 C 
ATOM     26  C   UNL     1      34.045 -22.793 -16.084  0.00  0.00    +0.122 C 
ATOM     27  C   UNL     1      36.671 -21.577 -15.510  0.00  0.00    +0.045 C 
ATOM     28  C   UNL     1      34.675 -22.917 -14.718  0.00  0.00    -0.008 C 
ATOM     29  C   UNL     1      35.941 -22.366 -14.453  0.00  0.00    -0.023 C 
ATOM     30  C   UNL     1      34.006 -23.626 -13.711  0.00  0.00    -0.003 C 
ATOM     31  C   UNL     1      36.501 -22.504 -13.176  0.00  0.00    -0.004 C 
ATOM     32  C   UNL     1      34.577 -23.768 -12.447  0.00  0.00    -0.000 C 
ATOM     33  C   UNL     1      35.823 -23.205 -12.179  0.00  0.00    -0.000 C 
ENDBRANCH  21  24
ENDBRANCH   1  21
TORSDOF 6
ENDMDL
MODEL 9
REMARK VINA RESULT:     -10.6     10.018     14.343
REMARK  Name = 24941254
REMARK  6 active torsions:
REMARK  status: ('A' for Active; 'I' for Inactive)
REMARK    1  A    between atoms: C_1  and  S_21
REMARK    2  A    between atoms: C_4  and  C_9
REMARK    3  A    between atoms: N_8  and  C_11
REMARK    4  A    between atoms: C_12  and  C_18
REMARK    5  A    between atoms: C_18  and  O_19
REMARK    6  A    between atoms: S_21  and  N_24
REMARK                            x       y       z     vdW  Elec       q    Type
REMARK                         _______ _______ _______ _____ _____    ______ ____
ROOT
ATOM      1  C   UNL     1      36.815 -23.257 -13.866  0.00  0.00    +0.122 C 
ATOM      2  C   UNL     1      36.525 -22.251 -14.788  0.00  0.00    +0.024 C 
ATOM      3  C   UNL     1      38.054 -23.898 -13.902  0.00  0.00    +0.020 C 
ATOM      4  C   UNL     1      37.471 -21.888 -15.746  0.00  0.00    +0.055 C 
ATOM      5  C   UNL     1      39.000 -23.535 -14.860  0.00  0.00    +0.002 C 
ATOM      6  C   UNL     1      38.709 -22.530 -15.782  0.00  0.00    +0.005 C 
ENDROOT
BRANCH   4   9
ATOM      7  O   UNL     1      37.646 -19.707 -16.535  0.00  0.00    -0.270 OA
ATOM      8  N   UNL     1      36.360 -21.216 -17.789  0.00  0.00    -0.280 N 
ATOM      9  C   UNL     1      37.169 -20.839 -16.707  0.00  0.00    +0.250 C 
ATOM     10  H   UNL     1      36.056 -22.152 -17.791  0.00  0.00    +0.155 HD
BRANCH   8  11
ATOM     11  C   UNL     1      35.926 -20.426 -18.882  0.00  0.00    +0.057 C 
ATOM     12  C   UNL     1      34.609 -20.495 -19.339  0.00  0.00    +0.089 C 
ATOM     13  C   UNL     1      36.836 -19.572 -19.503  0.00  0.00    +0.015 C 
ATOM     14  C   UNL     1      34.205 -19.707 -20.418  0.00  0.00    +0.008 C 
ATOM     15  C   UNL     1      36.431 -18.785 -20.582  0.00  0.00    +0.001 C 
ATOM     16  C   UNL     1      35.116 -18.853 -21.039  0.00  0.00    +0.000 C 
BRANCH  12  18
ATOM     17  O   UNL     1      32.566 -21.015 -18.210  0.00  0.00    -0.245 OA
ATOM     18  C   UNL     1      33.632 -21.377 -18.713  0.00  0.00    +0.339 C 
BRANCH  18  19
ATOM     19  O   UNL     1      34.021 -22.680 -18.738  0.00  0.00    -0.477 OA
ATOM     20  H   UNL     1      34.729 -22.967 -18.197  0.00  0.00    +0.295 HD
ENDBRANCH  18  19
ENDBRANCH  12  18
ENDBRANCH   8  11
ENDBRANCH   4   9
BRANCH   1  21
ATOM     21  S   UNL     1      35.617 -23.719 -12.655  0.00  0.00    +0.064 S 
ATOM     22  O   UNL     1      35.855 -25.102 -12.302  0.00  0.00    -0.153 OA
ATOM     23  O   UNL     1      35.589 -22.686 -11.640  0.00  0.00    -0.153 OA
BRANCH  21  24
ATOM     24  N   UNL     1      34.188 -23.617 -13.592  0.00  0.00    -0.151 NA
ATOM     25  C   UNL     1      33.950 -22.316 -14.273  0.00  0.00    +0.101 C 
ATOM     26  C   UNL     1      32.951 -24.137 -12.935  0.00  0.00    +0.122 C 
ATOM     27  C   UNL     1      32.957 -22.533 -15.411  0.00  0.00    +0.045 C 
ATOM     28  C   UNL     1      31.709 -24.019 -13.785  0.00  0.00    -0.008 C 
ATOM     29  C   UNL     1      31.701 -23.228 -14.947  0.00  0.00    -0.023 C 
ATOM     30  C   UNL     1      30.536 -24.674 -13.388  0.00  0.00    -0.003 C 
ATOM     31  C   UNL     1      30.530 -23.133 -15.711  0.00  0.00    -0.004 C 
ATOM     32  C   UNL     1      29.372 -24.564 -14.149  0.00  0.00    -0.000 C 
ATOM     33  C   UNL     1      29.370 -23.796 -15.311  0.00  0.00    -0.000 C 
ENDBRANCH  21  24
ENDBRANCH   1  21
TORSDOF 6
ENDMDL
