MODEL 1
REMARK VINA RESULT:     -11.6      0.000      0.000
REMARK  Name = 6450551
REMARK  5 active torsions:
REMARK  status: ('A' for Active; 'I' for Inactive)
REMARK    1  A    between atoms: C_5  and  C_11
REMARK    2  A    between atoms: C_7  and  S_19
REMARK    3  A    between atoms: C_12  and  C_14
REMARK    4  A    between atoms: S_19  and  C_20
REMARK    5  A    between atoms: C_21  and  C_28
REMARK                            x       y       z     vdW  Elec       q    Type
REMARK                         _______ _______ _______ _____ _____    ______ ____
ROOT
ATOM      1  N   UNL     1      36.331 -21.399 -17.749  0.00  0.00    -0.276 N 
ATOM      2  N   UNL     1      35.336 -22.055 -17.129  0.00  0.00    -0.173 NA
ATOM      3  C   UNL     1      34.528 -20.671 -18.764  0.00  0.00    +0.036 A 
ATOM      4  C   UNL     1      35.913 -20.551 -18.740  0.00  0.00    +0.076 A 
ATOM      5  C   UNL     1      34.240 -21.610 -17.750  0.00  0.00    +0.102 A 
ATOM      6  C   UNL     1      36.619 -19.708 -19.601  0.00  0.00    +0.025 C 
ATOM      7  C   UNL     1      35.869 -18.964 -20.516  0.00  0.00    +0.031 C 
ATOM      8  C   UNL     1      33.788 -19.917 -19.690  0.00  0.00    +0.004 C 
ATOM      9  C   UNL     1      34.477 -19.065 -20.562  0.00  0.00    +0.007 C 
ATOM     10  H   UNL     1      37.279 -21.515 -17.510  0.00  0.00    +0.189 HD
ENDROOT
BRANCH   5  11
ATOM     11  C   UNL     1      32.933 -22.047 -17.412  0.00  0.00    +0.022 C 
ATOM     12  C   UNL     1      32.420 -22.266 -16.172  0.00  0.00    +0.021 C 
BRANCH  12  14
ATOM     13  N   UNL     1      30.072 -22.041 -16.493  0.00  0.00    -0.244 NA
ATOM     14  C   UNL     1      31.051 -22.733 -15.887  0.00  0.00    +0.081 C 
ATOM     15  C   UNL     1      30.868 -23.808 -15.049  0.00  0.00    +0.019 C 
ATOM     16  C   UNL     1      29.559 -24.212 -14.809  0.00  0.00    +0.003 C 
ATOM     17  C   UNL     1      28.813 -22.462 -16.237  0.00  0.00    +0.099 C 
ATOM     18  C   UNL     1      28.507 -23.531 -15.410  0.00  0.00    +0.021 C 
ENDBRANCH  12  14
ENDBRANCH   5  11
BRANCH   7  19
ATOM     19  S   UNL     1      36.709 -17.865 -21.646  0.00  0.00    -0.087 S 
BRANCH  19  20
ATOM     20  C   UNL     1      35.493 -17.712 -22.947  0.00  0.00    +0.034 C 
ATOM     21  C   UNL     1      34.859 -16.500 -23.227  0.00  0.00    +0.059 C 
ATOM     22  C   UNL     1      35.179 -18.848 -23.694  0.00  0.00    +0.007 C 
ATOM     23  C   UNL     1      33.915 -16.426 -24.252  0.00  0.00    +0.005 C 
ATOM     24  C   UNL     1      34.235 -18.774 -24.719  0.00  0.00    +0.001 C 
ATOM     25  C   UNL     1      33.603 -17.562 -24.997  0.00  0.00    +0.000 C 
BRANCH  21  28
ATOM     26  O   UNL     1      35.707 -14.323 -23.035  0.00  0.00    -0.270 OA
ATOM     27  N   UNL     1      34.740 -15.250 -21.143  0.00  0.00    -0.299 N 
ATOM     28  C   UNL     1      35.146 -15.281 -22.480  0.00  0.00    +0.246 C 
ATOM     29  C   UNL     1      34.932 -14.107 -20.278  0.00  0.00    +0.111 C 
ATOM     30  H   UNL     1      34.301 -16.049 -20.770  0.00  0.00    +0.150 HD
ENDBRANCH  21  28
ENDBRANCH  19  20
ENDBRANCH   7  19
TORSDOF 5
ENDMDL
MODEL 2
REMARK VINA RESULT:     -11.5      1.205      2.477
REMARK  Name = 6450551
REMARK  5 active torsions:
REMARK  status: ('A' for Active; 'I' for Inactive)
REMARK    1  A    between atoms: C_5  and  C_11
REMARK    2  A    between atoms: C_7  and  S_19
REMARK    3  A    between atoms: C_12  and  C_14
REMARK    4  A    between atoms: S_19  and  C_20
REMARK    5  A    between atoms: C_21  and  C_28
REMARK                            x       y       z     vdW  Elec       q    Type
REMARK                         _______ _______ _______ _____ _____    ______ ____
ROOT
ATOM      1  N   UNL     1      36.245 -21.262 -17.983  0.00  0.00    -0.276 N 
ATOM      2  N   UNL     1      35.363 -21.950 -17.239  0.00  0.00    -0.173 NA
ATOM      3  C   UNL     1      34.311 -20.752 -18.881  0.00  0.00    +0.036 A 
ATOM      4  C   UNL     1      35.678 -20.522 -18.986  0.00  0.00    +0.076 A 
ATOM      5  C   UNL     1      34.187 -21.638 -17.789  0.00  0.00    +0.102 A 
ATOM      6  C   UNL     1      36.237 -19.688 -19.956  0.00  0.00    +0.025 C 
ATOM      7  C   UNL     1      35.355 -19.071 -20.848  0.00  0.00    +0.031 C 
ATOM      8  C   UNL     1      33.436 -20.125 -19.785  0.00  0.00    +0.004 C 
ATOM      9  C   UNL     1      33.977 -19.284 -20.765  0.00  0.00    +0.007 C 
ATOM     10  H   UNL     1      37.216 -21.286 -17.821  0.00  0.00    +0.189 HD
ENDROOT
BRANCH   5  11
ATOM     11  C   UNL     1      32.953 -22.152 -17.312  0.00  0.00    +0.022 C 
ATOM     12  C   UNL     1      32.580 -22.365 -16.022  0.00  0.00    +0.021 C 
BRANCH  12  14
ATOM     13  N   UNL     1      30.206 -22.386 -16.195  0.00  0.00    -0.244 NA
ATOM     14  C   UNL     1      31.283 -22.916 -15.590  0.00  0.00    +0.081 C 
ATOM     15  C   UNL     1      31.255 -23.900 -14.631  0.00  0.00    +0.019 C 
ATOM     16  C   UNL     1      30.008 -24.388 -14.255  0.00  0.00    +0.003 C 
ATOM     17  C   UNL     1      29.012 -22.883 -15.805  0.00  0.00    +0.099 C 
ATOM     18  C   UNL     1      28.860 -23.875 -14.848  0.00  0.00    +0.021 C 
ENDBRANCH  12  14
ENDBRANCH   5  11
BRANCH   7  19
ATOM     19  S   UNL     1      36.004 -17.991 -22.113  0.00  0.00    -0.087 S 
BRANCH  19  20
ATOM     20  C   UNL     1      35.375 -16.408 -21.572  0.00  0.00    +0.034 C 
ATOM     21  C   UNL     1      34.766 -15.513 -22.454  0.00  0.00    +0.059 C 
ATOM     22  C   UNL     1      35.505 -16.071 -20.223  0.00  0.00    +0.007 C 
ATOM     23  C   UNL     1      34.289 -14.287 -21.988  0.00  0.00    +0.005 C 
ATOM     24  C   UNL     1      35.029 -14.846 -19.757  0.00  0.00    +0.001 C 
ATOM     25  C   UNL     1      34.420 -13.954 -20.641  0.00  0.00    +0.000 C 
BRANCH  21  28
ATOM     26  O   UNL     1      35.362 -15.302 -24.712  0.00  0.00    -0.270 OA
ATOM     27  N   UNL     1      33.578 -16.697 -24.217  0.00  0.00    -0.299 N 
ATOM     28  C   UNL     1      34.602 -15.810 -23.873  0.00  0.00    +0.246 C 
ATOM     29  C   UNL     1      33.305 -17.109 -25.576  0.00  0.00    +0.111 C 
ATOM     30  H   UNL     1      33.014 -17.060 -23.497  0.00  0.00    +0.150 HD
ENDBRANCH  21  28
ENDBRANCH  19  20
ENDBRANCH   7  19
TORSDOF 5
ENDMDL
MODEL 3
REMARK VINA RESULT:     -11.5      5.542     10.007
REMARK  Name = 6450551
REMARK  5 active torsions:
REMARK  status: ('A' for Active; 'I' for Inactive)
REMARK    1  A    between atoms: C_5  and  C_11
REMARK    2  A    between atoms: C_7  and  S_19
REMARK    3  A    between atoms: C_12  and  C_14
REMARK    4  A    between atoms: S_19  and  C_20
REMARK    5  A    between atoms: C_21  and  C_28
REMARK                            x       y       z     vdW  Elec       q    Type
REMARK                         _______ _______ _______ _____ _____    ______ ____
ROOT
ATOM      1  N   UNL     1      32.731 -22.691 -17.106  0.00  0.00    -0.276 N 
ATOM      2  N   UNL     1      32.870 -21.868 -18.159  0.00  0.00    -0.173 NA
ATOM      3  C   UNL     1      34.792 -21.966 -16.919  0.00  0.00    +0.036 A 
ATOM      4  C   UNL     1      33.848 -22.794 -16.321  0.00  0.00    +0.076 A 
ATOM      5  C   UNL     1      34.126 -21.429 -18.042  0.00  0.00    +0.102 A 
ATOM      6  C   UNL     1      34.106 -23.529 -15.162  0.00  0.00    +0.025 C 
ATOM      7  C   UNL     1      35.380 -23.403 -14.602  0.00  0.00    +0.031 C 
ATOM      8  C   UNL     1      36.069 -21.851 -16.344  0.00  0.00    +0.004 C 
ATOM      9  C   UNL     1      36.347 -22.579 -15.181  0.00  0.00    +0.007 C 
ATOM     10  H   UNL     1      31.897 -23.178 -16.914  0.00  0.00    +0.189 HD
ENDROOT
BRANCH   5  11
ATOM     11  C   UNL     1      34.711 -20.519 -18.960  0.00  0.00    +0.022 C 
ATOM     12  C   UNL     1      34.081 -19.728 -19.869  0.00  0.00    +0.021 C 
BRANCH  12  14
ATOM     13  N   UNL     1      35.537 -17.880 -20.235  0.00  0.00    -0.244 NA
ATOM     14  C   UNL     1      34.751 -18.809 -20.807  0.00  0.00    +0.081 C 
ATOM     15  C   UNL     1      34.536 -18.951 -22.157  0.00  0.00    +0.019 C 
ATOM     16  C   UNL     1      35.189 -18.061 -23.003  0.00  0.00    +0.003 C 
ATOM     17  C   UNL     1      36.154 -17.032 -21.087  0.00  0.00    +0.099 C 
ATOM     18  C   UNL     1      36.014 -17.079 -22.466  0.00  0.00    +0.021 C 
ENDBRANCH  12  14
ENDBRANCH   5  11
BRANCH   7  19
ATOM     19  S   UNL     1      35.777 -24.315 -13.118  0.00  0.00    -0.087 S 
BRANCH  19  20
ATOM     20  C   UNL     1      37.528 -24.594 -13.341  0.00  0.00    +0.034 C 
ATOM     21  C   UNL     1      38.485 -23.947 -12.557  0.00  0.00    +0.059 C 
ATOM     22  C   UNL     1      37.933 -25.487 -14.334  0.00  0.00    +0.007 C 
ATOM     23  C   UNL     1      39.842 -24.194 -12.766  0.00  0.00    +0.005 C 
ATOM     24  C   UNL     1      39.290 -25.734 -14.543  0.00  0.00    +0.001 C 
ATOM     25  C   UNL     1      40.245 -25.087 -13.758  0.00  0.00    +0.000 C 
BRANCH  21  28
ATOM     26  O   UNL     1      38.641 -21.878 -11.466  0.00  0.00    -0.270 OA
ATOM     27  N   UNL     1      37.159 -23.426 -10.585  0.00  0.00    -0.299 N 
ATOM     28  C   UNL     1      38.121 -23.004 -11.506  0.00  0.00    +0.246 C 
ATOM     29  C   UNL     1      36.676 -22.600  -9.501  0.00  0.00    +0.111 C 
ATOM     30  H   UNL     1      36.790 -24.335 -10.679  0.00  0.00    +0.150 HD
ENDBRANCH  21  28
ENDBRANCH  19  20
ENDBRANCH   7  19
TORSDOF 5
ENDMDL
MODEL 4
REMARK VINA RESULT:     -11.1      2.850      4.299
REMARK  Name = 6450551
REMARK  5 active torsions:
REMARK  status: ('A' for Active; 'I' for Inactive)
REMARK    1  A    between atoms: C_5  and  C_11
REMARK    2  A    between atoms: C_7  and  S_19
REMARK    3  A    between atoms: C_12  and  C_14
REMARK    4  A    between atoms: S_19  and  C_20
REMARK    5  A    between atoms: C_21  and  C_28
REMARK                            x       y       z     vdW  Elec       q    Type
REMARK                         _______ _______ _______ _____ _____    ______ ____
ROOT
ATOM      1  N   UNL     1      32.719 -20.850 -19.126  0.00  0.00    -0.276 N 
ATOM      2  N   UNL     1      32.963 -21.659 -18.080  0.00  0.00    -0.173 NA
ATOM      3  C   UNL     1      34.894 -20.720 -18.874  0.00  0.00    +0.036 A 
ATOM      4  C   UNL     1      33.837 -20.256 -19.649  0.00  0.00    +0.076 A 
ATOM      5  C   UNL     1      34.287 -21.576 -17.929  0.00  0.00    +0.102 A 
ATOM      6  C   UNL     1      34.005 -19.368 -20.713  0.00  0.00    +0.025 C 
ATOM      7  C   UNL     1      35.309 -18.946 -20.987  0.00  0.00    +0.031 C 
ATOM      8  C   UNL     1      36.199 -20.286 -19.160  0.00  0.00    +0.004 C 
ATOM      9  C   UNL     1      36.389 -19.396 -20.225  0.00  0.00    +0.007 C 
ATOM     10  H   UNL     1      31.816 -20.699 -19.486  0.00  0.00    +0.189 HD
ENDROOT
BRANCH   5  11
ATOM     11  C   UNL     1      34.993 -22.283 -16.921  0.00  0.00    +0.022 C 
ATOM     12  C   UNL     1      34.620 -22.490 -15.630  0.00  0.00    +0.021 C 
BRANCH  12  14
ATOM     13  N   UNL     1      36.533 -23.798 -15.084  0.00  0.00    -0.244 NA
ATOM     14  C   UNL     1      35.407 -23.226 -14.624  0.00  0.00    +0.081 C 
ATOM     15  C   UNL     1      34.957 -23.280 -13.326  0.00  0.00    +0.019 C 
ATOM     16  C   UNL     1      35.733 -23.985 -12.412  0.00  0.00    +0.003 C 
ATOM     17  C   UNL     1      37.260 -24.475 -14.169  0.00  0.00    +0.099 C 
ATOM     18  C   UNL     1      36.907 -24.598 -12.834  0.00  0.00    +0.021 C 
ENDBRANCH  12  14
ENDBRANCH   5  11
BRANCH   7  19
ATOM     19  S   UNL     1      35.596 -17.811 -22.336  0.00  0.00    -0.087 S 
BRANCH  19  20
ATOM     20  C   UNL     1      35.220 -16.247 -21.557  0.00  0.00    +0.034 C 
ATOM     21  C   UNL     1      34.839 -15.125 -22.297  0.00  0.00    +0.059 C 
ATOM     22  C   UNL     1      35.316 -16.161 -20.167  0.00  0.00    +0.007 C 
ATOM     23  C   UNL     1      34.554 -13.924 -21.647  0.00  0.00    +0.005 C 
ATOM     24  C   UNL     1      35.031 -14.960 -19.517  0.00  0.00    +0.001 C 
ATOM     25  C   UNL     1      34.650 -13.841 -20.259  0.00  0.00    +0.000 C 
BRANCH  21  28
ATOM     26  O   UNL     1      35.251 -16.069 -24.403  0.00  0.00    -0.270 OA
ATOM     27  N   UNL     1      33.977 -14.133 -24.344  0.00  0.00    -0.299 N 
ATOM     28  C   UNL     1      34.722 -15.155 -23.750  0.00  0.00    +0.246 C 
ATOM     29  C   UNL     1      33.750 -14.038 -25.769  0.00  0.00    +0.111 C 
ATOM     30  H   UNL     1      33.587 -13.441 -23.762  0.00  0.00    +0.150 HD
ENDBRANCH  21  28
ENDBRANCH  19  20
ENDBRANCH   7  19
TORSDOF 5
ENDMDL
MODEL 5
REMARK VINA RESULT:     -10.9      2.500      3.499
REMARK  Name = 6450551
REMARK  5 active torsions:
REMARK  status: ('A' for Active; 'I' for Inactive)
REMARK    1  A    between atoms: C_5  and  C_11
REMARK    2  A    between atoms: C_7  and  S_19
REMARK    3  A    between atoms: C_12  and  C_14
REMARK    4  A    between atoms: S_19  and  C_20
REMARK    5  A    between atoms: C_21  and  C_28
REMARK                            x       y       z     vdW  Elec       q    Type
REMARK                         _______ _______ _______ _____ _____    ______ ____
ROOT
ATOM      1  N   UNL     1      32.995 -20.634 -19.272  0.00  0.00    -0.276 N 
ATOM      2  N   UNL     1      32.912 -21.546 -18.288  0.00  0.00    -0.173 NA
ATOM      3  C   UNL     1      35.066 -20.827 -18.577  0.00  0.00    +0.036 A 
ATOM      4  C   UNL     1      34.261 -20.163 -19.496  0.00  0.00    +0.076 A 
ATOM      5  C   UNL     1      34.174 -21.661 -17.868  0.00  0.00    +0.102 A 
ATOM      6  C   UNL     1      34.757 -19.229 -20.407  0.00  0.00    +0.025 C 
ATOM      7  C   UNL     1      36.131 -18.973 -20.368  0.00  0.00    +0.031 C 
ATOM      8  C   UNL     1      36.445 -20.559 -18.549  0.00  0.00    +0.004 C 
ATOM      9  C   UNL     1      36.963 -19.625 -19.456  0.00  0.00    +0.007 C 
ATOM     10  H   UNL     1      32.213 -20.331 -19.788  0.00  0.00    +0.189 HD
ENDROOT
BRANCH   5  11
ATOM     11  C   UNL     1      34.559 -22.534 -16.817  0.00  0.00    +0.022 C 
ATOM     12  C   UNL     1      35.333 -22.250 -15.736  0.00  0.00    +0.021 C 
BRANCH  12  14
ATOM     13  N   UNL     1      36.421 -24.269 -15.099  0.00  0.00    -0.244 NA
ATOM     14  C   UNL     1      35.708 -23.209 -14.681  0.00  0.00    +0.081 C 
ATOM     15  C   UNL     1      35.318 -22.970 -13.385  0.00  0.00    +0.019 C 
ATOM     16  C   UNL     1      35.695 -23.903 -12.425  0.00  0.00    +0.003 C 
ATOM     17  C   UNL     1      36.769 -25.154 -14.139  0.00  0.00    +0.099 C 
ATOM     18  C   UNL     1      36.433 -25.019 -12.801  0.00  0.00    +0.021 C 
ENDBRANCH  12  14
ENDBRANCH   5  11
BRANCH   7  19
ATOM     19  S   UNL     1      36.832 -17.789 -21.506  0.00  0.00    -0.087 S 
BRANCH  19  20
ATOM     20  C   UNL     1      35.598 -17.780 -22.799  0.00  0.00    +0.034 C 
ATOM     21  C   UNL     1      34.911 -16.618 -23.157  0.00  0.00    +0.059 C 
ATOM     22  C   UNL     1      35.323 -18.979 -23.459  0.00  0.00    +0.007 C 
ATOM     23  C   UNL     1      33.955 -16.656 -24.173  0.00  0.00    +0.005 C 
ATOM     24  C   UNL     1      34.367 -19.018 -24.474  0.00  0.00    +0.001 C 
ATOM     25  C   UNL     1      33.683 -17.855 -24.830  0.00  0.00    +0.000 C 
BRANCH  21  28
ATOM     26  O   UNL     1      35.684 -14.405 -23.129  0.00  0.00    -0.270 OA
ATOM     27  N   UNL     1      34.746 -15.220 -21.173  0.00  0.00    -0.299 N 
ATOM     28  C   UNL     1      35.155 -15.337 -22.504  0.00  0.00    +0.246 C 
ATOM     29  C   UNL     1      34.897 -14.009 -20.397  0.00  0.00    +0.111 C 
ATOM     30  H   UNL     1      34.334 -16.003 -20.741  0.00  0.00    +0.150 HD
ENDBRANCH  21  28
ENDBRANCH  19  20
ENDBRANCH   7  19
TORSDOF 5
ENDMDL
MODEL 6
REMARK VINA RESULT:     -10.9      3.613      9.758
REMARK  Name = 6450551
REMARK  5 active torsions:
REMARK  status: ('A' for Active; 'I' for Inactive)
REMARK    1  A    between atoms: C_5  and  C_11
REMARK    2  A    between atoms: C_7  and  S_19
REMARK    3  A    between atoms: C_12  and  C_14
REMARK    4  A    between atoms: S_19  and  C_20
REMARK    5  A    between atoms: C_21  and  C_28
REMARK                            x       y       z     vdW  Elec       q    Type
REMARK                         _______ _______ _______ _____ _____    ______ ____
ROOT
ATOM      1  N   UNL     1      34.832 -15.894 -24.640  0.00  0.00    -0.276 N 
ATOM      2  N   UNL     1      34.225 -14.716 -24.864  0.00  0.00    -0.173 NA
ATOM      3  C   UNL     1      34.646 -15.026 -22.635  0.00  0.00    +0.036 A 
ATOM      4  C   UNL     1      35.111 -16.141 -23.323  0.00  0.00    +0.076 A 
ATOM      5  C   UNL     1      34.114 -14.191 -23.641  0.00  0.00    +0.102 A 
ATOM      6  C   UNL     1      35.722 -17.226 -22.690  0.00  0.00    +0.025 C 
ATOM      7  C   UNL     1      35.855 -17.157 -21.300  0.00  0.00    +0.031 C 
ATOM      8  C   UNL     1      34.787 -14.971 -21.238  0.00  0.00    +0.004 C 
ATOM      9  C   UNL     1      35.396 -16.049 -20.584  0.00  0.00    +0.007 C 
ATOM     10  H   UNL     1      35.056 -16.526 -25.362  0.00  0.00    +0.189 HD
ENDROOT
BRANCH   5  11
ATOM     11  C   UNL     1      33.520 -12.924 -23.398  0.00  0.00    +0.022 C 
ATOM     12  C   UNL     1      34.145 -11.733 -23.201  0.00  0.00    +0.021 C 
BRANCH  12  14
ATOM     13  N   UNL     1      32.637 -10.445 -21.883  0.00  0.00    -0.244 NA
ATOM     14  C   UNL     1      33.468 -10.450 -22.940  0.00  0.00    +0.081 C 
ATOM     15  C   UNL     1      33.718  -9.378 -23.764  0.00  0.00    +0.019 C 
ATOM     16  C   UNL     1      33.056  -8.188 -23.479  0.00  0.00    +0.003 C 
ATOM     17  C   UNL     1      32.011  -9.273 -21.637  0.00  0.00    +0.099 C 
ATOM     18  C   UNL     1      32.185  -8.127 -22.398  0.00  0.00    +0.021 C 
ENDBRANCH  12  14
ENDBRANCH   5  11
BRANCH   7  19
ATOM     19  S   UNL     1      36.626 -18.510 -20.427  0.00  0.00    -0.087 S 
BRANCH  19  20
ATOM     20  C   UNL     1      35.196 -19.460 -19.930  0.00  0.00    +0.034 C 
ATOM     21  C   UNL     1      35.284 -20.497 -18.998  0.00  0.00    +0.059 C 
ATOM     22  C   UNL     1      33.962 -19.143 -20.500  0.00  0.00    +0.007 C 
ATOM     23  C   UNL     1      34.142 -21.212 -18.638  0.00  0.00    +0.005 C 
ATOM     24  C   UNL     1      32.820 -19.858 -20.140  0.00  0.00    +0.001 C 
ATOM     25  C   UNL     1      32.910 -20.893 -19.209  0.00  0.00    +0.000 C 
BRANCH  21  28
ATOM     26  O   UNL     1      37.530 -21.165 -19.067  0.00  0.00    -0.270 OA
ATOM     27  N   UNL     1      36.584 -20.859 -16.973  0.00  0.00    -0.299 N 
ATOM     28  C   UNL     1      36.546 -20.872 -18.370  0.00  0.00    +0.246 C 
ATOM     29  C   UNL     1      37.765 -21.183 -16.205  0.00  0.00    +0.111 C 
ATOM     30  H   UNL     1      35.763 -20.617 -16.486  0.00  0.00    +0.150 HD
ENDBRANCH  21  28
ENDBRANCH  19  20
ENDBRANCH   7  19
TORSDOF 5
ENDMDL
MODEL 7
REMARK VINA RESULT:     -10.9      4.365      8.030
REMARK  Name = 6450551
REMARK  5 active torsions:
REMARK  status: ('A' for Active; 'I' for Inactive)
REMARK    1  A    between atoms: C_5  and  C_11
REMARK    2  A    between atoms: C_7  and  S_19
REMARK    3  A    between atoms: C_12  and  C_14
REMARK    4  A    between atoms: S_19  and  C_20
REMARK    5  A    between atoms: C_21  and  C_28
REMARK                            x       y       z     vdW  Elec       q    Type
REMARK                         _______ _______ _______ _____ _____    ______ ____
ROOT
ATOM      1  N   UNL     1      34.101 -15.653 -25.126  0.00  0.00    -0.276 N 
ATOM      2  N   UNL     1      34.486 -16.844 -24.638  0.00  0.00    -0.173 NA
ATOM      3  C   UNL     1      34.676 -15.197 -23.060  0.00  0.00    +0.036 A 
ATOM      4  C   UNL     1      34.192 -14.622 -24.229  0.00  0.00    +0.076 A 
ATOM      5  C   UNL     1      34.835 -16.563 -23.380  0.00  0.00    +0.102 A 
ATOM      6  C   UNL     1      33.894 -13.263 -24.343  0.00  0.00    +0.025 C 
ATOM      7  C   UNL     1      34.104 -12.471 -23.210  0.00  0.00    +0.031 C 
ATOM      8  C   UNL     1      34.883 -14.388 -21.930  0.00  0.00    +0.004 C 
ATOM      9  C   UNL     1      34.591 -13.022 -22.023  0.00  0.00    +0.007 C 
ATOM     10  H   UNL     1      33.782 -15.531 -26.050  0.00  0.00    +0.189 HD
ENDROOT
BRANCH   5  11
ATOM     11  C   UNL     1      35.314 -17.546 -22.475  0.00  0.00    +0.022 C 
ATOM     12  C   UNL     1      34.704 -18.018 -21.356  0.00  0.00    +0.021 C 
BRANCH  12  14
ATOM     13  N   UNL     1      36.595 -18.991 -20.287  0.00  0.00    -0.244 NA
ATOM     14  C   UNL     1      35.261 -19.036 -20.447  0.00  0.00    +0.081 C 
ATOM     15  C   UNL     1      34.415 -19.936 -19.844  0.00  0.00    +0.019 C 
ATOM     16  C   UNL     1      34.987 -20.878 -18.996  0.00  0.00    +0.003 C 
ATOM     17  C   UNL     1      37.116 -19.922 -19.456  0.00  0.00    +0.099 C 
ATOM     18  C   UNL     1      36.362 -20.878 -18.794  0.00  0.00    +0.021 C 
ENDBRANCH  12  14
ENDBRANCH   5  11
BRANCH   7  19
ATOM     19  S   UNL     1      33.745 -10.723 -23.287  0.00  0.00    -0.087 S 
BRANCH  19  20
ATOM     20  C   UNL     1      32.762 -10.508 -21.810  0.00  0.00    +0.034 C 
ATOM     21  C   UNL     1      32.398  -9.243 -21.341  0.00  0.00    +0.059 C 
ATOM     22  C   UNL     1      32.355 -11.648 -21.115  0.00  0.00    +0.007 C 
ATOM     23  C   UNL     1      31.630  -9.122 -20.183  0.00  0.00    +0.005 C 
ATOM     24  C   UNL     1      31.587 -11.527 -19.957  0.00  0.00    +0.001 C 
ATOM     25  C   UNL     1      31.225 -10.262 -19.491  0.00  0.00    +0.000 C 
BRANCH  21  28
ATOM     26  O   UNL     1      33.888  -7.487 -21.777  0.00  0.00    -0.270 OA
ATOM     27  N   UNL     1      31.900  -7.504 -22.968  0.00  0.00    -0.299 N 
ATOM     28  C   UNL     1      32.794  -8.017 -22.024  0.00  0.00    +0.246 C 
ATOM     29  C   UNL     1      32.158  -6.312 -23.744  0.00  0.00    +0.111 C 
ATOM     30  H   UNL     1      31.049  -7.980 -23.111  0.00  0.00    +0.150 HD
ENDBRANCH  21  28
ENDBRANCH  19  20
ENDBRANCH   7  19
TORSDOF 5
ENDMDL
MODEL 8
REMARK VINA RESULT:     -10.8      5.012      8.494
REMARK  Name = 6450551
REMARK  5 active torsions:
REMARK  status: ('A' for Active; 'I' for Inactive)
REMARK    1  A    between atoms: C_5  and  C_11
REMARK    2  A    between atoms: C_7  and  S_19
REMARK    3  A    between atoms: C_12  and  C_14
REMARK    4  A    between atoms: S_19  and  C_20
REMARK    5  A    between atoms: C_21  and  C_28
REMARK                            x       y       z     vdW  Elec       q    Type
REMARK                         _______ _______ _______ _____ _____    ______ ____
ROOT
ATOM      1  N   UNL     1      34.978 -13.631 -22.962  0.00  0.00    -0.276 N 
ATOM      2  N   UNL     1      35.461 -14.831 -22.595  0.00  0.00    -0.173 NA
ATOM      3  C   UNL     1      33.965 -14.030 -21.058  0.00  0.00    +0.036 A 
ATOM      4  C   UNL     1      34.075 -13.096 -22.081  0.00  0.00    +0.076 A 
ATOM      5  C   UNL     1      34.842 -15.070 -21.436  0.00  0.00    +0.102 A 
ATOM      6  C   UNL     1      33.361 -11.896 -22.098  0.00  0.00    +0.025 C 
ATOM      7  C   UNL     1      32.504 -11.654 -21.020  0.00  0.00    +0.031 C 
ATOM      8  C   UNL     1      33.099 -13.772 -19.981  0.00  0.00    +0.004 C 
ATOM      9  C   UNL     1      32.374 -12.574 -19.979  0.00  0.00    +0.007 C 
ATOM     10  H   UNL     1      35.250 -13.176 -23.791  0.00  0.00    +0.189 HD
ENDROOT
BRANCH   5  11
ATOM     11  C   UNL     1      35.056 -16.251 -20.678  0.00  0.00    +0.022 C 
ATOM     12  C   UNL     1      35.173 -17.526 -21.135  0.00  0.00    +0.021 C 
BRANCH  12  14
ATOM     13  N   UNL     1      36.636 -18.882 -19.836  0.00  0.00    -0.244 NA
ATOM     14  C   UNL     1      35.383 -18.717 -20.292  0.00  0.00    +0.081 C 
ATOM     15  C   UNL     1      34.323 -19.555 -20.035  0.00  0.00    +0.019 C 
ATOM     16  C   UNL     1      34.570 -20.665 -19.235  0.00  0.00    +0.003 C 
ATOM     17  C   UNL     1      36.839 -19.971 -19.063  0.00  0.00    +0.099 C 
ATOM     18  C   UNL     1      35.849 -20.885 -18.736  0.00  0.00    +0.021 C 
ENDBRANCH  12  14
ENDBRANCH   5  11
BRANCH   7  19
ATOM     19  S   UNL     1      31.561 -10.138 -20.978  0.00  0.00    -0.087 S 
BRANCH  19  20
ATOM     20  C   UNL     1      32.653  -9.027 -21.853  0.00  0.00    +0.034 C 
ATOM     21  C   UNL     1      33.182  -7.882 -21.251  0.00  0.00    +0.059 C 
ATOM     22  C   UNL     1      32.976  -9.325 -23.178  0.00  0.00    +0.007 C 
ATOM     23  C   UNL     1      34.031  -7.043 -21.972  0.00  0.00    +0.005 C 
ATOM     24  C   UNL     1      33.826  -8.485 -23.899  0.00  0.00    +0.001 C 
ATOM     25  C   UNL     1      34.353  -7.343 -23.295  0.00  0.00    +0.000 C 
BRANCH  21  28
ATOM     26  O   UNL     1      32.998  -8.357 -18.963  0.00  0.00    -0.270 OA
ATOM     27  N   UNL     1      32.483  -6.200 -19.638  0.00  0.00    -0.299 N 
ATOM     28  C   UNL     1      32.879  -7.520 -19.871  0.00  0.00    +0.246 C 
ATOM     29  C   UNL     1      32.173  -5.682 -18.325  0.00  0.00    +0.111 C 
ATOM     30  H   UNL     1      32.411  -5.591 -20.409  0.00  0.00    +0.150 HD
ENDBRANCH  21  28
ENDBRANCH  19  20
ENDBRANCH   7  19
TORSDOF 5
ENDMDL
MODEL 9
REMARK VINA RESULT:     -10.7      5.553     10.228
REMARK  Name = 6450551
REMARK  5 active torsions:
REMARK  status: ('A' for Active; 'I' for Inactive)
REMARK    1  A    between atoms: C_5  and  C_11
REMARK    2  A    between atoms: C_7  and  S_19
REMARK    3  A    between atoms: C_12  and  C_14
REMARK    4  A    between atoms: S_19  and  C_20
REMARK    5  A    between atoms: C_21  and  C_28
REMARK                            x       y       z     vdW  Elec       q    Type
REMARK                         _______ _______ _______ _____ _____    ______ ____
ROOT
ATOM      1  N   UNL     1      32.367 -22.706 -16.944  0.00  0.00    -0.276 N 
ATOM      2  N   UNL     1      32.666 -22.037 -18.071  0.00  0.00    -0.173 NA
ATOM      3  C   UNL     1      34.432 -22.044 -16.616  0.00  0.00    +0.036 A 
ATOM      4  C   UNL     1      33.386 -22.746 -16.029  0.00  0.00    +0.076 A 
ATOM      5  C   UNL     1      33.923 -21.637 -17.868  0.00  0.00    +0.102 A 
ATOM      6  C   UNL     1      33.474 -23.329 -14.763  0.00  0.00    +0.025 C 
ATOM      7  C   UNL     1      34.685 -23.181 -14.081  0.00  0.00    +0.031 C 
ATOM      8  C   UNL     1      35.644 -21.904 -15.917  0.00  0.00    +0.004 C 
ATOM      9  C   UNL     1      35.753 -22.481 -14.646  0.00  0.00    +0.007 C 
ATOM     10  H   UNL     1      31.492 -23.129 -16.789  0.00  0.00    +0.189 HD
ENDROOT
BRANCH   5  11
ATOM     11  C   UNL     1      34.655 -20.882 -18.822  0.00  0.00    +0.022 C 
ATOM     12  C   UNL     1      34.200 -19.879 -19.620  0.00  0.00    +0.021 C 
BRANCH  12  14
ATOM     13  N   UNL     1      34.422 -18.936 -21.794  0.00  0.00    -0.244 NA
ATOM     14  C   UNL     1      35.011 -19.139 -20.603  0.00  0.00    +0.081 C 
ATOM     15  C   UNL     1      36.274 -18.721 -20.255  0.00  0.00    +0.019 C 
ATOM     16  C   UNL     1      37.001 -18.027 -21.216  0.00  0.00    +0.003 C 
ATOM     17  C   UNL     1      35.158 -18.259 -22.702  0.00  0.00    +0.099 C 
ATOM     18  C   UNL     1      36.441 -17.788 -22.466  0.00  0.00    +0.021 C 
ENDBRANCH  12  14
ENDBRANCH   5  11
BRANCH   7  19
ATOM     19  S   UNL     1      34.866 -23.901 -12.456  0.00  0.00    -0.087 S 
BRANCH  19  20
ATOM     20  C   UNL     1      36.592 -23.575 -12.125  0.00  0.00    +0.034 C 
ATOM     21  C   UNL     1      37.604 -24.432 -12.564  0.00  0.00    +0.059 C 
ATOM     22  C   UNL     1      36.921 -22.426 -11.404  0.00  0.00    +0.007 C 
ATOM     23  C   UNL     1      38.938 -24.139 -12.283  0.00  0.00    +0.005 C 
ATOM     24  C   UNL     1      38.256 -22.133 -11.123  0.00  0.00    +0.001 C 
ATOM     25  C   UNL     1      39.265 -22.991 -11.563  0.00  0.00    +0.000 C 
BRANCH  21  28
ATOM     26  O   UNL     1      37.130 -26.722 -12.733  0.00  0.00    -0.270 OA
ATOM     27  N   UNL     1      37.254 -25.521 -14.712  0.00  0.00    -0.299 N 
ATOM     28  C   UNL     1      37.321 -25.646 -13.321  0.00  0.00    +0.246 C 
ATOM     29  C   UNL     1      36.959 -26.626 -15.597  0.00  0.00    +0.111 C 
ATOM     30  H   UNL     1      37.416 -24.635 -15.109  0.00  0.00    +0.150 HD
ENDBRANCH  21  28
ENDBRANCH  19  20
ENDBRANCH   7  19
TORSDOF 5
ENDMDL
