MODEL 1
REMARK VINA RESULT:     -12.5      0.000      0.000
REMARK  Name = 54674461
REMARK  5 active torsions:
REMARK  status: ('A' for Active; 'I' for Inactive)
REMARK    1  A    between atoms: N_2  and  C_29
REMARK    2  A    between atoms: C_7  and  C_14
REMARK    3  A    between atoms: C_15  and  N_21
REMARK    4  A    between atoms: C_22  and  O_24
REMARK    5  A    between atoms: C_29  and  C_31
REMARK                            x       y       z     vdW  Elec       q    Type
REMARK                         _______ _______ _______ _____ _____    ______ ____
ROOT
ATOM      1  F   UNL     1      29.652 -22.279 -14.495  0.00  0.00    -0.207 F 
ATOM      2  N   UNL     1      34.734 -23.995 -14.783  0.00  0.00    -0.193 N 
ATOM      3  N   UNL     1      35.272 -23.365 -15.843  0.00  0.00    -0.168 NA
ATOM      4  N   UNL     1      32.642 -24.148 -13.577  0.00  0.00    -0.251 NA
ATOM      5  C   UNL     1      33.084 -22.762 -15.546  0.00  0.00    +0.133 C 
ATOM      6  C   UNL     1      33.427 -23.672 -14.560  0.00  0.00    +0.133 C 
ATOM      7  C   UNL     1      34.264 -22.615 -16.303  0.00  0.00    +0.172 C 
ATOM      8  C   UNL     1      31.778 -22.259 -15.550  0.00  0.00    +0.015 C 
ATOM      9  C   UNL     1      30.915 -22.716 -14.553  0.00  0.00    +0.139 C 
ATOM     10  C   UNL     1      31.390 -23.634 -13.622  0.00  0.00    +0.182 C 
ENDROOT
BRANCH   7  14
ATOM     11  N   UNL     1      33.341 -21.313 -18.057  0.00  0.00    -0.326 NA
ATOM     12  N   UNL     1      35.729 -21.539 -17.825  0.00  0.00    -0.326 NA
ATOM     13  N   UNL     1      32.425 -20.011 -19.810  0.00  0.00    -0.334 N 
ATOM     14  C   UNL     1      34.455 -21.776 -17.459  0.00  0.00    +0.156 C 
ATOM     15  C   UNL     1      34.812 -20.214 -19.613  0.00  0.00    +0.210 C 
ATOM     16  C   UNL     1      33.557 -20.532 -19.135  0.00  0.00    +0.193 C 
ATOM     17  C   UNL     1      35.872 -20.751 -18.912  0.00  0.00    +0.193 C 
ATOM     18  H   UNL     1      31.519 -20.224 -19.487  0.00  0.00    +0.144 HD
ATOM     19  H   UNL     1      32.544 -19.436 -20.600  0.00  0.00    +0.144 HD
ATOM     20  N   UNL     1      37.189 -20.466 -19.350  0.00  0.00    -0.334 N 
ATOM     21  H   UNL     1      37.960 -20.838 -18.865  0.00  0.00    +0.144 HD
ATOM     22  H   UNL     1      37.331 -19.896 -20.140  0.00  0.00    +0.144 HD
BRANCH  15  24
ATOM     23  O   UNL     1      35.935 -17.439 -19.868  0.00  0.00    -0.226 OA
ATOM     24  N   UNL     1      34.998 -19.404 -20.736  0.00  0.00    -0.258 N 
ATOM     25  C   UNL     1      35.526 -18.119 -20.801  0.00  0.00    +0.402 C 
ATOM     26  H   UNL     1      34.719 -19.795 -21.596  0.00  0.00    +0.154 HD
BRANCH  25  27
ATOM     27  O   UNL     1      35.527 -17.696 -22.103  0.00  0.00    -0.431 OA
ATOM     28  C   UNL     1      34.945 -18.593 -23.056  0.00  0.00    +0.257 C 
ENDBRANCH  25  27
ENDBRANCH  15  24
ENDBRANCH   7  14
BRANCH   2  29
ATOM     29  C   UNL     1      35.542 -24.912 -14.015  0.00  0.00    +0.146 C 
BRANCH  29  31
ATOM     30  F   UNL     1      38.282 -25.617 -13.844  0.00  0.00    -0.204 F 
ATOM     31  C   UNL     1      36.514 -24.222 -13.092  0.00  0.00    +0.027 C 
ATOM     32  C   UNL     1      37.851 -24.620 -13.058  0.00  0.00    +0.138 C 
ATOM     33  C   UNL     1      36.076 -23.183 -12.270  0.00  0.00    -0.000 C 
ATOM     34  C   UNL     1      38.748 -23.980 -12.204  0.00  0.00    +0.029 C 
ATOM     35  C   UNL     1      36.974 -22.543 -11.415  0.00  0.00    -0.000 C 
ATOM     36  C   UNL     1      38.310 -22.942 -11.381  0.00  0.00    +0.002 C 
ENDBRANCH  29  31
ENDBRANCH   2  29
TORSDOF 5
ENDMDL
MODEL 2
REMARK VINA RESULT:     -11.8      1.479      5.135
REMARK  Name = 54674461
REMARK  5 active torsions:
REMARK  status: ('A' for Active; 'I' for Inactive)
REMARK    1  A    between atoms: N_2  and  C_29
REMARK    2  A    between atoms: C_7  and  C_14
REMARK    3  A    between atoms: C_15  and  N_21
REMARK    4  A    between atoms: C_22  and  O_24
REMARK    5  A    between atoms: C_29  and  C_31
REMARK                            x       y       z     vdW  Elec       q    Type
REMARK                         _______ _______ _______ _____ _____    ______ ____
ROOT
ATOM      1  F   UNL     1      37.946 -22.800 -13.477  0.00  0.00    -0.207 F 
ATOM      2  N   UNL     1      32.867 -23.520 -15.074  0.00  0.00    -0.193 N 
ATOM      3  N   UNL     1      32.760 -22.875 -16.249  0.00  0.00    -0.168 NA
ATOM      4  N   UNL     1      34.502 -23.986 -13.352  0.00  0.00    -0.251 NA
ATOM      5  C   UNL     1      34.874 -22.686 -15.394  0.00  0.00    +0.133 C 
ATOM      6  C   UNL     1      34.110 -23.440 -14.517  0.00  0.00    +0.133 C 
ATOM      7  C   UNL     1      33.984 -22.369 -16.439  0.00  0.00    +0.172 C 
ATOM      8  C   UNL     1      36.212 -22.446 -15.059  0.00  0.00    +0.015 C 
ATOM      9  C   UNL     1      36.678 -22.988 -13.861  0.00  0.00    +0.139 C 
ATOM     10  C   UNL     1      35.802 -23.727 -13.072  0.00  0.00    +0.182 C 
ENDROOT
BRANCH   7  14
ATOM     11  N   UNL     1      35.571 -21.455 -17.945  0.00  0.00    -0.326 NA
ATOM     12  N   UNL     1      33.213 -21.086 -18.278  0.00  0.00    -0.326 NA
ATOM     13  N   UNL     1      37.152 -20.540 -19.453  0.00  0.00    -0.334 N 
ATOM     14  C   UNL     1      34.272 -21.594 -17.620  0.00  0.00    +0.156 C 
ATOM     15  C   UNL     1      34.808 -20.148 -19.817  0.00  0.00    +0.210 C 
ATOM     16  C   UNL     1      35.804 -20.723 -19.054  0.00  0.00    +0.193 C 
ATOM     17  C   UNL     1      33.518 -20.364 -19.376  0.00  0.00    +0.193 C 
ATOM     18  H   UNL     1      37.880 -20.941 -18.924  0.00  0.00    +0.144 HD
ATOM     19  H   UNL     1      37.360 -20.013 -20.257  0.00  0.00    +0.144 HD
ATOM     20  N   UNL     1      32.447 -19.800 -20.113  0.00  0.00    -0.334 N 
ATOM     21  H   UNL     1      31.519 -19.941 -19.818  0.00  0.00    +0.144 HD
ATOM     22  H   UNL     1      32.633 -19.266 -20.919  0.00  0.00    +0.144 HD
BRANCH  15  24
ATOM     23  O   UNL     1      35.702 -17.294 -20.113  0.00  0.00    -0.226 OA
ATOM     24  N   UNL     1      35.087 -19.392 -20.958  0.00  0.00    -0.258 N 
ATOM     25  C   UNL     1      35.500 -18.067 -21.042  0.00  0.00    +0.402 C 
ATOM     26  H   UNL     1      34.977 -19.861 -21.818  0.00  0.00    +0.154 HD
BRANCH  25  27
ATOM     27  O   UNL     1      35.659 -17.725 -22.358  0.00  0.00    -0.431 OA
ATOM     28  C   UNL     1      34.687 -18.257 -23.267  0.00  0.00    +0.257 C 
ENDBRANCH  25  27
ENDBRANCH  15  24
ENDBRANCH   7  14
BRANCH   2  29
ATOM     29  C   UNL     1      31.718 -24.205 -14.530  0.00  0.00    +0.146 C 
BRANCH  29  31
ATOM     30  F   UNL     1      30.899 -21.617 -13.716  0.00  0.00    -0.204 F 
ATOM     31  C   UNL     1      30.405 -23.588 -14.943  0.00  0.00    +0.027 C 
ATOM     32  C   UNL     1      30.065 -22.308 -14.505  0.00  0.00    +0.138 C 
ATOM     33  C   UNL     1      29.530 -24.299 -15.765  0.00  0.00    -0.000 C 
ATOM     34  C   UNL     1      28.851 -21.739 -14.889  0.00  0.00    +0.029 C 
ATOM     35  C   UNL     1      28.315 -23.730 -16.148  0.00  0.00    -0.000 C 
ATOM     36  C   UNL     1      27.975 -22.451 -15.709  0.00  0.00    +0.002 C 
ENDBRANCH  29  31
ENDBRANCH   2  29
TORSDOF 5
ENDMDL
MODEL 3
REMARK VINA RESULT:     -11.7      1.506      4.921
REMARK  Name = 54674461
REMARK  5 active torsions:
REMARK  status: ('A' for Active; 'I' for Inactive)
REMARK    1  A    between atoms: N_2  and  C_29
REMARK    2  A    between atoms: C_7  and  C_14
REMARK    3  A    between atoms: C_15  and  N_21
REMARK    4  A    between atoms: C_22  and  O_24
REMARK    5  A    between atoms: C_29  and  C_31
REMARK                            x       y       z     vdW  Elec       q    Type
REMARK                         _______ _______ _______ _____ _____    ______ ____
ROOT
ATOM      1  F   UNL     1      37.816 -22.650 -13.331  0.00  0.00    -0.207 F 
ATOM      2  N   UNL     1      32.794 -23.486 -15.047  0.00  0.00    -0.193 N 
ATOM      3  N   UNL     1      32.710 -22.873 -16.241  0.00  0.00    -0.168 NA
ATOM      4  N   UNL     1      34.387 -23.884 -13.270  0.00  0.00    -0.251 NA
ATOM      5  C   UNL     1      34.797 -22.630 -15.333  0.00  0.00    +0.133 C 
ATOM      6  C   UNL     1      34.020 -23.373 -14.459  0.00  0.00    +0.133 C 
ATOM      7  C   UNL     1      33.931 -22.354 -16.411  0.00  0.00    +0.172 C 
ATOM      8  C   UNL     1      36.122 -22.362 -14.969  0.00  0.00    +0.015 C 
ATOM      9  C   UNL     1      36.562 -22.867 -13.745  0.00  0.00    +0.139 C 
ATOM     10  C   UNL     1      35.675 -23.599 -12.961  0.00  0.00    +0.182 C 
ENDROOT
BRANCH   7  14
ATOM     11  N   UNL     1      33.193 -21.115 -18.293  0.00  0.00    -0.326 NA
ATOM     12  N   UNL     1      35.545 -21.470 -17.906  0.00  0.00    -0.326 NA
ATOM     13  N   UNL     1      32.461 -19.878 -20.175  0.00  0.00    -0.334 N 
ATOM     14  C   UNL     1      34.241 -21.605 -17.602  0.00  0.00    +0.156 C 
ATOM     15  C   UNL     1      34.816 -20.212 -19.824  0.00  0.00    +0.210 C 
ATOM     16  C   UNL     1      33.518 -20.421 -19.403  0.00  0.00    +0.193 C 
ATOM     17  C   UNL     1      35.798 -20.765 -19.029  0.00  0.00    +0.193 C 
ATOM     18  H   UNL     1      31.527 -20.014 -19.895  0.00  0.00    +0.144 HD
ATOM     19  H   UNL     1      32.661 -19.364 -20.990  0.00  0.00    +0.144 HD
ATOM     20  N   UNL     1      37.153 -20.589 -19.405  0.00  0.00    -0.334 N 
ATOM     21  H   UNL     1      37.871 -20.974 -18.853  0.00  0.00    +0.144 HD
ATOM     22  H   UNL     1      37.376 -20.081 -20.218  0.00  0.00    +0.144 HD
BRANCH  15  24
ATOM     23  O   UNL     1      35.597 -17.334 -20.196  0.00  0.00    -0.226 OA
ATOM     24  N   UNL     1      35.116 -19.489 -20.982  0.00  0.00    -0.258 N 
ATOM     25  C   UNL     1      35.474 -18.151 -21.101  0.00  0.00    +0.402 C 
ATOM     26  H   UNL     1      35.067 -19.995 -21.825  0.00  0.00    +0.154 HD
BRANCH  25  27
ATOM     27  O   UNL     1      35.681 -17.854 -22.421  0.00  0.00    -0.431 OA
ATOM     28  C   UNL     1      34.640 -18.245 -23.324  0.00  0.00    +0.257 C 
ENDBRANCH  25  27
ENDBRANCH  15  24
ENDBRANCH   7  14
BRANCH   2  29
ATOM     29  C   UNL     1      31.640 -24.174 -14.518  0.00  0.00    +0.146 C 
BRANCH  29  31
ATOM     30  F   UNL     1      30.862 -21.589 -13.655  0.00  0.00    -0.204 F 
ATOM     31  C   UNL     1      30.332 -23.535 -14.910  0.00  0.00    +0.027 C 
ATOM     32  C   UNL     1      30.012 -22.257 -14.448  0.00  0.00    +0.138 C 
ATOM     33  C   UNL     1      29.441 -24.221 -15.735  0.00  0.00    -0.000 C 
ATOM     34  C   UNL     1      28.802 -21.667 -14.812  0.00  0.00    +0.029 C 
ATOM     35  C   UNL     1      28.230 -23.631 -16.098  0.00  0.00    -0.000 C 
ATOM     36  C   UNL     1      27.910 -22.355 -15.637  0.00  0.00    +0.002 C 
ENDBRANCH  29  31
ENDBRANCH   2  29
TORSDOF 5
ENDMDL
MODEL 4
REMARK VINA RESULT:     -10.4      4.171      6.246
REMARK  Name = 54674461
REMARK  5 active torsions:
REMARK  status: ('A' for Active; 'I' for Inactive)
REMARK    1  A    between atoms: N_2  and  C_29
REMARK    2  A    between atoms: C_7  and  C_14
REMARK    3  A    between atoms: C_15  and  N_21
REMARK    4  A    between atoms: C_22  and  O_24
REMARK    5  A    between atoms: C_29  and  C_31
REMARK                            x       y       z     vdW  Elec       q    Type
REMARK                         _______ _______ _______ _____ _____    ______ ____
ROOT
ATOM      1  F   UNL     1      36.932 -20.549 -17.823  0.00  0.00    -0.207 F 
ATOM      2  N   UNL     1      36.338 -23.435 -13.332  0.00  0.00    -0.193 N 
ATOM      3  N   UNL     1      35.015 -23.646 -13.207  0.00  0.00    -0.168 NA
ATOM      4  N   UNL     1      37.914 -22.346 -14.809  0.00  0.00    -0.251 NA
ATOM      5  C   UNL     1      35.482 -22.420 -15.082  0.00  0.00    +0.133 C 
ATOM      6  C   UNL     1      36.673 -22.707 -14.435  0.00  0.00    +0.133 C 
ATOM      7  C   UNL     1      34.499 -23.027 -14.274  0.00  0.00    +0.172 C 
ATOM      8  C   UNL     1      35.539 -21.671 -16.263  0.00  0.00    +0.015 C 
ATOM      9  C   UNL     1      36.800 -21.267 -16.702  0.00  0.00    +0.139 C 
ATOM     10  C   UNL     1      37.919 -21.624 -15.955  0.00  0.00    +0.182 C 
ENDROOT
BRANCH   7  14
ATOM     11  N   UNL     1      32.635 -22.383 -15.590  0.00  0.00    -0.326 NA
ATOM     12  N   UNL     1      32.328 -23.684 -13.585  0.00  0.00    -0.326 NA
ATOM     13  N   UNL     1      30.769 -21.742 -16.901  0.00  0.00    -0.334 N 
ATOM     14  C   UNL     1      33.075 -23.032 -14.495  0.00  0.00    +0.156 C 
ATOM     15  C   UNL     1      30.422 -23.038 -14.906  0.00  0.00    +0.210 C 
ATOM     16  C   UNL     1      31.297 -22.406 -15.766  0.00  0.00    +0.193 C 
ATOM     17  C   UNL     1      30.999 -23.667 -13.822  0.00  0.00    +0.193 C 
ATOM     18  H   UNL     1      31.374 -21.284 -17.528  0.00  0.00    +0.144 HD
ATOM     19  H   UNL     1      29.798 -21.739 -17.062  0.00  0.00    +0.144 HD
ATOM     20  N   UNL     1      30.156 -24.334 -12.898  0.00  0.00    -0.334 N 
ATOM     21  H   UNL     1      30.546 -24.789 -12.117  0.00  0.00    +0.144 HD
ATOM     22  H   UNL     1      29.182 -24.341 -13.038  0.00  0.00    +0.144 HD
BRANCH  15  24
ATOM     23  O   UNL     1      28.337 -20.969 -14.271  0.00  0.00    -0.226 OA
ATOM     24  N   UNL     1      29.041 -23.039 -15.118  0.00  0.00    -0.258 N 
ATOM     25  C   UNL     1      28.114 -22.050 -14.803  0.00  0.00    +0.402 C 
ATOM     26  H   UNL     1      28.675 -23.846 -15.546  0.00  0.00    +0.154 HD
BRANCH  25  27
ATOM     27  O   UNL     1      26.866 -22.462 -15.185  0.00  0.00    -0.431 OA
ATOM     28  C   UNL     1      25.913 -21.425 -15.444  0.00  0.00    +0.257 C 
ENDBRANCH  25  27
ENDBRANCH  15  24
ENDBRANCH   7  14
BRANCH   2  29
ATOM     29  C   UNL     1      37.240 -23.968 -12.339  0.00  0.00    +0.146 C 
BRANCH  29  31
ATOM     30  F   UNL     1      37.128 -26.477 -13.650  0.00  0.00    -0.204 F 
ATOM     31  C   UNL     1      38.452 -24.641 -12.933  0.00  0.00    +0.027 C 
ATOM     32  C   UNL     1      38.324 -25.878 -13.566  0.00  0.00    +0.138 C 
ATOM     33  C   UNL     1      39.701 -24.026 -12.851  0.00  0.00    -0.000 C 
ATOM     34  C   UNL     1      39.445 -26.499 -14.115  0.00  0.00    +0.029 C 
ATOM     35  C   UNL     1      40.823 -24.648 -13.401  0.00  0.00    -0.000 C 
ATOM     36  C   UNL     1      40.695 -25.885 -14.032  0.00  0.00    +0.002 C 
ENDBRANCH  29  31
ENDBRANCH   2  29
TORSDOF 5
ENDMDL
MODEL 5
REMARK VINA RESULT:     -10.2      4.812      9.965
REMARK  Name = 54674461
REMARK  5 active torsions:
REMARK  status: ('A' for Active; 'I' for Inactive)
REMARK    1  A    between atoms: N_2  and  C_29
REMARK    2  A    between atoms: C_7  and  C_14
REMARK    3  A    between atoms: C_15  and  N_21
REMARK    4  A    between atoms: C_22  and  O_24
REMARK    5  A    between atoms: C_29  and  C_31
REMARK                            x       y       z     vdW  Elec       q    Type
REMARK                         _______ _______ _______ _____ _____    ______ ____
ROOT
ATOM      1  F   UNL     1      34.087 -19.199 -25.405  0.00  0.00    -0.207 F 
ATOM      2  N   UNL     1      35.293 -16.004 -21.258  0.00  0.00    -0.193 N 
ATOM      3  N   UNL     1      35.346 -16.809 -20.182  0.00  0.00    -0.168 NA
ATOM      4  N   UNL     1      34.875 -16.110 -23.639  0.00  0.00    -0.251 NA
ATOM      5  C   UNL     1      34.840 -17.993 -22.074  0.00  0.00    +0.133 C 
ATOM      6  C   UNL     1      34.994 -16.659 -22.417  0.00  0.00    +0.133 C 
ATOM      7  C   UNL     1      35.070 -18.018 -20.684  0.00  0.00    +0.172 C 
ATOM      8  C   UNL     1      34.524 -18.900 -23.092  0.00  0.00    +0.015 C 
ATOM      9  C   UNL     1      34.388 -18.389 -24.383  0.00  0.00    +0.139 C 
ATOM     10  C   UNL     1      34.569 -17.025 -24.589  0.00  0.00    +0.182 C 
ENDROOT
BRANCH   7  14
ATOM     11  N   UNL     1      33.827 -19.736 -19.623  0.00  0.00    -0.326 NA
ATOM     12  N   UNL     1      36.207 -19.563 -19.291  0.00  0.00    -0.326 NA
ATOM     13  N   UNL     1      32.590 -21.454 -18.561  0.00  0.00    -0.334 N 
ATOM     14  C   UNL     1      35.033 -19.169 -19.818  0.00  0.00    +0.156 C 
ATOM     15  C   UNL     1      34.963 -21.313 -18.203  0.00  0.00    +0.210 C 
ATOM     16  C   UNL     1      33.829 -20.810 -18.807  0.00  0.00    +0.193 C 
ATOM     17  C   UNL     1      36.136 -20.642 -18.484  0.00  0.00    +0.193 C 
ATOM     18  H   UNL     1      31.767 -21.114 -18.980  0.00  0.00    +0.144 HD
ATOM     19  H   UNL     1      32.553 -22.242 -17.972  0.00  0.00    +0.144 HD
ATOM     20  N   UNL     1      37.339 -21.105 -17.895  0.00  0.00    -0.334 N 
ATOM     21  H   UNL     1      38.188 -20.643 -18.081  0.00  0.00    +0.144 HD
ATOM     22  H   UNL     1      37.325 -21.890 -17.300  0.00  0.00    +0.144 HD
BRANCH  15  24
ATOM     23  O   UNL     1      35.669 -21.599 -15.296  0.00  0.00    -0.226 OA
ATOM     24  N   UNL     1      34.927 -22.426 -17.360  0.00  0.00    -0.258 N 
ATOM     25  C   UNL     1      35.266 -22.507 -16.013  0.00  0.00    +0.402 C 
ATOM     26  H   UNL     1      34.621 -23.266 -17.774  0.00  0.00    +0.154 HD
BRANCH  25  27
ATOM     27  O   UNL     1      35.081 -23.791 -15.577  0.00  0.00    -0.431 OA
ATOM     28  C   UNL     1      35.899 -24.204 -14.475  0.00  0.00    +0.257 C 
ENDBRANCH  25  27
ENDBRANCH  15  24
ENDBRANCH   7  14
BRANCH   2  29
ATOM     29  C   UNL     1      35.543 -14.590 -21.103  0.00  0.00    +0.146 C 
BRANCH  29  31
ATOM     30  F   UNL     1      34.777 -12.604 -22.974  0.00  0.00    -0.204 F 
ATOM     31  C   UNL     1      34.283 -13.773 -20.967  0.00  0.00    +0.027 C 
ATOM     32  C   UNL     1      33.966 -12.810 -21.926  0.00  0.00    +0.138 C 
ATOM     33  C   UNL     1      33.433 -13.980 -19.880  0.00  0.00    -0.000 C 
ATOM     34  C   UNL     1      32.801 -12.055 -21.798  0.00  0.00    +0.029 C 
ATOM     35  C   UNL     1      32.267 -13.224 -19.753  0.00  0.00    -0.000 C 
ATOM     36  C   UNL     1      31.951 -12.262 -20.711  0.00  0.00    +0.002 C 
ENDBRANCH  29  31
ENDBRANCH   2  29
TORSDOF 5
ENDMDL
MODEL 6
REMARK VINA RESULT:     -10.0      9.104     14.190
REMARK  Name = 54674461
REMARK  5 active torsions:
REMARK  status: ('A' for Active; 'I' for Inactive)
REMARK    1  A    between atoms: N_2  and  C_29
REMARK    2  A    between atoms: C_7  and  C_14
REMARK    3  A    between atoms: C_15  and  N_21
REMARK    4  A    between atoms: C_22  and  O_24
REMARK    5  A    between atoms: C_29  and  C_31
REMARK                            x       y       z     vdW  Elec       q    Type
REMARK                         _______ _______ _______ _____ _____    ______ ____
ROOT
ATOM      1  F   UNL     1      36.479  -8.699 -25.818  0.00  0.00    -0.207 F 
ATOM      2  N   UNL     1      32.490  -9.622 -22.341  0.00  0.00    -0.193 N 
ATOM      3  N   UNL     1      32.620 -10.908 -21.970  0.00  0.00    -0.168 NA
ATOM      4  N   UNL     1      33.547  -7.985 -23.775  0.00  0.00    -0.251 NA
ATOM      5  C   UNL     1      34.245 -10.312 -23.467  0.00  0.00    +0.133 C 
ATOM      6  C   UNL     1      33.435  -9.212 -23.235  0.00  0.00    +0.133 C 
ATOM      7  C   UNL     1      33.690 -11.323 -22.657  0.00  0.00    +0.172 C 
ATOM      8  C   UNL     1      35.312 -10.164 -24.361  0.00  0.00    +0.015 C 
ATOM      9  C   UNL     1      35.480  -8.913 -24.954  0.00  0.00    +0.139 C 
ATOM     10  C   UNL     1      34.592  -7.892 -24.632  0.00  0.00    +0.182 C 
ENDROOT
BRANCH   7  14
ATOM     11  N   UNL     1      34.326 -13.135 -21.267  0.00  0.00    -0.326 NA
ATOM     12  N   UNL     1      34.373 -13.357 -23.666  0.00  0.00    -0.326 NA
ATOM     13  N   UNL     1      34.963 -14.948 -19.883  0.00  0.00    -0.334 N 
ATOM     14  C   UNL     1      34.155 -12.680 -22.523  0.00  0.00    +0.156 C 
ATOM     15  C   UNL     1      35.025 -15.208 -22.271  0.00  0.00    +0.210 C 
ATOM     16  C   UNL     1      34.763 -14.408 -21.178  0.00  0.00    +0.193 C 
ATOM     17  C   UNL     1      34.809 -14.624 -23.503  0.00  0.00    +0.193 C 
ATOM     18  H   UNL     1      34.783 -14.397 -19.087  0.00  0.00    +0.144 HD
ATOM     19  H   UNL     1      35.280 -15.874 -19.779  0.00  0.00    +0.144 HD
ATOM     20  N   UNL     1      35.059 -15.390 -24.669  0.00  0.00    -0.334 N 
ATOM     21  H   UNL     1      34.913 -14.994 -25.558  0.00  0.00    +0.144 HD
ATOM     22  H   UNL     1      35.380 -16.317 -24.589  0.00  0.00    +0.144 HD
BRANCH  15  24
ATOM     23  O   UNL     1      34.053 -17.756 -23.533  0.00  0.00    -0.226 OA
ATOM     24  N   UNL     1      35.480 -16.522 -22.142  0.00  0.00    -0.258 N 
ATOM     25  C   UNL     1      34.993 -17.674 -22.751  0.00  0.00    +0.402 C 
ATOM     26  H   UNL     1      36.248 -16.651 -21.539  0.00  0.00    +0.154 HD
BRANCH  25  27
ATOM     27  O   UNL     1      35.735 -18.749 -22.345  0.00  0.00    -0.431 OA
ATOM     28  C   UNL     1      35.662 -19.073 -20.951  0.00  0.00    +0.257 C 
ENDBRANCH  25  27
ENDBRANCH  15  24
ENDBRANCH   7  14
BRANCH   2  29
ATOM     29  C   UNL     1      31.417  -8.828 -21.790  0.00  0.00    +0.146 C 
BRANCH  29  31
ATOM     30  F   UNL     1      32.438  -9.364 -19.201  0.00  0.00    -0.204 F 
ATOM     31  C   UNL     1      31.894  -7.747 -20.853  0.00  0.00    +0.027 C 
ATOM     32  C   UNL     1      32.386  -8.082 -19.591  0.00  0.00    +0.138 C 
ATOM     33  C   UNL     1      31.844  -6.410 -21.249  0.00  0.00    -0.000 C 
ATOM     34  C   UNL     1      32.827  -7.081 -18.726  0.00  0.00    +0.029 C 
ATOM     35  C   UNL     1      32.285  -5.409 -20.383  0.00  0.00    -0.000 C 
ATOM     36  C   UNL     1      32.776  -5.744 -19.122  0.00  0.00    +0.002 C 
ENDBRANCH  29  31
ENDBRANCH   2  29
TORSDOF 5
ENDMDL
MODEL 7
REMARK VINA RESULT:     -10.0      9.379     14.461
REMARK  Name = 54674461
REMARK  5 active torsions:
REMARK  status: ('A' for Active; 'I' for Inactive)
REMARK    1  A    between atoms: N_2  and  C_29
REMARK    2  A    between atoms: C_7  and  C_14
REMARK    3  A    between atoms: C_15  and  N_21
REMARK    4  A    between atoms: C_22  and  O_24
REMARK    5  A    between atoms: C_29  and  C_31
REMARK                            x       y       z     vdW  Elec       q    Type
REMARK                         _______ _______ _______ _____ _____    ______ ____
ROOT
ATOM      1  F   UNL     1      36.488  -8.658 -25.804  0.00  0.00    -0.207 F 
ATOM      2  N   UNL     1      32.488  -9.585 -22.340  0.00  0.00    -0.193 N 
ATOM      3  N   UNL     1      32.616 -10.873 -21.973  0.00  0.00    -0.168 NA
ATOM      4  N   UNL     1      33.552  -7.946 -23.766  0.00  0.00    -0.251 NA
ATOM      5  C   UNL     1      34.245 -10.275 -23.463  0.00  0.00    +0.133 C 
ATOM      6  C   UNL     1      33.436  -9.174 -23.230  0.00  0.00    +0.133 C 
ATOM      7  C   UNL     1      33.686 -11.288 -22.659  0.00  0.00    +0.172 C 
ATOM      8  C   UNL     1      35.315 -10.127 -24.354  0.00  0.00    +0.015 C 
ATOM      9  C   UNL     1      35.486  -8.873 -24.943  0.00  0.00    +0.139 C 
ATOM     10  C   UNL     1      34.599  -7.852 -24.620  0.00  0.00    +0.182 C 
ENDROOT
BRANCH   7  14
ATOM     11  N   UNL     1      34.316 -13.105 -21.272  0.00  0.00    -0.326 NA
ATOM     12  N   UNL     1      34.369 -13.320 -23.672  0.00  0.00    -0.326 NA
ATOM     13  N   UNL     1      34.945 -14.924 -19.892  0.00  0.00    -0.334 N 
ATOM     14  C   UNL     1      34.149 -12.646 -22.527  0.00  0.00    +0.156 C 
ATOM     15  C   UNL     1      35.014 -15.176 -22.281  0.00  0.00    +0.210 C 
ATOM     16  C   UNL     1      34.750 -14.379 -21.186  0.00  0.00    +0.193 C 
ATOM     17  C   UNL     1      34.803 -14.588 -23.512  0.00  0.00    +0.193 C 
ATOM     18  H   UNL     1      34.764 -14.375 -19.095  0.00  0.00    +0.144 HD
ATOM     19  H   UNL     1      35.260 -15.851 -19.790  0.00  0.00    +0.144 HD
ATOM     20  N   UNL     1      35.055 -15.350 -24.679  0.00  0.00    -0.334 N 
ATOM     21  H   UNL     1      34.913 -14.951 -25.568  0.00  0.00    +0.144 HD
ATOM     22  H   UNL     1      35.375 -16.278 -24.601  0.00  0.00    +0.144 HD
BRANCH  15  24
ATOM     23  O   UNL     1      34.053 -17.716 -23.567  0.00  0.00    -0.226 OA
ATOM     24  N   UNL     1      35.466 -16.491 -22.154  0.00  0.00    -0.258 N 
ATOM     25  C   UNL     1      34.984 -17.639 -22.775  0.00  0.00    +0.402 C 
ATOM     26  H   UNL     1      36.228 -16.624 -21.544  0.00  0.00    +0.154 HD
BRANCH  25  27
ATOM     27  O   UNL     1      35.721 -18.717 -22.367  0.00  0.00    -0.431 OA
ATOM     28  C   UNL     1      35.642 -19.043 -20.974  0.00  0.00    +0.257 C 
ENDBRANCH  25  27
ENDBRANCH  15  24
ENDBRANCH   7  14
BRANCH   2  29
ATOM     29  C   UNL     1      31.415  -8.791 -21.790  0.00  0.00    +0.146 C 
BRANCH  29  31
ATOM     30  F   UNL     1      31.043  -6.057 -22.435  0.00  0.00    -0.204 F 
ATOM     31  C   UNL     1      31.896  -7.665 -20.910  0.00  0.00    +0.027 C 
ATOM     32  C   UNL     1      31.679  -6.339 -21.289  0.00  0.00    +0.138 C 
ATOM     33  C   UNL     1      32.559  -7.948 -19.716  0.00  0.00    -0.000 C 
ATOM     34  C   UNL     1      32.125  -5.299 -20.474  0.00  0.00    +0.029 C 
ATOM     35  C   UNL     1      33.005  -6.908 -18.901  0.00  0.00    -0.000 C 
ATOM     36  C   UNL     1      32.789  -5.583 -19.280  0.00  0.00    +0.002 C 
ENDBRANCH  29  31
ENDBRANCH   2  29
TORSDOF 5
ENDMDL
MODEL 8
REMARK VINA RESULT:     -10.0      9.125     14.207
REMARK  Name = 54674461
REMARK  5 active torsions:
REMARK  status: ('A' for Active; 'I' for Inactive)
REMARK    1  A    between atoms: N_2  and  C_29
REMARK    2  A    between atoms: C_7  and  C_14
REMARK    3  A    between atoms: C_15  and  N_21
REMARK    4  A    between atoms: C_22  and  O_24
REMARK    5  A    between atoms: C_29  and  C_31
REMARK                            x       y       z     vdW  Elec       q    Type
REMARK                         _______ _______ _______ _____ _____    ______ ____
ROOT
ATOM      1  F   UNL     1      36.486  -8.656 -25.832  0.00  0.00    -0.207 F 
ATOM      2  N   UNL     1      32.489  -9.596 -22.369  0.00  0.00    -0.193 N 
ATOM      3  N   UNL     1      32.617 -10.885 -22.007  0.00  0.00    -0.168 NA
ATOM      4  N   UNL     1      33.551  -7.951 -23.790  0.00  0.00    -0.251 NA
ATOM      5  C   UNL     1      34.245 -10.281 -23.496  0.00  0.00    +0.133 C 
ATOM      6  C   UNL     1      33.436  -9.181 -23.259  0.00  0.00    +0.133 C 
ATOM      7  C   UNL     1      33.687 -11.297 -22.695  0.00  0.00    +0.172 C 
ATOM      8  C   UNL     1      35.314 -10.129 -24.387  0.00  0.00    +0.015 C 
ATOM      9  C   UNL     1      35.485  -8.874 -24.972  0.00  0.00    +0.139 C 
ATOM     10  C   UNL     1      34.598  -7.854 -24.644  0.00  0.00    +0.182 C 
ENDROOT
BRANCH   7  14
ATOM     11  N   UNL     1      34.345 -13.334 -23.716  0.00  0.00    -0.326 NA
ATOM     12  N   UNL     1      34.339 -13.112 -21.316  0.00  0.00    -0.326 NA
ATOM     13  N   UNL     1      35.003 -15.370 -24.730  0.00  0.00    -0.334 N 
ATOM     14  C   UNL     1      34.150 -12.656 -22.568  0.00  0.00    +0.156 C 
ATOM     15  C   UNL     1      35.009 -15.188 -22.333  0.00  0.00    +0.210 C 
ATOM     16  C   UNL     1      34.776 -14.602 -23.560  0.00  0.00    +0.193 C 
ATOM     17  C   UNL     1      34.771 -14.388 -21.234  0.00  0.00    +0.193 C 
ATOM     18  H   UNL     1      34.844 -14.973 -25.617  0.00  0.00    +0.144 HD
ATOM     19  H   UNL     1      35.319 -16.299 -24.655  0.00  0.00    +0.144 HD
ATOM     20  N   UNL     1      34.988 -14.928 -19.942  0.00  0.00    -0.334 N 
ATOM     21  H   UNL     1      34.825 -14.376 -19.144  0.00  0.00    +0.144 HD
ATOM     22  H   UNL     1      35.302 -15.857 -19.844  0.00  0.00    +0.144 HD
BRANCH  15  24
ATOM     23  O   UNL     1      34.003 -17.725 -23.592  0.00  0.00    -0.226 OA
ATOM     24  N   UNL     1      35.453 -16.507 -22.209  0.00  0.00    -0.258 N 
ATOM     25  C   UNL     1      34.950 -17.653 -22.818  0.00  0.00    +0.402 C 
ATOM     26  H   UNL     1      36.224 -16.644 -21.613  0.00  0.00    +0.154 HD
BRANCH  25  27
ATOM     27  O   UNL     1      35.685 -18.736 -22.419  0.00  0.00    -0.431 OA
ATOM     28  C   UNL     1      35.572 -19.099 -21.038  0.00  0.00    +0.257 C 
ENDBRANCH  25  27
ENDBRANCH  15  24
ENDBRANCH   7  14
BRANCH   2  29
ATOM     29  C   UNL     1      31.416  -8.804 -21.816  0.00  0.00    +0.146 C 
BRANCH  29  31
ATOM     30  F   UNL     1      32.450  -9.375 -19.239  0.00  0.00    -0.204 F 
ATOM     31  C   UNL     1      31.892  -7.735 -20.864  0.00  0.00    +0.027 C 
ATOM     32  C   UNL     1      32.390  -8.088 -19.609  0.00  0.00    +0.138 C 
ATOM     33  C   UNL     1      31.835  -6.393 -21.239  0.00  0.00    -0.000 C 
ATOM     34  C   UNL     1      32.831  -7.099 -18.730  0.00  0.00    +0.029 C 
ATOM     35  C   UNL     1      32.275  -5.403 -20.359  0.00  0.00    -0.000 C 
ATOM     36  C   UNL     1      32.773  -5.756 -19.105  0.00  0.00    +0.002 C 
ENDBRANCH  29  31
ENDBRANCH   2  29
TORSDOF 5
ENDMDL
MODEL 9
REMARK VINA RESULT:      -9.9      9.615     13.864
REMARK  Name = 54674461
REMARK  5 active torsions:
REMARK  status: ('A' for Active; 'I' for Inactive)
REMARK    1  A    between atoms: N_2  and  C_29
REMARK    2  A    between atoms: C_7  and  C_14
REMARK    3  A    between atoms: C_15  and  N_21
REMARK    4  A    between atoms: C_22  and  O_24
REMARK    5  A    between atoms: C_29  and  C_31
REMARK                            x       y       z     vdW  Elec       q    Type
REMARK                         _______ _______ _______ _____ _____    ______ ____
ROOT
ATOM      1  F   UNL     1      36.542  -8.405 -26.339  0.00  0.00    -0.207 F 
ATOM      2  N   UNL     1      33.029  -9.321 -22.379  0.00  0.00    -0.193 N 
ATOM      3  N   UNL     1      32.985 -10.658 -22.233  0.00  0.00    -0.168 NA
ATOM      4  N   UNL     1      34.127  -7.634 -23.720  0.00  0.00    -0.251 NA
ATOM      5  C   UNL     1      34.443 -10.056 -23.891  0.00  0.00    +0.133 C 
ATOM      6  C   UNL     1      33.884  -8.905 -23.357  0.00  0.00    +0.133 C 
ATOM      7  C   UNL     1      33.848 -11.100 -23.155  0.00  0.00    +0.172 C 
ATOM      8  C   UNL     1      35.370  -9.914 -24.930  0.00  0.00    +0.015 C 
ATOM      9  C   UNL     1      35.664  -8.616 -25.351  0.00  0.00    +0.139 C 
ATOM     10  C   UNL     1      35.029  -7.547 -24.727  0.00  0.00    +0.182 C 
ENDROOT
BRANCH   7  14
ATOM     11  N   UNL     1      33.830 -13.035 -24.524  0.00  0.00    -0.326 NA
ATOM     12  N   UNL     1      34.526 -13.171 -22.221  0.00  0.00    -0.326 NA
ATOM     13  N   UNL     1      33.814 -14.972 -25.888  0.00  0.00    -0.334 N 
ATOM     14  C   UNL     1      34.081 -12.513 -23.309  0.00  0.00    +0.156 C 
ATOM     15  C   UNL     1      34.513 -15.148 -23.595  0.00  0.00    +0.210 C 
ATOM     16  C   UNL     1      34.057 -14.360 -24.633  0.00  0.00    +0.193 C 
ATOM     17  C   UNL     1      34.732 -14.493 -22.400  0.00  0.00    +0.193 C 
ATOM     18  H   UNL     1      33.488 -14.430 -26.644  0.00  0.00    +0.144 HD
ATOM     19  H   UNL     1      33.970 -15.936 -26.005  0.00  0.00    +0.144 HD
ATOM     20  N   UNL     1      35.199 -15.242 -21.292  0.00  0.00    -0.334 N 
ATOM     21  H   UNL     1      35.362 -14.797 -20.430  0.00  0.00    +0.144 HD
ATOM     22  H   UNL     1      35.359 -16.210 -21.385  0.00  0.00    +0.144 HD
BRANCH  15  24
ATOM     23  O   UNL     1      32.859 -17.272 -24.929  0.00  0.00    -0.226 OA
ATOM     24  N   UNL     1      34.735 -16.519 -23.742  0.00  0.00    -0.258 N 
ATOM     25  C   UNL     1      33.933 -17.465 -24.373  0.00  0.00    +0.402 C 
ATOM     26  H   UNL     1      35.570 -16.861 -23.348  0.00  0.00    +0.154 HD
BRANCH  25  27
ATOM     27  O   UNL     1      34.530 -18.694 -24.285  0.00  0.00    -0.431 OA
ATOM     28  C   UNL     1      35.373 -18.903 -23.146  0.00  0.00    +0.257 C 
ENDBRANCH  25  27
ENDBRANCH  15  24
ENDBRANCH   7  14
BRANCH   2  29
ATOM     29  C   UNL     1      32.209  -8.486 -21.534  0.00  0.00    +0.146 C 
BRANCH  29  31
ATOM     30  F   UNL     1      33.429  -7.685 -19.104  0.00  0.00    -0.204 F 
ATOM     31  C   UNL     1      31.886  -9.117 -20.203  0.00  0.00    +0.027 C 
ATOM     32  C   UNL     1      32.525  -8.673 -19.044  0.00  0.00    +0.138 C 
ATOM     33  C   UNL     1      30.948 -10.146 -20.130  0.00  0.00    -0.000 C 
ATOM     34  C   UNL     1      32.225  -9.258 -17.814  0.00  0.00    +0.029 C 
ATOM     35  C   UNL     1      30.648 -10.732 -18.899  0.00  0.00    -0.000 C 
ATOM     36  C   UNL     1      31.287 -10.288 -17.742  0.00  0.00    +0.002 C 
ENDBRANCH  29  31
ENDBRANCH   2  29
TORSDOF 5
ENDMDL
