MODEL 1
REMARK VINA RESULT:     -12.2      0.000      0.000
REMARK  Name = 5327153
REMARK  6 active torsions:
REMARK  status: ('A' for Active; 'I' for Inactive)
REMARK    1  A    between atoms: C_3  and  C_15
REMARK    2  A    between atoms: C_10  and  O_24
REMARK    3  A    between atoms: C_11  and  N_18
REMARK    4  A    between atoms: N_18  and  S_20
REMARK    5  A    between atoms: O_24  and  C_25
REMARK    6  A    between atoms: C_25  and  C_26
REMARK                            x       y       z     vdW  Elec       q    Type
REMARK                         _______ _______ _______ _____ _____    ______ ____
ROOT
ATOM      1  O   UNL     1      37.432 -21.460 -15.709  0.00  0.00    -0.226 OA
ATOM      2  N   UNL     1      35.324 -22.419 -15.437  0.00  0.00    -0.235 N 
ATOM      3  C   UNL     1      35.626 -22.956 -14.110  0.00  0.00    +0.159 C 
ATOM      4  C   UNL     1      34.480 -22.755 -13.123  0.00  0.00    +0.055 C 
ATOM      5  C   UNL     1      34.030 -22.757 -16.048  0.00  0.00    +0.124 C 
ATOM      6  C   UNL     1      33.135 -23.113 -13.697  0.00  0.00    -0.022 C 
ATOM      7  C   UNL     1      32.924 -23.094 -15.083  0.00  0.00    -0.005 C 
ATOM      8  C   UNL     1      31.654 -23.408 -15.588  0.00  0.00    +0.013 C 
ATOM      9  C   UNL     1      32.070 -23.418 -12.836  0.00  0.00    -0.003 C 
ATOM     10  C   UNL     1      36.332 -21.767 -16.166  0.00  0.00    +0.406 C 
ATOM     11  C   UNL     1      30.604 -23.723 -14.726  0.00  0.00    +0.065 C 
ATOM     12  C   UNL     1      30.812 -23.726 -13.350  0.00  0.00    +0.016 C 
ENDROOT
BRANCH   3  15
ATOM     13  O   UNL     1      35.638 -25.033 -15.294  0.00  0.00    -0.273 OA
ATOM     14  N   UNL     1      36.700 -24.908 -13.226  0.00  0.00    -0.301 N 
ATOM     15  C   UNL     1      35.982 -24.404 -14.297  0.00  0.00    +0.241 C 
ATOM     16  C   UNL     1      37.144 -26.282 -13.150  0.00  0.00    +0.111 C 
ATOM     17  H   UNL     1      36.918 -24.303 -12.481  0.00  0.00    +0.150 HD
ENDBRANCH   3  15
BRANCH  11  18
ATOM     18  N   UNL     1      29.316 -24.038 -15.256  0.00  0.00    -0.213 N 
ATOM     19  H   UNL     1      28.952 -24.953 -15.221  0.00  0.00    +0.174 HD
BRANCH  18  20
ATOM     20  S   UNL     1      28.425 -22.732 -15.965  0.00  0.00    +0.091 S 
ATOM     21  O   UNL     1      27.652 -23.407 -17.233  0.00  0.00    -0.050 OA
ATOM     22  O   UNL     1      27.417 -22.286 -15.019  0.00  0.00    -0.050 OA
ATOM     23  O   UNL     1      29.382 -21.782 -16.503  0.00  0.00    -0.050 OA
ENDBRANCH  18  20
ENDBRANCH  11  18
BRANCH  10  24
ATOM     24  O   UNL     1      35.962 -21.513 -17.461  0.00  0.00    -0.430 OA
BRANCH  24  25
ATOM     25  C   UNL     1      36.932 -20.843 -18.274  0.00  0.00    +0.237 C 
BRANCH  25  26
ATOM     26  C   UNL     1      36.220 -20.012 -19.300  0.00  0.00    +0.021 C 
ATOM     27  C   UNL     1      36.925 -19.053 -20.018  0.00  0.00    -0.001 C 
ATOM     28  C   UNL     1      34.862 -20.208 -19.524  0.00  0.00    -0.001 C 
ATOM     29  C   UNL     1      36.264 -18.280 -20.972  0.00  0.00    -0.000 C 
ATOM     30  C   UNL     1      34.200 -19.435 -20.479  0.00  0.00    -0.000 C 
ATOM     31  C   UNL     1      34.901 -18.471 -21.203  0.00  0.00    -0.000 C 
ENDBRANCH  25  26
ENDBRANCH  24  25
ENDBRANCH  10  24
TORSDOF 6
ENDMDL
