MODEL 1
REMARK VINA RESULT:     -12.1      0.000      0.000
REMARK  Name = 72696796
REMARK  9 active torsions:
REMARK  status: ('A' for Active; 'I' for Inactive)
REMARK    1  A    between atoms: N_2  and  C_29
REMARK    2  A    between atoms: C_10  and  C_12
REMARK    3  A    between atoms: C_13  and  C_16
REMARK    4  A    between atoms: N_15  and  C_18
REMARK    5  A    between atoms: C_18  and  C_20
REMARK    6  A    between atoms: C_29  and  O_30
REMARK    7  A    between atoms: O_30  and  P_31
REMARK    8  A    between atoms: P_31  and  O_33
REMARK    9  A    between atoms: P_31  and  O_35
REMARK                            x       y       z     vdW  Elec       q    Type
REMARK                         _______ _______ _______ _____ _____    ______ ____
ROOT
ATOM      1  O   UNL     1      34.922 -22.874 -14.823  0.00  0.00    -0.274 OA
ATOM      2  N   UNL     1      35.693 -21.598 -16.612  0.00  0.00    -0.217 N 
ATOM      3  N   UNL     1      36.438 -20.368 -18.542  0.00  0.00    -0.229 NA
ATOM      4  C   UNL     1      33.038 -21.726 -17.640  0.00  0.00    +0.039 C 
ATOM      5  C   UNL     1      34.145 -21.096 -18.425  0.00  0.00    +0.010 C 
ATOM      6  C   UNL     1      33.584 -22.856 -16.791  0.00  0.00    +0.090 C 
ATOM      7  C   UNL     1      35.434 -21.014 -17.893  0.00  0.00    +0.135 C 
ATOM      8  C   UNL     1      34.774 -22.424 -15.961  0.00  0.00    +0.233 C 
ATOM      9  C   UNL     1      33.894 -20.496 -19.662  0.00  0.00    +0.000 C 
ATOM     10  C   UNL     1      34.917 -19.849 -20.342  0.00  0.00    +0.019 C 
ATOM     11  C   UNL     1      36.160 -19.813 -19.743  0.00  0.00    +0.100 C 
ENDROOT
BRANCH  10  12
ATOM     12  C   UNL     1      34.692 -19.245 -21.642  0.00  0.00    +0.006 C 
ATOM     13  C   UNL     1      35.041 -17.984 -21.990  0.00  0.00    +0.058 C 
BRANCH  13  16
ATOM     14  O   UNL     1      34.142 -18.187 -24.164  0.00  0.00    -0.270 OA
ATOM     15  N   UNL     1      35.102 -16.143 -23.611  0.00  0.00    -0.267 N 
ATOM     16  C   UNL     1      34.725 -17.464 -23.353  0.00  0.00    +0.250 C 
ATOM     17  C   UNL     1      34.800 -15.554 -24.909  0.00  0.00    +0.116 C 
BRANCH  15  18
ATOM     18  C   UNL     1      35.762 -15.256 -22.655  0.00  0.00    +0.158 C 
BRANCH  18  20
ATOM     19  O   UNL     1      34.170 -13.426 -22.574  0.00  0.00    -0.456 OA
ATOM     20  C   UNL     1      34.774 -14.428 -21.883  0.00  0.00    +0.139 A 
ATOM     21  C   UNL     1      34.327 -14.461 -20.583  0.00  0.00    +0.013 A 
ATOM     22  C   UNL     1      33.383 -13.409 -20.457  0.00  0.00    +0.033 A 
ATOM     23  C   UNL     1      33.324 -12.802 -21.707  0.00  0.00    +0.145 A 
ATOM     24  C   UNL     1      34.748 -15.406 -19.531  0.00  0.00    +0.034 C 
ATOM     25  C   UNL     1      32.575 -12.902 -19.425  0.00  0.00    +0.003 C 
ATOM     26  C   UNL     1      32.507 -11.715 -22.010  0.00  0.00    +0.037 C 
ATOM     27  C   UNL     1      31.742 -11.808 -19.699  0.00  0.00    +0.000 C 
ATOM     28  C   UNL     1      31.711 -11.227 -20.969  0.00  0.00    +0.003 C 
ENDBRANCH  18  20
ENDBRANCH  15  18
ENDBRANCH  13  16
ENDBRANCH  10  12
BRANCH   2  29
ATOM     29  C   UNL     1      36.976 -21.292 -15.987  0.00  0.00    +0.257 C 
BRANCH  29  30
ATOM     30  O   UNL     1      37.810 -22.433 -16.072  0.00  0.00    -0.251 OA
BRANCH  30  31
ATOM     31  P   UNL     1      38.183 -23.217 -14.706  0.00  0.00    +0.475 P 
ATOM     32  O   UNL     1      37.895 -22.474 -13.434  0.00  0.00    -0.227 OA
BRANCH  31  33
ATOM     33  O   UNL     1      39.732 -23.626 -14.925  0.00  0.00    -0.303 OA
ATOM     34  H   UNL     1      40.049 -24.117 -14.150  0.00  0.00    +0.222 HD
ENDBRANCH  31  33
BRANCH  31  35
ATOM     35  O   UNL     1      37.408 -24.631 -14.854  0.00  0.00    -0.303 OA
ATOM     36  H   UNL     1      38.039 -25.320 -15.112  0.00  0.00    +0.222 HD
ENDBRANCH  31  35
ENDBRANCH  30  31
ENDBRANCH  29  30
ENDBRANCH   2  29
TORSDOF 9
ENDMDL
MODEL 2
REMARK VINA RESULT:     -11.7      1.223      1.514
REMARK  Name = 72696796
REMARK  9 active torsions:
REMARK  status: ('A' for Active; 'I' for Inactive)
REMARK    1  A    between atoms: N_2  and  C_29
REMARK    2  A    between atoms: C_10  and  C_12
REMARK    3  A    between atoms: C_13  and  C_16
REMARK    4  A    between atoms: N_15  and  C_18
REMARK    5  A    between atoms: C_18  and  C_20
REMARK    6  A    between atoms: C_29  and  O_30
REMARK    7  A    between atoms: O_30  and  P_31
REMARK    8  A    between atoms: P_31  and  O_33
REMARK    9  A    between atoms: P_31  and  O_35
REMARK                            x       y       z     vdW  Elec       q    Type
REMARK                         _______ _______ _______ _____ _____    ______ ____
ROOT
ATOM      1  O   UNL     1      34.117 -23.615 -14.091  0.00  0.00    -0.274 OA
ATOM      2  N   UNL     1      35.183 -22.441 -15.797  0.00  0.00    -0.217 N 
ATOM      3  N   UNL     1      36.220 -21.301 -17.646  0.00  0.00    -0.229 NA
ATOM      4  C   UNL     1      32.593 -22.025 -16.912  0.00  0.00    +0.039 C 
ATOM      5  C   UNL     1      33.828 -21.587 -17.632  0.00  0.00    +0.010 C 
ATOM      6  C   UNL     1      32.884 -23.270 -16.098  0.00  0.00    +0.090 C 
ATOM      7  C   UNL     1      35.088 -21.770 -17.058  0.00  0.00    +0.135 C 
ATOM      8  C   UNL     1      34.101 -23.102 -15.212  0.00  0.00    +0.233 C 
ATOM      9  C   UNL     1      33.742 -20.904 -18.849  0.00  0.00    +0.000 C 
ATOM     10  C   UNL     1      34.894 -20.437 -19.467  0.00  0.00    +0.019 C 
ATOM     11  C   UNL     1      36.098 -20.658 -18.829  0.00  0.00    +0.100 C 
ENDROOT
BRANCH  10  12
ATOM     12  C   UNL     1      34.837 -19.752 -20.745  0.00  0.00    +0.006 C 
ATOM     13  C   UNL     1      35.175 -18.457 -20.955  0.00  0.00    +0.058 C 
BRANCH  13  16
ATOM     14  O   UNL     1      34.827 -18.582 -23.287  0.00  0.00    -0.270 OA
ATOM     15  N   UNL     1      35.145 -16.464 -22.385  0.00  0.00    -0.267 N 
ATOM     16  C   UNL     1      35.041 -17.856 -22.315  0.00  0.00    +0.250 C 
ATOM     17  C   UNL     1      34.995 -15.799 -23.673  0.00  0.00    +0.116 C 
BRANCH  15  18
ATOM     18  C   UNL     1      35.364 -15.579 -21.242  0.00  0.00    +0.158 C 
BRANCH  18  20
ATOM     19  O   UNL     1      35.047 -13.466 -22.393  0.00  0.00    -0.456 OA
ATOM     20  C   UNL     1      34.625 -14.279 -21.390  0.00  0.00    +0.139 A 
ATOM     21  C   UNL     1      33.575 -13.709 -20.709  0.00  0.00    +0.013 A 
ATOM     22  C   UNL     1      33.328 -12.456 -21.330  0.00  0.00    +0.033 A 
ATOM     23  C   UNL     1      34.260 -12.354 -22.358  0.00  0.00    +0.145 A 
ATOM     24  C   UNL     1      32.851 -14.287 -19.561  0.00  0.00    +0.034 C 
ATOM     25  C   UNL     1      32.423 -11.399 -21.136  0.00  0.00    +0.003 C 
ATOM     26  C   UNL     1      34.356 -11.263 -23.219  0.00  0.00    +0.037 C 
ATOM     27  C   UNL     1      32.495 -10.287 -21.987  0.00  0.00    +0.000 C 
ATOM     28  C   UNL     1      33.446 -10.222 -23.009  0.00  0.00    +0.003 C 
ENDBRANCH  18  20
ENDBRANCH  15  18
ENDBRANCH  13  16
ENDBRANCH  10  12
BRANCH   2  29
ATOM     29  C   UNL     1      36.475 -22.407 -15.120  0.00  0.00    +0.257 C 
BRANCH  29  30
ATOM     30  O   UNL     1      37.116 -23.657 -15.295  0.00  0.00    -0.251 OA
BRANCH  30  31
ATOM     31  P   UNL     1      37.787 -24.366 -14.004  0.00  0.00    +0.475 P 
ATOM     32  O   UNL     1      38.477 -23.441 -13.044  0.00  0.00    -0.227 OA
BRANCH  31  33
ATOM     33  O   UNL     1      38.732 -25.504 -14.656  0.00  0.00    -0.303 OA
ATOM     34  H   UNL     1      39.109 -26.055 -13.951  0.00  0.00    +0.222 HD
ENDBRANCH  31  33
BRANCH  31  35
ATOM     35  O   UNL     1      36.572 -25.222 -13.364  0.00  0.00    -0.303 OA
ATOM     36  H   UNL     1      35.734 -24.942 -13.763  0.00  0.00    +0.222 HD
ENDBRANCH  31  35
ENDBRANCH  30  31
ENDBRANCH  29  30
ENDBRANCH   2  29
TORSDOF 9
ENDMDL
MODEL 3
REMARK VINA RESULT:     -11.6      1.637      2.756
REMARK  Name = 72696796
REMARK  9 active torsions:
REMARK  status: ('A' for Active; 'I' for Inactive)
REMARK    1  A    between atoms: N_2  and  C_29
REMARK    2  A    between atoms: C_10  and  C_12
REMARK    3  A    between atoms: C_13  and  C_16
REMARK    4  A    between atoms: N_15  and  C_18
REMARK    5  A    between atoms: C_18  and  C_20
REMARK    6  A    between atoms: C_29  and  O_30
REMARK    7  A    between atoms: O_30  and  P_31
REMARK    8  A    between atoms: P_31  and  O_33
REMARK    9  A    between atoms: P_31  and  O_35
REMARK                            x       y       z     vdW  Elec       q    Type
REMARK                         _______ _______ _______ _____ _____    ______ ____
ROOT
ATOM      1  O   UNL     1      35.955 -22.781 -15.345  0.00  0.00    -0.274 OA
ATOM      2  N   UNL     1      34.563 -22.025 -17.054  0.00  0.00    -0.217 N 
ATOM      3  N   UNL     1      33.175 -21.124 -18.801  0.00  0.00    -0.229 NA
ATOM      4  C   UNL     1      36.894 -20.881 -18.229  0.00  0.00    +0.039 C 
ATOM      5  C   UNL     1      35.536 -20.649 -18.812  0.00  0.00    +0.010 C 
ATOM      6  C   UNL     1      36.791 -21.031 -16.724  0.00  0.00    +0.090 C 
ATOM      7  C   UNL     1      34.408 -21.242 -18.242  0.00  0.00    +0.135 C 
ATOM      8  C   UNL     1      35.752 -22.056 -16.321  0.00  0.00    +0.233 C 
ATOM      9  C   UNL     1      35.380 -19.911 -19.989  0.00  0.00    +0.000 C 
ATOM     10  C   UNL     1      34.122 -19.769 -20.559  0.00  0.00    +0.019 C 
ATOM     11  C   UNL     1      33.061 -20.391 -19.931  0.00  0.00    +0.100 C 
ENDROOT
BRANCH  10  12
ATOM     12  C   UNL     1      33.926 -18.984 -21.763  0.00  0.00    +0.006 C 
ATOM     13  C   UNL     1      34.915 -18.496 -22.549  0.00  0.00    +0.058 C 
BRANCH  13  16
ATOM     14  O   UNL     1      33.979 -18.179 -24.694  0.00  0.00    -0.270 OA
ATOM     15  N   UNL     1      34.978 -16.330 -23.700  0.00  0.00    -0.267 N 
ATOM     16  C   UNL     1      34.585 -17.671 -23.748  0.00  0.00    +0.250 C 
ATOM     17  C   UNL     1      34.664 -15.452 -24.820  0.00  0.00    +0.116 C 
BRANCH  15  18
ATOM     18  C   UNL     1      35.666 -15.697 -22.577  0.00  0.00    +0.158 C 
BRANCH  18  20
ATOM     19  O   UNL     1      34.196 -13.766 -22.589  0.00  0.00    -0.456 OA
ATOM     20  C   UNL     1      34.772 -14.741 -21.839  0.00  0.00    +0.139 A 
ATOM     21  C   UNL     1      34.393 -14.630 -20.521  0.00  0.00    +0.013 A 
ATOM     22  C   UNL     1      33.523 -13.511 -20.447  0.00  0.00    +0.033 A 
ATOM     23  C   UNL     1      33.435 -13.015 -21.744  0.00  0.00    +0.145 A 
ATOM     24  C   UNL     1      34.810 -15.505 -19.408  0.00  0.00    +0.034 C 
ATOM     25  C   UNL     1      32.802 -12.864 -19.429  0.00  0.00    +0.003 C 
ATOM     26  C   UNL     1      32.671 -11.907 -22.105  0.00  0.00    +0.037 C 
ATOM     27  C   UNL     1      32.024 -11.746 -19.762  0.00  0.00    +0.000 C 
ATOM     28  C   UNL     1      31.962 -11.278 -21.077  0.00  0.00    +0.003 C 
ENDBRANCH  18  20
ENDBRANCH  15  18
ENDBRANCH  13  16
ENDBRANCH  10  12
BRANCH   2  29
ATOM     29  C   UNL     1      33.415 -22.816 -16.622  0.00  0.00    +0.257 C 
BRANCH  29  30
ATOM     30  O   UNL     1      32.872 -22.234 -15.452  0.00  0.00    -0.251 OA
BRANCH  30  31
ATOM     31  P   UNL     1      32.452 -23.210 -14.230  0.00  0.00    +0.475 P 
ATOM     32  O   UNL     1      31.136 -23.915 -14.389  0.00  0.00    -0.227 OA
BRANCH  31  33
ATOM     33  O   UNL     1      32.561 -22.249 -12.934  0.00  0.00    -0.303 OA
ATOM     34  H   UNL     1      33.493 -22.040 -12.764  0.00  0.00    +0.222 HD
ENDBRANCH  31  33
BRANCH  31  35
ATOM     35  O   UNL     1      33.729 -24.190 -14.067  0.00  0.00    -0.303 OA
ATOM     36  H   UNL     1      33.471 -25.097 -14.290  0.00  0.00    +0.222 HD
ENDBRANCH  31  35
ENDBRANCH  30  31
ENDBRANCH  29  30
ENDBRANCH   2  29
TORSDOF 9
ENDMDL
MODEL 4
REMARK VINA RESULT:     -11.4      3.949      5.905
REMARK  Name = 72696796
REMARK  9 active torsions:
REMARK  status: ('A' for Active; 'I' for Inactive)
REMARK    1  A    between atoms: N_2  and  C_29
REMARK    2  A    between atoms: C_10  and  C_12
REMARK    3  A    between atoms: C_13  and  C_16
REMARK    4  A    between atoms: N_15  and  C_18
REMARK    5  A    between atoms: C_18  and  C_20
REMARK    6  A    between atoms: C_29  and  O_30
REMARK    7  A    between atoms: O_30  and  P_31
REMARK    8  A    between atoms: P_31  and  O_33
REMARK    9  A    between atoms: P_31  and  O_35
REMARK                            x       y       z     vdW  Elec       q    Type
REMARK                         _______ _______ _______ _____ _____    ______ ____
ROOT
ATOM      1  O   UNL     1      30.309 -23.696 -13.203  0.00  0.00    -0.274 OA
ATOM      2  N   UNL     1      31.129 -22.938 -15.248  0.00  0.00    -0.217 N 
ATOM      3  N   UNL     1      32.045 -22.065 -17.294  0.00  0.00    -0.229 NA
ATOM      4  C   UNL     1      33.731 -23.171 -14.108  0.00  0.00    +0.039 C 
ATOM      5  C   UNL     1      33.529 -22.585 -15.470  0.00  0.00    +0.010 C 
ATOM      6  C   UNL     1      32.537 -22.859 -13.229  0.00  0.00    +0.090 C 
ATOM      7  C   UNL     1      32.250 -22.507 -16.026  0.00  0.00    +0.135 C 
ATOM      8  C   UNL     1      31.227 -23.240 -13.887  0.00  0.00    +0.233 C 
ATOM      9  C   UNL     1      34.621 -22.191 -16.249  0.00  0.00    +0.000 C 
ATOM     10  C   UNL     1      34.421 -21.720 -17.539  0.00  0.00    +0.019 C 
ATOM     11  C   UNL     1      33.124 -21.679 -18.011  0.00  0.00    +0.100 C 
ENDROOT
BRANCH  10  12
ATOM     12  C   UNL     1      35.533 -21.275 -18.358  0.00  0.00    +0.006 C 
ATOM     13  C   UNL     1      35.542 -20.160 -19.126  0.00  0.00    +0.058 C 
BRANCH  13  16
ATOM     14  O   UNL     1      37.582 -20.693 -20.189  0.00  0.00    -0.270 OA
ATOM     15  N   UNL     1      36.805 -18.516 -20.438  0.00  0.00    -0.267 N 
ATOM     16  C   UNL     1      36.738 -19.825 -19.953  0.00  0.00    +0.250 C 
ATOM     17  C   UNL     1      37.929 -18.121 -21.278  0.00  0.00    +0.116 C 
BRANCH  15  18
ATOM     18  C   UNL     1      35.802 -17.480 -20.201  0.00  0.00    +0.158 C 
BRANCH  18  20
ATOM     19  O   UNL     1      35.219 -15.492 -21.463  0.00  0.00    -0.456 OA
ATOM     20  C   UNL     1      35.338 -16.845 -21.480  0.00  0.00    +0.139 A 
ATOM     21  C   UNL     1      34.995 -17.349 -22.713  0.00  0.00    +0.013 A 
ATOM     22  C   UNL     1      34.638 -16.234 -23.516  0.00  0.00    +0.033 A 
ATOM     23  C   UNL     1      34.791 -15.117 -22.702  0.00  0.00    +0.145 A 
ATOM     24  C   UNL     1      34.999 -18.768 -23.117  0.00  0.00    +0.034 C 
ATOM     25  C   UNL     1      34.201 -16.046 -24.839  0.00  0.00    +0.003 C 
ATOM     26  C   UNL     1      34.540 -13.810 -23.114  0.00  0.00    +0.037 C 
ATOM     27  C   UNL     1      33.940 -14.742 -25.283  0.00  0.00    +0.000 C 
ATOM     28  C   UNL     1      34.107 -13.646 -24.433  0.00  0.00    +0.003 C 
ENDBRANCH  18  20
ENDBRANCH  15  18
ENDBRANCH  13  16
ENDBRANCH  10  12
BRANCH   2  29
ATOM     29  C   UNL     1      29.848 -23.063 -15.935  0.00  0.00    +0.257 C 
BRANCH  29  30
ATOM     30  O   UNL     1      29.110 -21.870 -15.748  0.00  0.00    -0.251 OA
BRANCH  30  31
ATOM     31  P   UNL     1      27.554 -21.849 -16.195  0.00  0.00    +0.475 P 
ATOM     32  O   UNL     1      27.073 -20.563 -16.803  0.00  0.00    -0.227 OA
BRANCH  31  33
ATOM     33  O   UNL     1      26.777 -22.303 -14.853  0.00  0.00    -0.303 OA
ATOM     34  H   UNL     1      25.856 -21.998 -14.893  0.00  0.00    +0.222 HD
ENDBRANCH  31  33
BRANCH  31  35
ATOM     35  O   UNL     1      27.415 -23.145 -17.154  0.00  0.00    -0.303 OA
ATOM     36  H   UNL     1      26.489 -23.433 -17.177  0.00  0.00    +0.222 HD
ENDBRANCH  31  35
ENDBRANCH  30  31
ENDBRANCH  29  30
ENDBRANCH   2  29
TORSDOF 9
ENDMDL
MODEL 5
REMARK VINA RESULT:     -10.8      5.508     11.666
REMARK  Name = 72696796
REMARK  9 active torsions:
REMARK  status: ('A' for Active; 'I' for Inactive)
REMARK    1  A    between atoms: N_2  and  C_29
REMARK    2  A    between atoms: C_10  and  C_12
REMARK    3  A    between atoms: C_13  and  C_16
REMARK    4  A    between atoms: N_15  and  C_18
REMARK    5  A    between atoms: C_18  and  C_20
REMARK    6  A    between atoms: C_29  and  O_30
REMARK    7  A    between atoms: O_30  and  P_31
REMARK    8  A    between atoms: P_31  and  O_33
REMARK    9  A    between atoms: P_31  and  O_35
REMARK                            x       y       z     vdW  Elec       q    Type
REMARK                         _______ _______ _______ _____ _____    ______ ____
ROOT
ATOM      1  O   UNL     1      32.084  -7.050 -18.584  0.00  0.00    -0.274 OA
ATOM      2  N   UNL     1      32.617  -8.312 -20.469  0.00  0.00    -0.217 N 
ATOM      3  N   UNL     1      33.232  -9.698 -22.337  0.00  0.00    -0.229 NA
ATOM      4  C   UNL     1      31.620 -10.569 -19.041  0.00  0.00    +0.039 C 
ATOM      5  C   UNL     1      32.268 -10.721 -20.381  0.00  0.00    +0.010 C 
ATOM      6  C   UNL     1      32.244  -9.407 -18.295  0.00  0.00    +0.090 C 
ATOM      7  C   UNL     1      32.723  -9.601 -21.081  0.00  0.00    +0.135 C 
ATOM      8  C   UNL     1      32.271  -8.142 -19.126  0.00  0.00    +0.233 C 
ATOM      9  C   UNL     1      32.347 -11.973 -21.000  0.00  0.00    +0.000 C 
ATOM     10  C   UNL     1      32.882 -12.085 -22.275  0.00  0.00    +0.019 C 
ATOM     11  C   UNL     1      33.305 -10.927 -22.896  0.00  0.00    +0.100 C 
ENDROOT
BRANCH  10  12
ATOM     12  C   UNL     1      33.005 -13.375 -22.928  0.00  0.00    +0.006 C 
ATOM     13  C   UNL     1      34.169 -13.947 -23.319  0.00  0.00    +0.058 C 
BRANCH  13  16
ATOM     14  O   UNL     1      33.612 -15.380 -25.110  0.00  0.00    -0.270 OA
ATOM     15  N   UNL     1      34.826 -16.310 -23.360  0.00  0.00    -0.267 N 
ATOM     16  C   UNL     1      34.162 -15.268 -24.013  0.00  0.00    +0.250 C 
ATOM     17  C   UNL     1      34.890 -17.624 -23.990  0.00  0.00    +0.116 C 
BRANCH  15  18
ATOM     18  C   UNL     1      35.515 -16.194 -22.077  0.00  0.00    +0.158 C 
BRANCH  18  20
ATOM     19  O   UNL     1      34.274 -17.925 -20.913  0.00  0.00    -0.456 OA
ATOM     20  C   UNL     1      35.497 -17.486 -21.311  0.00  0.00    +0.139 A 
ATOM     21  C   UNL     1      36.482 -18.358 -20.908  0.00  0.00    +0.013 A 
ATOM     22  C   UNL     1      35.827 -19.409 -20.213  0.00  0.00    +0.033 A 
ATOM     23  C   UNL     1      34.472 -19.095 -20.244  0.00  0.00    +0.145 A 
ATOM     24  C   UNL     1      37.931 -18.224 -21.152  0.00  0.00    +0.034 C 
ATOM     25  C   UNL     1      36.230 -20.587 -19.562  0.00  0.00    +0.003 C 
ATOM     26  C   UNL     1      33.476 -19.879 -19.667  0.00  0.00    +0.037 C 
ATOM     27  C   UNL     1      35.250 -21.398 -18.971  0.00  0.00    +0.000 C 
ATOM     28  C   UNL     1      33.898 -21.047 -19.024  0.00  0.00    +0.003 C 
ENDBRANCH  18  20
ENDBRANCH  15  18
ENDBRANCH  13  16
ENDBRANCH  10  12
BRANCH   2  29
ATOM     29  C   UNL     1      32.881  -7.150 -21.311  0.00  0.00    +0.257 C 
BRANCH  29  30
ATOM     30  O   UNL     1      31.650  -6.535 -21.641  0.00  0.00    -0.251 OA
BRANCH  30  31
ATOM     31  P   UNL     1      31.539  -4.924 -21.528  0.00  0.00    +0.475 P 
ATOM     32  O   UNL     1      31.729  -4.171 -22.812  0.00  0.00    -0.227 OA
BRANCH  31  33
ATOM     33  O   UNL     1      32.596  -4.561 -20.360  0.00  0.00    -0.303 OA
ATOM     34  H   UNL     1      32.740  -5.340 -19.800  0.00  0.00    +0.222 HD
ENDBRANCH  31  33
BRANCH  31  35
ATOM     35  O   UNL     1      30.108  -4.688 -20.811  0.00  0.00    -0.303 OA
ATOM     36  H   UNL     1      29.645  -3.955 -21.245  0.00  0.00    +0.222 HD
ENDBRANCH  31  35
ENDBRANCH  30  31
ENDBRANCH  29  30
ENDBRANCH   2  29
TORSDOF 9
ENDMDL
MODEL 6
REMARK VINA RESULT:     -10.0      1.506      2.310
REMARK  Name = 72696796
REMARK  9 active torsions:
REMARK  status: ('A' for Active; 'I' for Inactive)
REMARK    1  A    between atoms: N_2  and  C_29
REMARK    2  A    between atoms: C_10  and  C_12
REMARK    3  A    between atoms: C_13  and  C_16
REMARK    4  A    between atoms: N_15  and  C_18
REMARK    5  A    between atoms: C_18  and  C_20
REMARK    6  A    between atoms: C_29  and  O_30
REMARK    7  A    between atoms: O_30  and  P_31
REMARK    8  A    between atoms: P_31  and  O_33
REMARK    9  A    between atoms: P_31  and  O_35
REMARK                            x       y       z     vdW  Elec       q    Type
REMARK                         _______ _______ _______ _____ _____    ______ ____
ROOT
ATOM      1  O   UNL     1      32.727 -23.925 -13.180  0.00  0.00    -0.274 OA
ATOM      2  N   UNL     1      34.075 -22.986 -14.832  0.00  0.00    -0.217 N 
ATOM      3  N   UNL     1      35.400 -22.083 -16.627  0.00  0.00    -0.229 NA
ATOM      4  C   UNL     1      31.662 -22.271 -16.169  0.00  0.00    +0.039 C 
ATOM      5  C   UNL     1      32.998 -22.038 -16.800  0.00  0.00    +0.010 C 
ATOM      6  C   UNL     1      31.713 -23.505 -15.292  0.00  0.00    +0.090 C 
ATOM      7  C   UNL     1      34.172 -22.366 -16.118  0.00  0.00    +0.135 C 
ATOM      8  C   UNL     1      32.869 -23.466 -14.315  0.00  0.00    +0.233 C 
ATOM      9  C   UNL     1      33.102 -21.405 -18.043  0.00  0.00    +0.000 C 
ATOM     10  C   UNL     1      34.352 -21.128 -18.579  0.00  0.00    +0.019 C 
ATOM     11  C   UNL     1      35.460 -21.483 -17.837  0.00  0.00    +0.100 C 
ENDROOT
BRANCH  10  12
ATOM     12  C   UNL     1      34.490 -20.500 -19.880  0.00  0.00    +0.006 C 
ATOM     13  C   UNL     1      34.899 -19.227 -20.096  0.00  0.00    +0.058 C 
BRANCH  13  16
ATOM     14  O   UNL     1      34.782 -19.433 -22.445  0.00  0.00    -0.270 OA
ATOM     15  N   UNL     1      35.221 -17.314 -21.597  0.00  0.00    -0.267 N 
ATOM     16  C   UNL     1      34.968 -18.684 -21.484  0.00  0.00    +0.250 C 
ATOM     17  C   UNL     1      35.274 -16.703 -22.919  0.00  0.00    +0.116 C 
BRANCH  15  18
ATOM     18  C   UNL     1      35.411 -16.399 -20.473  0.00  0.00    +0.158 C 
BRANCH  18  20
ATOM     19  O   UNL     1      33.762 -14.852 -19.590  0.00  0.00    -0.456 OA
ATOM     20  C   UNL     1      34.593 -15.148 -20.624  0.00  0.00    +0.139 A 
ATOM     21  C   UNL     1      34.495 -14.199 -21.615  0.00  0.00    +0.013 A 
ATOM     22  C   UNL     1      33.539 -13.250 -21.167  0.00  0.00    +0.033 A 
ATOM     23  C   UNL     1      33.118 -13.697 -19.919  0.00  0.00    +0.145 A 
ATOM     24  C   UNL     1      35.238 -14.176 -22.889  0.00  0.00    +0.034 C 
ATOM     25  C   UNL     1      32.983 -12.065 -21.678  0.00  0.00    +0.003 C 
ATOM     26  C   UNL     1      32.174 -13.042 -19.132  0.00  0.00    +0.037 C 
ATOM     27  C   UNL     1      32.030 -11.383 -20.910  0.00  0.00    +0.000 C 
ATOM     28  C   UNL     1      31.634 -11.865 -19.660  0.00  0.00    +0.003 C 
ENDBRANCH  18  20
ENDBRANCH  15  18
ENDBRANCH  13  16
ENDBRANCH  10  12
BRANCH   2  29
ATOM     29  C   UNL     1      35.303 -23.099 -14.052  0.00  0.00    +0.257 C 
BRANCH  29  30
ATOM     30  O   UNL     1      36.208 -23.940 -14.742  0.00  0.00    -0.251 OA
BRANCH  30  31
ATOM     31  P   UNL     1      37.773 -23.890 -14.331  0.00  0.00    +0.475 P 
ATOM     32  O   UNL     1      38.051 -23.680 -12.871  0.00  0.00    -0.227 OA
BRANCH  31  33
ATOM     33  O   UNL     1      38.378 -22.756 -15.312  0.00  0.00    -0.303 OA
ATOM     34  H   UNL     1      39.309 -22.599 -15.089  0.00  0.00    +0.222 HD
ENDBRANCH  31  33
BRANCH  31  35
ATOM     35  O   UNL     1      38.373 -25.262 -14.944  0.00  0.00    -0.303 OA
ATOM     36  H   UNL     1      38.883 -25.725 -14.261  0.00  0.00    +0.222 HD
ENDBRANCH  31  35
ENDBRANCH  30  31
ENDBRANCH  29  30
ENDBRANCH   2  29
TORSDOF 9
ENDMDL
MODEL 7
REMARK VINA RESULT:     -10.0      2.986      5.188
REMARK  Name = 72696796
REMARK  9 active torsions:
REMARK  status: ('A' for Active; 'I' for Inactive)
REMARK    1  A    between atoms: N_2  and  C_29
REMARK    2  A    between atoms: C_10  and  C_12
REMARK    3  A    between atoms: C_13  and  C_16
REMARK    4  A    between atoms: N_15  and  C_18
REMARK    5  A    between atoms: C_18  and  C_20
REMARK    6  A    between atoms: C_29  and  O_30
REMARK    7  A    between atoms: O_30  and  P_31
REMARK    8  A    between atoms: P_31  and  O_33
REMARK    9  A    between atoms: P_31  and  O_35
REMARK                            x       y       z     vdW  Elec       q    Type
REMARK                         _______ _______ _______ _____ _____    ______ ____
ROOT
ATOM      1  O   UNL     1      39.352 -25.806 -12.301  0.00  0.00    -0.274 OA
ATOM      2  N   UNL     1      38.111 -24.019 -13.131  0.00  0.00    -0.217 N 
ATOM      3  N   UNL     1      36.854 -22.215 -14.110  0.00  0.00    -0.229 NA
ATOM      4  C   UNL     1      36.689 -25.937 -14.688  0.00  0.00    +0.039 C 
ATOM      5  C   UNL     1      36.441 -24.471 -14.846  0.00  0.00    +0.010 C 
ATOM      6  C   UNL     1      38.138 -26.178 -14.314  0.00  0.00    +0.090 C 
ATOM      7  C   UNL     1      37.124 -23.545 -14.053  0.00  0.00    +0.135 C 
ATOM      8  C   UNL     1      38.571 -25.338 -13.131  0.00  0.00    +0.233 C 
ATOM      9  C   UNL     1      35.457 -24.002 -15.722  0.00  0.00    +0.000 C 
ATOM     10  C   UNL     1      35.186 -22.643 -15.801  0.00  0.00    +0.019 C 
ATOM     11  C   UNL     1      35.906 -21.798 -14.979  0.00  0.00    +0.100 C 
ENDROOT
BRANCH  10  12
ATOM     12  C   UNL     1      34.193 -22.126 -16.723  0.00  0.00    +0.006 C 
ATOM     13  C   UNL     1      34.461 -21.461 -17.871  0.00  0.00    +0.058 C 
BRANCH  13  16
ATOM     14  O   UNL     1      32.190 -21.305 -18.497  0.00  0.00    -0.270 OA
ATOM     15  N   UNL     1      33.707 -20.048 -19.730  0.00  0.00    -0.267 N 
ATOM     16  C   UNL     1      33.348 -20.948 -18.722  0.00  0.00    +0.250 C 
ATOM     17  C   UNL     1      32.672 -19.479 -20.583  0.00  0.00    +0.116 C 
BRANCH  15  18
ATOM     18  C   UNL     1      35.067 -19.582 -19.995  0.00  0.00    +0.158 C 
BRANCH  18  20
ATOM     19  O   UNL     1      35.007 -17.158 -19.895  0.00  0.00    -0.456 OA
ATOM     20  C   UNL     1      35.078 -18.254 -20.696  0.00  0.00    +0.139 A 
ATOM     21  C   UNL     1      35.146 -17.886 -22.019  0.00  0.00    +0.013 A 
ATOM     22  C   UNL     1      35.117 -16.467 -22.042  0.00  0.00    +0.033 A 
ATOM     23  C   UNL     1      35.029 -16.069 -20.712  0.00  0.00    +0.145 A 
ATOM     24  C   UNL     1      35.235 -18.790 -23.181  0.00  0.00    +0.034 C 
ATOM     25  C   UNL     1      35.152 -15.476 -23.039  0.00  0.00    +0.003 C 
ATOM     26  C   UNL     1      34.975 -14.740 -20.297  0.00  0.00    +0.037 C 
ATOM     27  C   UNL     1      35.099 -14.130 -22.652  0.00  0.00    +0.000 C 
ATOM     28  C   UNL     1      35.012 -13.771 -21.305  0.00  0.00    +0.003 C 
ENDBRANCH  18  20
ENDBRANCH  15  18
ENDBRANCH  13  16
ENDBRANCH  10  12
BRANCH   2  29
ATOM     29  C   UNL     1      38.632 -23.060 -12.162  0.00  0.00    +0.257 C 
BRANCH  29  30
ATOM     30  O   UNL     1      38.275 -23.486 -10.860  0.00  0.00    -0.251 OA
BRANCH  30  31
ATOM     31  P   UNL     1      36.704 -23.658 -10.510  0.00  0.00    +0.475 P 
ATOM     32  O   UNL     1      36.114 -25.002 -10.826  0.00  0.00    -0.227 OA
BRANCH  31  33
ATOM     33  O   UNL     1      36.015 -22.412 -11.275  0.00  0.00    -0.303 OA
ATOM     34  H   UNL     1      36.004 -22.584 -12.230  0.00  0.00    +0.222 HD
ENDBRANCH  31  33
BRANCH  31  35
ATOM     35  O   UNL     1      36.610 -23.228  -8.953  0.00  0.00    -0.303 OA
ATOM     36  H   UNL     1      37.476 -23.344  -8.532  0.00  0.00    +0.222 HD
ENDBRANCH  31  35
ENDBRANCH  30  31
ENDBRANCH  29  30
ENDBRANCH   2  29
TORSDOF 9
ENDMDL
MODEL 8
REMARK VINA RESULT:      -9.9      4.148     10.699
REMARK  Name = 72696796
REMARK  9 active torsions:
REMARK  status: ('A' for Active; 'I' for Inactive)
REMARK    1  A    between atoms: N_2  and  C_29
REMARK    2  A    between atoms: C_10  and  C_12
REMARK    3  A    between atoms: C_13  and  C_16
REMARK    4  A    between atoms: N_15  and  C_18
REMARK    5  A    between atoms: C_18  and  C_20
REMARK    6  A    between atoms: C_29  and  O_30
REMARK    7  A    between atoms: O_30  and  P_31
REMARK    8  A    between atoms: P_31  and  O_33
REMARK    9  A    between atoms: P_31  and  O_35
REMARK                            x       y       z     vdW  Elec       q    Type
REMARK                         _______ _______ _______ _____ _____    ______ ____
ROOT
ATOM      1  O   UNL     1      37.358 -18.182 -21.162  0.00  0.00    -0.274 OA
ATOM      2  N   UNL     1      35.394 -19.098 -20.307  0.00  0.00    -0.217 N 
ATOM      3  N   UNL     1      33.419 -20.162 -19.438  0.00  0.00    -0.229 NA
ATOM      4  C   UNL     1      37.047 -20.532 -18.481  0.00  0.00    +0.039 C 
ATOM      5  C   UNL     1      35.571 -20.768 -18.543  0.00  0.00    +0.010 C 
ATOM      6  C   UNL     1      37.569 -20.159 -19.853  0.00  0.00    +0.090 C 
ATOM      7  C   UNL     1      34.771 -20.035 -19.423  0.00  0.00    +0.135 C 
ATOM      8  C   UNL     1      36.779 -19.029 -20.479  0.00  0.00    +0.233 C 
ATOM      9  C   UNL     1      34.951 -21.659 -17.662  0.00  0.00    +0.000 C 
ATOM     10  C   UNL     1      33.571 -21.810 -17.682  0.00  0.00    +0.019 C 
ATOM     11  C   UNL     1      32.857 -21.044 -18.581  0.00  0.00    +0.100 C 
ENDROOT
BRANCH  10  12
ATOM     12  C   UNL     1      32.905 -22.750 -16.800  0.00  0.00    +0.006 C 
ATOM     13  C   UNL     1      32.100 -22.414 -15.764  0.00  0.00    +0.058 C 
BRANCH  13  16
ATOM     14  O   UNL     1      30.594 -24.186 -15.354  0.00  0.00    -0.270 OA
ATOM     15  N   UNL     1      32.032 -23.609 -13.622  0.00  0.00    -0.267 N 
ATOM     16  C   UNL     1      31.496 -23.476 -14.906  0.00  0.00    +0.250 C 
ATOM     17  C   UNL     1      31.517 -24.644 -12.735  0.00  0.00    +0.116 C 
BRANCH  15  18
ATOM     18  C   UNL     1      33.124 -22.803 -13.080  0.00  0.00    +0.158 C 
BRANCH  18  20
ATOM     19  O   UNL     1      34.723 -24.223 -14.228  0.00  0.00    -0.456 OA
ATOM     20  C   UNL     1      34.428 -23.548 -13.086  0.00  0.00    +0.139 A 
ATOM     21  C   UNL     1      35.429 -23.705 -12.155  0.00  0.00    +0.013 A 
ATOM     22  C   UNL     1      36.412 -24.533 -12.760  0.00  0.00    +0.033 A 
ATOM     23  C   UNL     1      35.930 -24.824 -14.032  0.00  0.00    +0.145 A 
ATOM     24  C   UNL     1      35.470 -23.125 -10.799  0.00  0.00    +0.034 C 
ATOM     25  C   UNL     1      37.652 -25.068 -12.372  0.00  0.00    +0.003 C 
ATOM     26  C   UNL     1      36.602 -25.619 -14.958  0.00  0.00    +0.037 C 
ATOM     27  C   UNL     1      38.352 -25.872 -13.283  0.00  0.00    +0.000 C 
ATOM     28  C   UNL     1      37.833 -26.141 -14.552  0.00  0.00    +0.003 C 
ENDBRANCH  18  20
ENDBRANCH  15  18
ENDBRANCH  13  16
ENDBRANCH  10  12
BRANCH   2  29
ATOM     29  C   UNL     1      34.519 -18.188 -21.039  0.00  0.00    +0.257 C 
BRANCH  29  30
ATOM     30  O   UNL     1      34.077 -18.829 -22.221  0.00  0.00    -0.251 OA
BRANCH  30  31
ATOM     31  P   UNL     1      34.516 -18.202 -23.647  0.00  0.00    +0.475 P 
ATOM     32  O   UNL     1      33.404 -17.609 -24.463  0.00  0.00    -0.227 OA
BRANCH  31  33
ATOM     33  O   UNL     1      35.312 -19.418 -24.357  0.00  0.00    -0.303 OA
ATOM     34  H   UNL     1      35.622 -20.040 -23.680  0.00  0.00    +0.222 HD
ENDBRANCH  31  33
BRANCH  31  35
ATOM     35  O   UNL     1      35.699 -17.167 -23.262  0.00  0.00    -0.303 OA
ATOM     36  H   UNL     1      36.412 -17.644 -22.810  0.00  0.00    +0.222 HD
ENDBRANCH  31  35
ENDBRANCH  30  31
ENDBRANCH  29  30
ENDBRANCH   2  29
TORSDOF 9
ENDMDL
MODEL 9
REMARK VINA RESULT:      -9.7      4.411      6.864
REMARK  Name = 72696796
REMARK  9 active torsions:
REMARK  status: ('A' for Active; 'I' for Inactive)
REMARK    1  A    between atoms: N_2  and  C_29
REMARK    2  A    between atoms: C_10  and  C_12
REMARK    3  A    between atoms: C_13  and  C_16
REMARK    4  A    between atoms: N_15  and  C_18
REMARK    5  A    between atoms: C_18  and  C_20
REMARK    6  A    between atoms: C_29  and  O_30
REMARK    7  A    between atoms: O_30  and  P_31
REMARK    8  A    between atoms: P_31  and  O_33
REMARK    9  A    between atoms: P_31  and  O_35
REMARK                            x       y       z     vdW  Elec       q    Type
REMARK                         _______ _______ _______ _____ _____    ______ ____
ROOT
ATOM      1  O   UNL     1      36.852 -25.145 -10.673  0.00  0.00    -0.274 OA
ATOM      2  N   UNL     1      37.639 -23.927 -12.497  0.00  0.00    -0.217 N 
ATOM      3  N   UNL     1      38.353 -22.720 -14.452  0.00  0.00    -0.229 NA
ATOM      4  C   UNL     1      34.976 -22.954 -12.791  0.00  0.00    +0.039 C 
ATOM      5  C   UNL     1      36.039 -22.621 -13.789  0.00  0.00    +0.010 C 
ATOM      6  C   UNL     1      35.227 -24.330 -12.209  0.00  0.00    +0.090 C 
ATOM      7  C   UNL     1      37.347 -23.080 -13.613  0.00  0.00    +0.135 C 
ATOM      8  C   UNL     1      36.642 -24.484 -11.692  0.00  0.00    +0.233 C 
ATOM      9  C   UNL     1      35.770 -21.769 -14.865  0.00  0.00    +0.000 C 
ATOM     10  C   UNL     1      36.787 -21.409 -15.738  0.00  0.00    +0.019 C 
ATOM     11  C   UNL     1      38.051 -21.907 -15.489  0.00  0.00    +0.100 C 
ENDROOT
BRANCH  10  12
ATOM     12  C   UNL     1      36.529 -20.552 -16.880  0.00  0.00    +0.006 C 
ATOM     13  C   UNL     1      37.110 -20.674 -18.097  0.00  0.00    +0.058 C 
BRANCH  13  16
ATOM     14  O   UNL     1      37.311 -18.591 -19.190  0.00  0.00    -0.270 OA
ATOM     15  N   UNL     1      35.902 -20.159 -20.169  0.00  0.00    -0.267 N 
ATOM     16  C   UNL     1      36.786 -19.706 -19.186  0.00  0.00    +0.250 C 
ATOM     17  C   UNL     1      35.560 -19.283 -21.283  0.00  0.00    +0.116 C 
BRANCH  15  18
ATOM     18  C   UNL     1      35.294 -21.488 -20.205  0.00  0.00    +0.158 C 
BRANCH  18  20
ATOM     19  O   UNL     1      34.533 -22.693 -18.241  0.00  0.00    -0.456 OA
ATOM     20  C   UNL     1      34.288 -21.674 -19.106  0.00  0.00    +0.139 A 
ATOM     21  C   UNL     1      33.128 -21.016 -18.768  0.00  0.00    +0.013 A 
ATOM     22  C   UNL     1      32.618 -21.670 -17.615  0.00  0.00    +0.033 A 
ATOM     23  C   UNL     1      33.517 -22.694 -17.333  0.00  0.00    +0.145 A 
ATOM     24  C   UNL     1      32.535 -19.859 -19.466  0.00  0.00    +0.034 C 
ATOM     25  C   UNL     1      31.497 -21.511 -16.782  0.00  0.00    +0.003 C 
ATOM     26  C   UNL     1      33.380 -23.581 -16.267  0.00  0.00    +0.037 C 
ATOM     27  C   UNL     1      31.333 -22.389 -15.701  0.00  0.00    +0.000 C 
ATOM     28  C   UNL     1      32.259 -23.405 -15.451  0.00  0.00    +0.003 C 
ENDBRANCH  18  20
ENDBRANCH  15  18
ENDBRANCH  13  16
ENDBRANCH  10  12
BRANCH   2  29
ATOM     29  C   UNL     1      39.045 -24.195 -12.213  0.00  0.00    +0.257 C 
BRANCH  29  30
ATOM     30  O   UNL     1      39.403 -25.433 -12.797  0.00  0.00    -0.251 OA
BRANCH  30  31
ATOM     31  P   UNL     1      40.376 -25.422 -14.089  0.00  0.00    +0.475 P 
ATOM     32  O   UNL     1      41.400 -26.519 -14.138  0.00  0.00    -0.227 OA
BRANCH  31  33
ATOM     33  O   UNL     1      40.981 -23.923 -14.085  0.00  0.00    -0.303 OA
ATOM     34  H   UNL     1      41.945 -23.963 -14.183  0.00  0.00    +0.222 HD
ENDBRANCH  31  33
BRANCH  31  35
ATOM     35  O   UNL     1      39.351 -25.399 -15.341  0.00  0.00    -0.303 OA
ATOM     36  H   UNL     1      38.945 -26.274 -15.444  0.00  0.00    +0.222 HD
ENDBRANCH  31  35
ENDBRANCH  30  31
ENDBRANCH  29  30
ENDBRANCH   2  29
TORSDOF 9
ENDMDL
