MODEL 1
REMARK VINA RESULT:     -12.6      0.000      0.000
REMARK  Name = 24779675
REMARK  4 active torsions:
REMARK  status: ('A' for Active; 'I' for Inactive)
REMARK    1  A    between atoms: N_1  and  C_22
REMARK    2  A    between atoms: N_5  and  C_14
REMARK    3  A    between atoms: C_10  and  C_21
REMARK    4  A    between atoms: C_22  and  C_23
REMARK                            x       y       z     vdW  Elec       q    Type
REMARK                         _______ _______ _______ _____ _____    ______ ____
ROOT
ATOM      1  N   UNL     1      34.341 -22.233 -17.039  0.00  0.00    -0.259 N 
ATOM      2  N   UNL     1      32.492 -22.742 -15.773  0.00  0.00    -0.314 NA
ATOM      3  N   UNL     1      34.679 -23.270 -14.970  0.00  0.00    -0.295 NA
ATOM      4  N   UNL     1      32.849 -23.784 -13.694  0.00  0.00    -0.123 N 
ATOM      5  N   UNL     1      34.996 -24.321 -12.868  0.00  0.00    -0.274 N 
ATOM      6  N   UNL     1      32.236 -24.281 -12.605  0.00  0.00    -0.170 NA
ATOM      7  C   UNL     1      33.799 -22.751 -15.916  0.00  0.00    +0.203 C 
ATOM      8  C   UNL     1      31.999 -23.271 -14.630  0.00  0.00    +0.219 C 
ATOM      9  C   UNL     1      34.224 -23.785 -13.864  0.00  0.00    +0.279 C 
ATOM     10  C   UNL     1      30.735 -23.445 -14.113  0.00  0.00    +0.203 C 
ATOM     11  C   UNL     1      30.943 -24.070 -12.867  0.00  0.00    +0.116 C 
ATOM     12  H   UNL     1      35.320 -22.246 -17.134  0.00  0.00    +0.160 HD
ATOM     13  H   UNL     1      34.517 -24.677 -12.085  0.00  0.00    +0.156 HD
ENDROOT
BRANCH   5  14
ATOM     14  C   UNL     1      36.388 -24.417 -12.846  0.00  0.00    +0.051 C 
ATOM     15  C   UNL     1      37.035 -25.359 -13.646  0.00  0.00    +0.015 C 
ATOM     16  C   UNL     1      37.132 -23.570 -12.024  0.00  0.00    +0.015 C 
ATOM     17  C   UNL     1      38.427 -25.456 -13.623  0.00  0.00    +0.001 C 
ATOM     18  C   UNL     1      38.524 -23.666 -12.002  0.00  0.00    +0.001 C 
ATOM     19  C   UNL     1      39.171 -24.609 -12.801  0.00  0.00    +0.000 C 
ENDBRANCH   5  14
BRANCH  10  21
ATOM     20  N   UNL     1      28.505 -22.765 -15.221  0.00  0.00    -0.195 NA
ATOM     21  C   UNL     1      29.508 -23.070 -14.723  0.00  0.00    +0.087 C 
ENDBRANCH  10  21
BRANCH   1  22
ATOM     22  C   UNL     1      33.557 -21.663 -18.102  0.00  0.00    +0.099 C 
BRANCH  22  23
ATOM     23  C   UNL     1      34.483 -21.079 -19.168  0.00  0.00    +0.020 C 
ATOM     24  C   UNL     1      33.869 -19.814 -19.784  0.00  0.00    +0.002 C 
ATOM     25  C   UNL     1      35.868 -20.782 -18.579  0.00  0.00    +0.002 C 
ATOM     26  C   UNL     1      34.799 -19.181 -20.816  0.00  0.00    +0.000 C 
ATOM     27  C   UNL     1      36.796 -20.146 -19.612  0.00  0.00    +0.000 C 
ATOM     28  C   UNL     1      36.178 -18.895 -20.230  0.00  0.00    +0.000 C 
ENDBRANCH  22  23
ENDBRANCH   1  22
TORSDOF 4
ENDMDL
MODEL 2
REMARK VINA RESULT:     -11.0      1.733      7.173
REMARK  Name = 24779675
REMARK  4 active torsions:
REMARK  status: ('A' for Active; 'I' for Inactive)
REMARK    1  A    between atoms: N_1  and  C_22
REMARK    2  A    between atoms: N_5  and  C_14
REMARK    3  A    between atoms: C_10  and  C_21
REMARK    4  A    between atoms: C_22  and  C_23
REMARK                            x       y       z     vdW  Elec       q    Type
REMARK                         _______ _______ _______ _____ _____    ______ ____
ROOT
ATOM      1  N   UNL     1      33.235 -22.468 -14.337  0.00  0.00    -0.259 N 
ATOM      2  N   UNL     1      35.308 -23.187 -13.656  0.00  0.00    -0.314 NA
ATOM      3  N   UNL     1      35.065 -22.010 -15.720  0.00  0.00    -0.295 NA
ATOM      4  N   UNL     1      37.139 -22.717 -15.057  0.00  0.00    -0.123 N 
ATOM      5  N   UNL     1      36.935 -21.556 -17.103  0.00  0.00    -0.274 N 
ATOM      6  N   UNL     1      38.468 -22.860 -15.197  0.00  0.00    -0.170 NA
ATOM      7  C   UNL     1      34.564 -22.572 -14.548  0.00  0.00    +0.203 C 
ATOM      8  C   UNL     1      36.634 -23.263 -13.913  0.00  0.00    +0.219 C 
ATOM      9  C   UNL     1      36.337 -22.073 -15.986  0.00  0.00    +0.279 C 
ATOM     10  C   UNL     1      37.716 -23.803 -13.255  0.00  0.00    +0.203 C 
ATOM     11  C   UNL     1      38.816 -23.524 -14.091  0.00  0.00    +0.116 C 
ATOM     12  H   UNL     1      32.689 -22.005 -15.012  0.00  0.00    +0.160 HD
ATOM     13  H   UNL     1      37.910 -21.677 -17.177  0.00  0.00    +0.156 HD
ENDROOT
BRANCH   5  14
ATOM     14  C   UNL     1      36.311 -20.875 -18.150  0.00  0.00    +0.051 C 
ATOM     15  C   UNL     1      37.034 -19.962 -18.918  0.00  0.00    +0.015 C 
ATOM     16  C   UNL     1      34.963 -21.107 -18.426  0.00  0.00    +0.015 C 
ATOM     17  C   UNL     1      36.410 -19.281 -19.963  0.00  0.00    +0.001 C 
ATOM     18  C   UNL     1      34.339 -20.425 -19.472  0.00  0.00    +0.001 C 
ATOM     19  C   UNL     1      35.062 -19.513 -20.240  0.00  0.00    +0.000 C 
ENDBRANCH   5  14
BRANCH  10  21
ATOM     20  N   UNL     1      37.686 -25.045 -10.992  0.00  0.00    -0.195 NA
ATOM     21  C   UNL     1      37.699 -24.486 -12.009  0.00  0.00    +0.087 C 
ENDBRANCH  10  21
BRANCH   1  22
ATOM     22  C   UNL     1      32.577 -23.001 -13.173  0.00  0.00    +0.099 C 
BRANCH  22  23
ATOM     23  C   UNL     1      31.082 -23.146 -13.448  0.00  0.00    +0.020 C 
ATOM     24  C   UNL     1      30.625 -22.133 -14.506  0.00  0.00    +0.002 C 
ATOM     25  C   UNL     1      30.747 -24.579 -13.884  0.00  0.00    +0.002 C 
ATOM     26  C   UNL     1      29.143 -22.293 -14.839  0.00  0.00    +0.000 C 
ATOM     27  C   UNL     1      29.265 -24.735 -14.217  0.00  0.00    +0.000 C 
ATOM     28  C   UNL     1      28.812 -23.720 -15.263  0.00  0.00    +0.000 C 
ENDBRANCH  22  23
ENDBRANCH   1  22
TORSDOF 4
ENDMDL
MODEL 3
REMARK VINA RESULT:     -10.9      1.770      7.365
REMARK  Name = 24779675
REMARK  4 active torsions:
REMARK  status: ('A' for Active; 'I' for Inactive)
REMARK    1  A    between atoms: N_1  and  C_22
REMARK    2  A    between atoms: N_5  and  C_14
REMARK    3  A    between atoms: C_10  and  C_21
REMARK    4  A    between atoms: C_22  and  C_23
REMARK                            x       y       z     vdW  Elec       q    Type
REMARK                         _______ _______ _______ _____ _____    ______ ____
ROOT
ATOM      1  N   UNL     1      35.877 -22.881 -15.139  0.00  0.00    -0.259 N 
ATOM      2  N   UNL     1      35.670 -21.694 -17.095  0.00  0.00    -0.314 NA
ATOM      3  N   UNL     1      33.731 -22.582 -16.019  0.00  0.00    -0.295 NA
ATOM      4  N   UNL     1      33.504 -21.401 -17.967  0.00  0.00    -0.123 N 
ATOM      5  N   UNL     1      31.566 -22.264 -16.931  0.00  0.00    -0.274 N 
ATOM      6  N   UNL     1      32.800 -20.857 -18.976  0.00  0.00    -0.170 NA
ATOM      7  C   UNL     1      35.103 -22.364 -16.116  0.00  0.00    +0.203 C 
ATOM      8  C   UNL     1      34.850 -21.195 -18.050  0.00  0.00    +0.219 C 
ATOM      9  C   UNL     1      32.926 -22.111 -16.927  0.00  0.00    +0.279 C 
ATOM     10  C   UNL     1      35.041 -20.460 -19.198  0.00  0.00    +0.203 C 
ATOM     11  C   UNL     1      33.746 -20.282 -19.725  0.00  0.00    +0.116 C 
ATOM     12  H   UNL     1      35.441 -23.380 -14.412  0.00  0.00    +0.160 HD
ATOM     13  H   UNL     1      31.079 -21.855 -17.682  0.00  0.00    +0.156 HD
ENDROOT
BRANCH   5  14
ATOM     14  C   UNL     1      30.796 -22.939 -15.982  0.00  0.00    +0.051 C 
ATOM     15  C   UNL     1      31.416 -23.736 -15.019  0.00  0.00    +0.015 C 
ATOM     16  C   UNL     1      29.406 -22.817 -15.996  0.00  0.00    +0.015 C 
ATOM     17  C   UNL     1      30.647 -24.412 -14.071  0.00  0.00    +0.001 C 
ATOM     18  C   UNL     1      28.638 -23.492 -15.047  0.00  0.00    +0.001 C 
ATOM     19  C   UNL     1      29.258 -24.289 -14.086  0.00  0.00    +0.000 C 
ENDBRANCH   5  14
BRANCH  10  21
ATOM     20  N   UNL     1      37.292 -19.617 -20.137  0.00  0.00    -0.195 NA
ATOM     21  C   UNL     1      36.280 -19.997 -19.715  0.00  0.00    +0.087 C 
ENDBRANCH  10  21
BRANCH   1  22
ATOM     22  C   UNL     1      37.309 -22.736 -15.108  0.00  0.00    +0.099 C 
BRANCH  22  23
ATOM     23  C   UNL     1      37.908 -23.754 -14.139  0.00  0.00    +0.020 C 
ATOM     24  C   UNL     1      37.790 -23.259 -12.692  0.00  0.00    +0.002 C 
ATOM     25  C   UNL     1      37.232 -25.122 -14.305  0.00  0.00    +0.002 C 
ATOM     26  C   UNL     1      38.334 -24.283 -11.698  0.00  0.00    +0.000 C 
ATOM     27  C   UNL     1      37.777 -26.144 -13.309  0.00  0.00    +0.000 C 
ATOM     28  C   UNL     1      37.667 -25.644 -11.871  0.00  0.00    +0.000 C 
ENDBRANCH  22  23
ENDBRANCH   1  22
TORSDOF 4
ENDMDL
MODEL 4
REMARK VINA RESULT:     -10.6      1.335      6.527
REMARK  Name = 24779675
REMARK  4 active torsions:
REMARK  status: ('A' for Active; 'I' for Inactive)
REMARK    1  A    between atoms: N_1  and  C_22
REMARK    2  A    between atoms: N_5  and  C_14
REMARK    3  A    between atoms: C_10  and  C_21
REMARK    4  A    between atoms: C_22  and  C_23
REMARK                            x       y       z     vdW  Elec       q    Type
REMARK                         _______ _______ _______ _____ _____    ______ ____
ROOT
ATOM      1  N   UNL     1      35.922 -22.886 -15.100  0.00  0.00    -0.259 N 
ATOM      2  N   UNL     1      33.674 -23.147 -14.704  0.00  0.00    -0.314 NA
ATOM      3  N   UNL     1      34.422 -21.996 -16.659  0.00  0.00    -0.295 NA
ATOM      4  N   UNL     1      32.178 -22.247 -16.282  0.00  0.00    -0.123 N 
ATOM      5  N   UNL     1      32.882 -21.104 -18.225  0.00  0.00    -0.274 N 
ATOM      6  N   UNL     1      30.877 -22.089 -16.583  0.00  0.00    -0.170 NA
ATOM      7  C   UNL     1      34.639 -22.688 -15.470  0.00  0.00    +0.203 C 
ATOM      8  C   UNL     1      32.406 -22.923 -15.119  0.00  0.00    +0.219 C 
ATOM      9  C   UNL     1      33.210 -21.770 -17.075  0.00  0.00    +0.279 C 
ATOM     10  C   UNL     1      31.159 -23.232 -14.623  0.00  0.00    +0.203 C 
ATOM     11  C   UNL     1      30.259 -22.694 -15.565  0.00  0.00    +0.116 C 
ATOM     12  H   UNL     1      36.635 -22.537 -15.682  0.00  0.00    +0.160 HD
ATOM     13  H   UNL     1      31.922 -21.004 -18.417  0.00  0.00    +0.156 HD
ENDROOT
BRANCH   5  14
ATOM     14  C   UNL     1      33.765 -20.550 -19.153  0.00  0.00    +0.051 C 
ATOM     15  C   UNL     1      35.130 -20.828 -19.069  0.00  0.00    +0.015 C 
ATOM     16  C   UNL     1      33.283 -19.720 -20.166  0.00  0.00    +0.015 C 
ATOM     17  C   UNL     1      36.013 -20.274 -19.996  0.00  0.00    +0.001 C 
ATOM     18  C   UNL     1      34.167 -19.167 -21.093  0.00  0.00    +0.001 C 
ATOM     19  C   UNL     1      35.531 -19.444 -21.008  0.00  0.00    +0.000 C 
ENDBRANCH   5  14
BRANCH  10  21
ATOM     20  N   UNL     1      30.639 -24.513 -12.443  0.00  0.00    -0.195 NA
ATOM     21  C   UNL     1      30.872 -23.937 -13.423  0.00  0.00    +0.087 C 
ENDBRANCH  10  21
BRANCH   1  22
ATOM     22  C   UNL     1      36.298 -23.582 -13.898  0.00  0.00    +0.099 C 
BRANCH  22  23
ATOM     23  C   UNL     1      37.595 -24.353 -14.134  0.00  0.00    +0.020 C 
ATOM     24  C   UNL     1      38.679 -23.427 -14.704  0.00  0.00    +0.002 C 
ATOM     25  C   UNL     1      38.074 -25.019 -12.837  0.00  0.00    +0.002 C 
ATOM     26  C   UNL     1      40.003 -24.162 -14.900  0.00  0.00    +0.000 C 
ATOM     27  C   UNL     1      39.399 -25.751 -13.036  0.00  0.00    +0.000 C 
ATOM     28  C   UNL     1      40.471 -24.831 -13.612  0.00  0.00    +0.000 C 
ENDBRANCH  22  23
ENDBRANCH   1  22
TORSDOF 4
ENDMDL
