MODEL 1
REMARK VINA RESULT:     -12.1      0.000      0.000
REMARK  Name = 3151
REMARK  5 active torsions:
REMARK  status: ('A' for Active; 'I' for Inactive)
REMARK    1  A    between atoms: N_1  and  C_20
REMARK    2  A    between atoms: C_2  and  N_10
REMARK    3  A    between atoms: C_20  and  C_21
REMARK    4  A    between atoms: C_21  and  C_22
REMARK    5  A    between atoms: C_22  and  N_24
REMARK                            x       y       z     vdW  Elec       q    Type
REMARK                         _______ _______ _______ _____ _____    ______ ____
ROOT
ATOM      1  N   UNL     1      35.159 -15.815 -23.697  0.00  0.00    +0.387 N 
ATOM      2  C   UNL     1      34.965 -17.768 -21.528  0.00  0.00    +0.086 C 
ATOM      3  C   UNL     1      35.542 -16.368 -21.316  0.00  0.00    -0.000 C 
ATOM      4  C   UNL     1      35.113 -18.185 -22.991  0.00  0.00    -0.000 C 
ATOM      5  C   UNL     1      34.951 -15.369 -22.312  0.00  0.00    -0.075 C 
ATOM      6  C   UNL     1      34.536 -17.125 -23.931  0.00  0.00    -0.075 C 
ATOM      7  H   UNL     1      36.162 -15.912 -23.850  0.00  0.00    -0.080 HD
ENDROOT
BRANCH   2  10
ATOM      8 CL   UNL     1      33.591 -22.883 -17.053  0.00  0.00    -0.082 Cl
ATOM      9  O   UNL     1      37.908 -18.254 -20.950  0.00  0.00    -0.247 OA
ATOM     10  N   UNL     1      35.596 -18.721 -20.650  0.00  0.00    -0.282 N 
ATOM     11  N   UNL     1      37.117 -19.940 -19.492  0.00  0.00    -0.305 N 
ATOM     12  C   UNL     1      34.901 -19.648 -19.861  0.00  0.00    +0.079 A 
ATOM     13  C   UNL     1      36.992 -18.882 -20.438  0.00  0.00    +0.328 A 
ATOM     14  C   UNL     1      35.842 -20.393 -19.153  0.00  0.00    +0.077 A 
ATOM     15  C   UNL     1      33.548 -19.878 -19.724  0.00  0.00    +0.020 C 
ATOM     16  C   UNL     1      35.485 -21.396 -18.280  0.00  0.00    +0.030 C 
ATOM     17  C   UNL     1      33.160 -20.892 -18.843  0.00  0.00    +0.013 C 
ATOM     18  C   UNL     1      34.117 -21.642 -18.129  0.00  0.00    +0.059 C 
ATOM     19  H   UNL     1      37.964 -20.293 -19.137  0.00  0.00    +0.170 HD
ENDBRANCH   2  10
BRANCH   1  20
ATOM     20  C   UNL     1      34.633 -14.824 -24.638  0.00  0.00    -0.075 C 
BRANCH  20  21
ATOM     21  C   UNL     1      33.772 -13.770 -23.936  0.00  0.00    +0.002 C 
BRANCH  21  22
ATOM     22  C   UNL     1      34.532 -12.516 -23.511  0.00  0.00    +0.108 C 
BRANCH  22  24
ATOM     23  O   UNL     1      33.854  -9.699 -24.359  0.00  0.00    -0.247 OA
ATOM     24  N   UNL     1      33.683 -11.548 -22.871  0.00  0.00    -0.280 N 
ATOM     25  N   UNL     1      32.534  -9.645 -22.398  0.00  0.00    -0.305 N 
ATOM     26  C   UNL     1      32.977 -11.743 -21.672  0.00  0.00    +0.079 A 
ATOM     27  C   UNL     1      33.419 -10.230 -23.347  0.00  0.00    +0.328 A 
ATOM     28  C   UNL     1      32.276 -10.573 -21.388  0.00  0.00    +0.076 A 
ATOM     29  C   UNL     1      32.911 -12.843 -20.841  0.00  0.00    +0.019 C 
ATOM     30  C   UNL     1      31.479 -10.440 -20.273  0.00  0.00    +0.019 C 
ATOM     31  C   UNL     1      32.108 -12.732 -19.701  0.00  0.00    +0.002 C 
ATOM     32  C   UNL     1      31.400 -11.544 -19.420  0.00  0.00    +0.002 C 
ATOM     33  H   UNL     1      32.165  -8.732 -22.445  0.00  0.00    +0.170 HD
ENDBRANCH  22  24
ENDBRANCH  21  22
ENDBRANCH  20  21
ENDBRANCH   1  20
TORSDOF 5
ENDMDL
MODEL 2
REMARK VINA RESULT:     -12.0      1.582      2.778
REMARK  Name = 3151
REMARK  5 active torsions:
REMARK  status: ('A' for Active; 'I' for Inactive)
REMARK    1  A    between atoms: N_1  and  C_20
REMARK    2  A    between atoms: C_2  and  N_10
REMARK    3  A    between atoms: C_20  and  C_21
REMARK    4  A    between atoms: C_21  and  C_22
REMARK    5  A    between atoms: C_22  and  N_24
REMARK                            x       y       z     vdW  Elec       q    Type
REMARK                         _______ _______ _______ _____ _____    ______ ____
ROOT
ATOM      1  N   UNL     1      35.177 -16.173 -23.949  0.00  0.00    +0.387 N 
ATOM      2  C   UNL     1      34.988 -17.898 -21.594  0.00  0.00    +0.086 C 
ATOM      3  C   UNL     1      35.660 -16.526 -21.548  0.00  0.00    -0.000 C 
ATOM      4  C   UNL     1      35.028 -18.459 -23.016  0.00  0.00    -0.000 C 
ATOM      5  C   UNL     1      35.076 -15.587 -22.605  0.00  0.00    -0.075 C 
ATOM      6  C   UNL     1      34.464 -17.456 -24.024  0.00  0.00    -0.075 C 
ATOM      7  H   UNL     1      36.162 -16.349 -24.143  0.00  0.00    -0.080 HD
ENDROOT
BRANCH   2  10
ATOM      8 CL   UNL     1      33.569 -22.850 -16.953  0.00  0.00    -0.082 Cl
ATOM      9  O   UNL     1      37.921 -18.313 -20.918  0.00  0.00    -0.247 OA
ATOM     10  N   UNL     1      35.609 -18.805 -20.661  0.00  0.00    -0.282 N 
ATOM     11  N   UNL     1      37.116 -19.951 -19.414  0.00  0.00    -0.305 N 
ATOM     12  C   UNL     1      34.907 -19.710 -19.854  0.00  0.00    +0.079 A 
ATOM     13  C   UNL     1      37.001 -18.935 -20.406  0.00  0.00    +0.328 A 
ATOM     14  C   UNL     1      35.839 -20.411 -19.091  0.00  0.00    +0.077 A 
ATOM     15  C   UNL     1      33.554 -19.956 -19.745  0.00  0.00    +0.020 C 
ATOM     16  C   UNL     1      35.473 -21.383 -18.188  0.00  0.00    +0.030 C 
ATOM     17  C   UNL     1      33.157 -20.940 -18.833  0.00  0.00    +0.013 C 
ATOM     18  C   UNL     1      34.106 -21.645 -18.064  0.00  0.00    +0.059 C 
ATOM     19  H   UNL     1      37.958 -20.276 -19.023  0.00  0.00    +0.170 HD
ENDBRANCH   2  10
BRANCH   1  20
ATOM     20  C   UNL     1      34.660 -15.242 -24.953  0.00  0.00    -0.075 C 
BRANCH  20  21
ATOM     21  C   UNL     1      33.731 -14.193 -24.335  0.00  0.00    +0.002 C 
BRANCH  21  22
ATOM     22  C   UNL     1      33.684 -12.867 -25.092  0.00  0.00    +0.108 C 
BRANCH  22  24
ATOM     23  O   UNL     1      32.725 -12.449 -22.260  0.00  0.00    -0.247 OA
ATOM     24  N   UNL     1      33.857 -11.732 -24.227  0.00  0.00    -0.280 N 
ATOM     25  N   UNL     1      33.773 -10.337 -22.435  0.00  0.00    -0.305 N 
ATOM     26  C   UNL     1      34.538 -10.548 -24.556  0.00  0.00    +0.079 A 
ATOM     27  C   UNL     1      33.365 -11.621 -22.894  0.00  0.00    +0.328 A 
ATOM     28  C   UNL     1      34.482  -9.698 -23.454  0.00  0.00    +0.076 A 
ATOM     29  C   UNL     1      35.182 -10.180 -25.719  0.00  0.00    +0.019 C 
ATOM     30  C   UNL     1      35.061  -8.449 -23.454  0.00  0.00    +0.019 C 
ATOM     31  C   UNL     1      35.777  -8.914 -25.744  0.00  0.00    +0.002 C 
ATOM     32  C   UNL     1      35.718  -8.058 -24.624  0.00  0.00    +0.002 C 
ATOM     33  H   UNL     1      33.585  -9.959 -21.545  0.00  0.00    +0.170 HD
ENDBRANCH  22  24
ENDBRANCH  21  22
ENDBRANCH  20  21
ENDBRANCH   1  20
TORSDOF 5
ENDMDL
MODEL 3
REMARK VINA RESULT:     -11.8      4.407     10.781
REMARK  Name = 3151
REMARK  5 active torsions:
REMARK  status: ('A' for Active; 'I' for Inactive)
REMARK    1  A    between atoms: N_1  and  C_20
REMARK    2  A    between atoms: C_2  and  N_10
REMARK    3  A    between atoms: C_20  and  C_21
REMARK    4  A    between atoms: C_21  and  C_22
REMARK    5  A    between atoms: C_22  and  N_24
REMARK                            x       y       z     vdW  Elec       q    Type
REMARK                         _______ _______ _______ _____ _____    ______ ____
ROOT
ATOM      1  N   UNL     1      35.683 -20.777 -19.090  0.00  0.00    +0.387 N 
ATOM      2  C   UNL     1      35.235 -18.201 -20.403  0.00  0.00    +0.086 C 
ATOM      3  C   UNL     1      34.167 -19.294 -20.366  0.00  0.00    -0.000 C 
ATOM      4  C   UNL     1      36.628 -18.818 -20.268  0.00  0.00    -0.000 C 
ATOM      5  C   UNL     1      34.335 -20.192 -19.139  0.00  0.00    -0.075 C 
ATOM      6  C   UNL     1      36.714 -19.731 -19.044  0.00  0.00    -0.075 C 
ATOM      7  H   UNL     1      35.823 -21.318 -19.943  0.00  0.00    -0.080 HD
ENDROOT
BRANCH   2  10
ATOM      8 CL   UNL     1      34.432 -11.712 -22.710  0.00  0.00    -0.082 Cl
ATOM      9  O   UNL     1      35.307 -19.069 -23.314  0.00  0.00    -0.247 OA
ATOM     10  N   UNL     1      35.128 -17.420 -21.610  0.00  0.00    -0.282 N 
ATOM     11  N   UNL     1      35.026 -16.767 -23.778  0.00  0.00    -0.305 N 
ATOM     12  C   UNL     1      34.961 -16.029 -21.637  0.00  0.00    +0.079 A 
ATOM     13  C   UNL     1      35.172 -17.911 -22.943  0.00  0.00    +0.328 A 
ATOM     14  C   UNL     1      34.899 -15.635 -22.973  0.00  0.00    +0.077 A 
ATOM     15  C   UNL     1      34.864 -15.114 -20.610  0.00  0.00    +0.020 C 
ATOM     16  C   UNL     1      34.738 -14.320 -23.348  0.00  0.00    +0.030 C 
ATOM     17  C   UNL     1      34.698 -13.771 -20.966  0.00  0.00    +0.013 C 
ATOM     18  C   UNL     1      34.636 -13.379 -22.319  0.00  0.00    +0.059 C 
ATOM     19  H   UNL     1      35.016 -16.774 -24.762  0.00  0.00    +0.170 HD
ENDBRANCH   2  10
BRANCH   1  20
ATOM     20  C   UNL     1      35.811 -21.672 -17.939  0.00  0.00    -0.075 C 
BRANCH  20  21
ATOM     21  C   UNL     1      36.997 -21.291 -17.048  0.00  0.00    +0.002 C 
BRANCH  21  22
ATOM     22  C   UNL     1      36.696 -21.319 -15.551  0.00  0.00    +0.108 C 
BRANCH  22  24
ATOM     23  O   UNL     1      34.056 -22.728 -15.153  0.00  0.00    -0.247 OA
ATOM     24  N   UNL     1      36.432 -22.647 -15.067  0.00  0.00    -0.280 N 
ATOM     25  N   UNL     1      35.371 -24.545 -14.408  0.00  0.00    -0.305 N 
ATOM     26  C   UNL     1      37.403 -23.581 -14.669  0.00  0.00    +0.079 A 
ATOM     27  C   UNL     1      35.142 -23.234 -14.910  0.00  0.00    +0.328 A 
ATOM     28  C   UNL     1      36.746 -24.742 -14.266  0.00  0.00    +0.076 A 
ATOM     29  C   UNL     1      38.779 -23.485 -14.638  0.00  0.00    +0.019 C 
ATOM     30  C   UNL     1      37.419 -25.855 -13.817  0.00  0.00    +0.019 C 
ATOM     31  C   UNL     1      39.486 -24.603 -14.184  0.00  0.00    +0.002 C 
ATOM     32  C   UNL     1      38.815 -25.776 -13.779  0.00  0.00    +0.002 C 
ATOM     33  H   UNL     1      34.673 -25.207 -14.194  0.00  0.00    +0.170 HD
ENDBRANCH  22  24
ENDBRANCH  21  22
ENDBRANCH  20  21
ENDBRANCH   1  20
TORSDOF 5
ENDMDL
MODEL 4
REMARK VINA RESULT:     -11.8      2.455      8.562
REMARK  Name = 3151
REMARK  5 active torsions:
REMARK  status: ('A' for Active; 'I' for Inactive)
REMARK    1  A    between atoms: N_1  and  C_20
REMARK    2  A    between atoms: C_2  and  N_10
REMARK    3  A    between atoms: C_20  and  C_21
REMARK    4  A    between atoms: C_21  and  C_22
REMARK    5  A    between atoms: C_22  and  N_24
REMARK                            x       y       z     vdW  Elec       q    Type
REMARK                         _______ _______ _______ _____ _____    ______ ____
ROOT
ATOM      1  N   UNL     1      34.419 -15.946 -23.664  0.00  0.00    +0.387 N 
ATOM      2  C   UNL     1      34.381 -13.022 -23.632  0.00  0.00    +0.086 C 
ATOM      3  C   UNL     1      34.929 -13.843 -22.465  0.00  0.00    -0.000 C 
ATOM      4  C   UNL     1      33.364 -13.843 -24.424  0.00  0.00    -0.000 C 
ATOM      5  C   UNL     1      35.457 -15.198 -22.940  0.00  0.00    -0.075 C 
ATOM      6  C   UNL     1      33.944 -15.197 -24.835  0.00  0.00    -0.075 C 
ATOM      7  H   UNL     1      33.629 -16.079 -23.034  0.00  0.00    -0.080 HD
ENDROOT
BRANCH   2  10
ATOM      8 CL   UNL     1      30.563 -10.335 -18.505  0.00  0.00    -0.082 Cl
ATOM      9  O   UNL     1      34.470 -10.230 -24.828  0.00  0.00    -0.247 OA
ATOM     10  N   UNL     1      33.800 -11.789 -23.162  0.00  0.00    -0.282 N 
ATOM     11  N   UNL     1      33.162  -9.623 -22.953  0.00  0.00    -0.305 N 
ATOM     12  C   UNL     1      33.042 -11.670 -21.989  0.00  0.00    +0.079 A 
ATOM     13  C   UNL     1      33.891 -10.516 -23.789  0.00  0.00    +0.328 A 
ATOM     14  C   UNL     1      32.654 -10.337 -21.867  0.00  0.00    +0.077 A 
ATOM     15  C   UNL     1      32.681 -12.615 -21.051  0.00  0.00    +0.020 C 
ATOM     16  C   UNL     1      31.893  -9.883 -20.813  0.00  0.00    +0.030 C 
ATOM     17  C   UNL     1      31.907 -12.178 -19.971  0.00  0.00    +0.013 C 
ATOM     18  C   UNL     1      31.517 -10.828 -19.854  0.00  0.00    +0.059 C 
ATOM     19  H   UNL     1      33.037  -8.661 -23.115  0.00  0.00    +0.170 HD
ENDBRANCH   2  10
BRANCH   1  20
ATOM     20  C   UNL     1      34.924 -17.260 -24.068  0.00  0.00    -0.075 C 
BRANCH  20  21
ATOM     21  C   UNL     1      34.564 -18.347 -23.052  0.00  0.00    +0.002 C 
BRANCH  21  22
ATOM     22  C   UNL     1      34.512 -17.866 -21.603  0.00  0.00    +0.108 C 
BRANCH  22  24
ATOM     23  O   UNL     1      37.494 -17.944 -21.141  0.00  0.00    -0.247 OA
ATOM     24  N   UNL     1      35.278 -18.700 -20.717  0.00  0.00    -0.280 N 
ATOM     25  N   UNL     1      37.002 -19.659 -19.590  0.00  0.00    -0.305 N 
ATOM     26  C   UNL     1      34.754 -19.682 -19.860  0.00  0.00    +0.079 A 
ATOM     27  C   UNL     1      36.695 -18.668 -20.564  0.00  0.00    +0.328 A 
ATOM     28  C   UNL     1      35.816 -20.266 -19.172  0.00  0.00    +0.076 A 
ATOM     29  C   UNL     1      33.451 -20.085 -19.649  0.00  0.00    +0.019 C 
ATOM     30  C   UNL     1      35.636 -21.270 -18.248  0.00  0.00    +0.019 C 
ATOM     31  C   UNL     1      33.242 -21.104 -18.715  0.00  0.00    +0.002 C 
ATOM     32  C   UNL     1      34.322 -21.690 -18.021  0.00  0.00    +0.002 C 
ATOM     33  H   UNL     1      37.905 -19.882 -19.263  0.00  0.00    +0.170 HD
ENDBRANCH  22  24
ENDBRANCH  21  22
ENDBRANCH  20  21
ENDBRANCH   1  20
TORSDOF 5
ENDMDL
MODEL 5
REMARK VINA RESULT:     -11.7      3.557      9.386
REMARK  Name = 3151
REMARK  5 active torsions:
REMARK  status: ('A' for Active; 'I' for Inactive)
REMARK    1  A    between atoms: N_1  and  C_20
REMARK    2  A    between atoms: C_2  and  N_10
REMARK    3  A    between atoms: C_20  and  C_21
REMARK    4  A    between atoms: C_21  and  C_22
REMARK    5  A    between atoms: C_22  and  N_24
REMARK                            x       y       z     vdW  Elec       q    Type
REMARK                         _______ _______ _______ _____ _____    ______ ____
ROOT
ATOM      1  N   UNL     1      34.566 -15.899 -23.335  0.00  0.00    +0.387 N 
ATOM      2  C   UNL     1      34.274 -13.002 -23.061  0.00  0.00    +0.086 C 
ATOM      3  C   UNL     1      34.744 -13.887 -21.906  0.00  0.00    -0.000 C 
ATOM      4  C   UNL     1      33.436 -13.818 -24.045  0.00  0.00    -0.000 C 
ATOM      5  C   UNL     1      35.439 -15.148 -22.422  0.00  0.00    -0.075 C 
ATOM      6  C   UNL     1      34.176 -15.080 -24.490  0.00  0.00    -0.075 C 
ATOM      7  H   UNL     1      33.720 -16.150 -22.826  0.00  0.00    -0.080 HD
ENDROOT
BRANCH   2  10
ATOM      8 CL   UNL     1      33.470  -6.168 -23.915  0.00  0.00    -0.082 Cl
ATOM      9  O   UNL     1      32.160 -12.828 -20.885  0.00  0.00    -0.247 OA
ATOM     10  N   UNL     1      33.536 -11.865 -22.568  0.00  0.00    -0.282 N 
ATOM     11  N   UNL     1      32.119 -10.523 -21.415  0.00  0.00    -0.305 N 
ATOM     12  C   UNL     1      33.686 -10.558 -23.050  0.00  0.00    +0.079 A 
ATOM     13  C   UNL     1      32.556 -11.873 -21.539  0.00  0.00    +0.328 A 
ATOM     14  C   UNL     1      32.812  -9.739 -22.337  0.00  0.00    +0.077 A 
ATOM     15  C   UNL     1      34.505 -10.051 -24.037  0.00  0.00    +0.020 C 
ATOM     16  C   UNL     1      32.713  -8.386 -22.570  0.00  0.00    +0.030 C 
ATOM     17  C   UNL     1      34.423  -8.679 -24.292  0.00  0.00    +0.013 C 
ATOM     18  C   UNL     1      33.537  -7.855 -23.566  0.00  0.00    +0.059 C 
ATOM     19  H   UNL     1      31.439 -10.198 -20.783  0.00  0.00    +0.170 HD
ENDBRANCH   2  10
BRANCH   1  20
ATOM     20  C   UNL     1      35.228 -17.127 -23.779  0.00  0.00    -0.075 C 
BRANCH  20  21
ATOM     21  C   UNL     1      34.721 -18.357 -23.020  0.00  0.00    +0.002 C 
BRANCH  21  22
ATOM     22  C   UNL     1      34.361 -18.093 -21.559  0.00  0.00    +0.108 C 
BRANCH  22  24
ATOM     23  O   UNL     1      37.339 -17.958 -21.081  0.00  0.00    -0.247 OA
ATOM     24  N   UNL     1      35.175 -18.848 -20.646  0.00  0.00    -0.280 N 
ATOM     25  N   UNL     1      36.952 -19.657 -19.483  0.00  0.00    -0.305 N 
ATOM     26  C   UNL     1      34.713 -19.837 -19.763  0.00  0.00    +0.079 A 
ATOM     27  C   UNL     1      36.586 -18.717 -20.487  0.00  0.00    +0.328 A 
ATOM     28  C   UNL     1      35.807 -20.329 -19.053  0.00  0.00    +0.076 A 
ATOM     29  C   UNL     1      33.438 -20.320 -19.547  0.00  0.00    +0.019 C 
ATOM     30  C   UNL     1      35.687 -21.316 -18.102  0.00  0.00    +0.019 C 
ATOM     31  C   UNL     1      33.291 -21.324 -18.584  0.00  0.00    +0.002 C 
ATOM     32  C   UNL     1      34.403 -21.817 -17.869  0.00  0.00    +0.002 C 
ATOM     33  H   UNL     1      37.865 -19.809 -19.146  0.00  0.00    +0.170 HD
ENDBRANCH  22  24
ENDBRANCH  21  22
ENDBRANCH  20  21
ENDBRANCH   1  20
TORSDOF 5
ENDMDL
MODEL 6
REMARK VINA RESULT:     -11.6      1.342      2.142
REMARK  Name = 3151
REMARK  5 active torsions:
REMARK  status: ('A' for Active; 'I' for Inactive)
REMARK    1  A    between atoms: N_1  and  C_20
REMARK    2  A    between atoms: C_2  and  N_10
REMARK    3  A    between atoms: C_20  and  C_21
REMARK    4  A    between atoms: C_21  and  C_22
REMARK    5  A    between atoms: C_22  and  N_24
REMARK                            x       y       z     vdW  Elec       q    Type
REMARK                         _______ _______ _______ _____ _____    ______ ____
ROOT
ATOM      1  N   UNL     1      35.327 -15.715 -23.252  0.00  0.00    +0.387 N 
ATOM      2  C   UNL     1      35.015 -17.861 -21.288  0.00  0.00    +0.086 C 
ATOM      3  C   UNL     1      35.485 -16.460 -20.898  0.00  0.00    -0.000 C 
ATOM      4  C   UNL     1      35.341 -18.138 -22.756  0.00  0.00    -0.000 C 
ATOM      5  C   UNL     1      34.948 -15.404 -21.866  0.00  0.00    -0.075 C 
ATOM      6  C   UNL     1      34.808 -17.027 -23.662  0.00  0.00    -0.075 C 
ATOM      7  H   UNL     1      36.344 -15.750 -23.300  0.00  0.00    -0.080 HD
ENDROOT
BRANCH   2  10
ATOM      8 CL   UNL     1      33.412 -23.007 -16.926  0.00  0.00    -0.082 Cl
ATOM      9  O   UNL     1      37.933 -18.480 -20.711  0.00  0.00    -0.247 OA
ATOM     10  N   UNL     1      35.602 -18.857 -20.428  0.00  0.00    -0.282 N 
ATOM     11  N   UNL     1      37.067 -20.161 -19.291  0.00  0.00    -0.305 N 
ATOM     12  C   UNL     1      34.866 -19.770 -19.662  0.00  0.00    +0.079 A 
ATOM     13  C   UNL     1      36.989 -19.080 -20.215  0.00  0.00    +0.328 A 
ATOM     14  C   UNL     1      35.773 -20.568 -18.966  0.00  0.00    +0.077 A 
ATOM     15  C   UNL     1      33.504 -19.948 -19.534  0.00  0.00    +0.020 C 
ATOM     16  C   UNL     1      35.370 -21.574 -18.115  0.00  0.00    +0.030 C 
ATOM     17  C   UNL     1      33.070 -20.962 -18.675  0.00  0.00    +0.013 C 
ATOM     18  C   UNL     1      33.993 -21.766 -17.974  0.00  0.00    +0.059 C 
ATOM     19  H   UNL     1      37.897 -20.557 -18.941  0.00  0.00    +0.170 HD
ENDBRANCH   2  10
BRANCH   1  20
ATOM     20  C   UNL     1      34.848 -14.670 -24.159  0.00  0.00    -0.075 C 
BRANCH  20  21
ATOM     21  C   UNL     1      33.817 -13.759 -23.488  0.00  0.00    +0.002 C 
BRANCH  21  22
ATOM     22  C   UNL     1      34.403 -12.495 -22.863  0.00  0.00    +0.108 C 
BRANCH  22  24
ATOM     23  O   UNL     1      32.419 -13.106 -20.672  0.00  0.00    -0.247 OA
ATOM     24  N   UNL     1      33.396 -11.650 -22.280  0.00  0.00    -0.280 N 
ATOM     25  N   UNL     1      31.691 -10.880 -20.991  0.00  0.00    -0.305 N 
ATOM     26  C   UNL     1      33.136 -10.317 -22.640  0.00  0.00    +0.079 A 
ATOM     27  C   UNL     1      32.496 -12.026 -21.241  0.00  0.00    +0.328 A 
ATOM     28  C   UNL     1      32.090  -9.852 -21.847  0.00  0.00    +0.076 A 
ATOM     29  C   UNL     1      33.736  -9.512 -23.587  0.00  0.00    +0.019 C 
ATOM     30  C   UNL     1      31.593  -8.572 -21.954  0.00  0.00    +0.019 C 
ATOM     31  C   UNL     1      33.249  -8.208 -23.715  0.00  0.00    +0.002 C 
ATOM     32  C   UNL     1      32.190  -7.742 -22.907  0.00  0.00    +0.002 C 
ATOM     33  H   UNL     1      30.968 -10.821 -20.323  0.00  0.00    +0.170 HD
ENDBRANCH  22  24
ENDBRANCH  21  22
ENDBRANCH  20  21
ENDBRANCH   1  20
TORSDOF 5
ENDMDL
MODEL 7
REMARK VINA RESULT:     -11.6      3.585      6.012
REMARK  Name = 3151
REMARK  5 active torsions:
REMARK  status: ('A' for Active; 'I' for Inactive)
REMARK    1  A    between atoms: N_1  and  C_20
REMARK    2  A    between atoms: C_2  and  N_10
REMARK    3  A    between atoms: C_20  and  C_21
REMARK    4  A    between atoms: C_21  and  C_22
REMARK    5  A    between atoms: C_22  and  N_24
REMARK                            x       y       z     vdW  Elec       q    Type
REMARK                         _______ _______ _______ _____ _____    ______ ____
ROOT
ATOM      1  N   UNL     1      35.310 -19.929 -19.391  0.00  0.00    +0.387 N 
ATOM      2  C   UNL     1      34.227 -21.988 -17.618  0.00  0.00    +0.086 C 
ATOM      3  C   UNL     1      33.329 -21.022 -18.390  0.00  0.00    -0.000 C 
ATOM      4  C   UNL     1      35.608 -21.368 -17.402  0.00  0.00    -0.000 C 
ATOM      5  C   UNL     1      34.005 -20.543 -19.676  0.00  0.00    -0.075 C 
ATOM      6  C   UNL     1      36.208 -20.879 -18.721  0.00  0.00    -0.075 C 
ATOM      7  H   UNL     1      35.158 -19.143 -18.762  0.00  0.00    -0.080 HD
ENDROOT
BRANCH   2  10
ATOM      8 CL   UNL     1      35.738 -24.119 -11.195  0.00  0.00    -0.082 Cl
ATOM      9  O   UNL     1      31.301 -22.097 -16.805  0.00  0.00    -0.247 OA
ATOM     10  N   UNL     1      33.622 -22.358 -16.362  0.00  0.00    -0.282 N 
ATOM     11  N   UNL     1      32.136 -22.810 -14.711  0.00  0.00    -0.305 N 
ATOM     12  C   UNL     1      34.341 -22.758 -15.228  0.00  0.00    +0.079 A 
ATOM     13  C   UNL     1      32.233 -22.381 -16.066  0.00  0.00    +0.328 A 
ATOM     14  C   UNL     1      33.422 -23.034 -14.217  0.00  0.00    +0.077 A 
ATOM     15  C   UNL     1      35.699 -22.892 -15.024  0.00  0.00    +0.020 C 
ATOM     16  C   UNL     1      33.807 -23.454 -12.964  0.00  0.00    +0.030 C 
ATOM     17  C   UNL     1      36.114 -23.319 -13.759  0.00  0.00    +0.013 C 
ATOM     18  C   UNL     1      35.179 -23.596 -12.740  0.00  0.00    +0.059 C 
ATOM     19  H   UNL     1      31.300 -22.927 -14.206  0.00  0.00    +0.170 HD
ENDBRANCH   2  10
BRANCH   1  20
ATOM     20  C   UNL     1      35.921 -19.433 -20.625  0.00  0.00    -0.075 C 
BRANCH  20  21
ATOM     21  C   UNL     1      35.155 -18.238 -21.201  0.00  0.00    +0.002 C 
BRANCH  21  22
ATOM     22  C   UNL     1      36.036 -17.054 -21.595  0.00  0.00    +0.108 C 
BRANCH  22  24
ATOM     23  O   UNL     1      35.291 -15.096 -19.422  0.00  0.00    -0.247 OA
ATOM     24  N   UNL     1      35.298 -15.824 -21.687  0.00  0.00    -0.280 N 
ATOM     25  N   UNL     1      34.253 -13.876 -21.160  0.00  0.00    -0.305 N 
ATOM     26  C   UNL     1      34.760 -15.278 -22.864  0.00  0.00    +0.079 A 
ATOM     27  C   UNL     1      34.990 -14.956 -20.599  0.00  0.00    +0.328 A 
ATOM     28  C   UNL     1      34.121 -14.085 -22.534  0.00  0.00    +0.076 A 
ATOM     29  C   UNL     1      34.792 -15.743 -24.163  0.00  0.00    +0.019 C 
ATOM     30  C   UNL     1      33.488 -13.301 -23.472  0.00  0.00    +0.019 C 
ATOM     31  C   UNL     1      34.155 -14.964 -25.135  0.00  0.00    +0.002 C 
ATOM     32  C   UNL     1      33.511 -13.756 -24.794  0.00  0.00    +0.002 C 
ATOM     33  H   UNL     1      33.893 -13.106 -20.661  0.00  0.00    +0.170 HD
ENDBRANCH  22  24
ENDBRANCH  21  22
ENDBRANCH  20  21
ENDBRANCH   1  20
TORSDOF 5
ENDMDL
MODEL 8
REMARK VINA RESULT:     -11.3      4.022      9.877
REMARK  Name = 3151
REMARK  5 active torsions:
REMARK  status: ('A' for Active; 'I' for Inactive)
REMARK    1  A    between atoms: N_1  and  C_20
REMARK    2  A    between atoms: C_2  and  N_10
REMARK    3  A    between atoms: C_20  and  C_21
REMARK    4  A    between atoms: C_21  and  C_22
REMARK    5  A    between atoms: C_22  and  N_24
REMARK                            x       y       z     vdW  Elec       q    Type
REMARK                         _______ _______ _______ _____ _____    ______ ____
ROOT
ATOM      1  N   UNL     1      35.893 -20.232 -19.930  0.00  0.00    +0.387 N 
ATOM      2  C   UNL     1      35.181 -17.653 -21.111  0.00  0.00    +0.086 C 
ATOM      3  C   UNL     1      34.204 -18.828 -21.069  0.00  0.00    -0.000 C 
ATOM      4  C   UNL     1      36.622 -18.161 -21.068  0.00  0.00    -0.000 C 
ATOM      5  C   UNL     1      34.503 -19.755 -19.890  0.00  0.00    -0.075 C 
ATOM      6  C   UNL     1      36.841 -19.110 -19.889  0.00  0.00    -0.075 C 
ATOM      7  H   UNL     1      36.031 -20.728 -20.810  0.00  0.00    -0.080 HD
ENDROOT
BRANCH   2  10
ATOM      8 CL   UNL     1      34.221 -11.093 -23.144  0.00  0.00    -0.082 Cl
ATOM      9  O   UNL     1      34.918 -18.440 -24.034  0.00  0.00    -0.247 OA
ATOM     10  N   UNL     1      34.953 -16.838 -22.278  0.00  0.00    -0.282 N 
ATOM     11  N   UNL     1      34.621 -16.123 -24.404  0.00  0.00    -0.305 N 
ATOM     12  C   UNL     1      34.803 -15.444 -22.250  0.00  0.00    +0.079 A 
ATOM     13  C   UNL     1      34.842 -17.292 -23.620  0.00  0.00    +0.328 A 
ATOM     14  C   UNL     1      34.600 -15.013 -23.560  0.00  0.00    +0.077 A 
ATOM     15  C   UNL     1      34.833 -14.557 -21.195  0.00  0.00    +0.020 C 
ATOM     16  C   UNL     1      34.417 -13.686 -23.880  0.00  0.00    +0.030 C 
ATOM     17  C   UNL     1      34.649 -13.203 -21.495  0.00  0.00    +0.013 C 
ATOM     18  C   UNL     1      34.443 -12.773 -22.822  0.00  0.00    +0.059 C 
ATOM     19  H   UNL     1      34.503 -16.103 -25.381  0.00  0.00    +0.170 HD
ENDBRANCH   2  10
BRANCH   1  20
ATOM     20  C   UNL     1      36.148 -21.157 -18.824  0.00  0.00    -0.075 C 
BRANCH  20  21
ATOM     21  C   UNL     1      34.999 -21.169 -17.813  0.00  0.00    +0.002 C 
BRANCH  21  22
ATOM     22  C   UNL     1      34.472 -22.561 -17.471  0.00  0.00    +0.108 C 
BRANCH  22  24
ATOM     23  O   UNL     1      36.395 -23.081 -15.204  0.00  0.00    -0.247 OA
ATOM     24  N   UNL     1      34.208 -22.722 -16.067  0.00  0.00    -0.280 N 
ATOM     25  N   UNL     1      34.468 -23.053 -13.834  0.00  0.00    -0.305 N 
ATOM     26  C   UNL     1      32.942 -22.664 -15.461  0.00  0.00    +0.079 A 
ATOM     27  C   UNL     1      35.186 -22.967 -15.060  0.00  0.00    +0.328 A 
ATOM     28  C   UNL     1      33.109 -22.868 -14.092  0.00  0.00    +0.076 A 
ATOM     29  C   UNL     1      31.694 -22.450 -16.010  0.00  0.00    +0.019 C 
ATOM     30  C   UNL     1      32.052 -22.869 -13.211  0.00  0.00    +0.019 C 
ATOM     31  C   UNL     1      30.604 -22.448 -15.134  0.00  0.00    +0.002 C 
ATOM     32  C   UNL     1      30.780 -22.654 -13.750  0.00  0.00    +0.002 C 
ATOM     33  H   UNL     1      34.865 -23.218 -12.947  0.00  0.00    +0.170 HD
ENDBRANCH  22  24
ENDBRANCH  21  22
ENDBRANCH  20  21
ENDBRANCH   1  20
TORSDOF 5
ENDMDL
MODEL 9
REMARK VINA RESULT:     -11.3      1.773      2.450
REMARK  Name = 3151
REMARK  5 active torsions:
REMARK  status: ('A' for Active; 'I' for Inactive)
REMARK    1  A    between atoms: N_1  and  C_20
REMARK    2  A    between atoms: C_2  and  N_10
REMARK    3  A    between atoms: C_20  and  C_21
REMARK    4  A    between atoms: C_21  and  C_22
REMARK    5  A    between atoms: C_22  and  N_24
REMARK                            x       y       z     vdW  Elec       q    Type
REMARK                         _______ _______ _______ _____ _____    ______ ____
ROOT
ATOM      1  N   UNL     1      34.926 -16.648 -22.524  0.00  0.00    +0.387 N 
ATOM      2  C   UNL     1      35.180 -18.952 -20.739  0.00  0.00    +0.086 C 
ATOM      3  C   UNL     1      34.503 -19.050 -22.106  0.00  0.00    -0.000 C 
ATOM      4  C   UNL     1      35.108 -17.517 -20.216  0.00  0.00    -0.000 C 
ATOM      5  C   UNL     1      35.057 -18.005 -23.075  0.00  0.00    -0.075 C 
ATOM      6  C   UNL     1      35.643 -16.523 -21.248  0.00  0.00    -0.075 C 
ATOM      7  H   UNL     1      33.937 -16.474 -22.348  0.00  0.00    -0.080 HD
ENDROOT
BRANCH   2  10
ATOM      8 CL   UNL     1      36.620 -22.888 -15.215  0.00  0.00    -0.082 Cl
ATOM      9  O   UNL     1      32.328 -19.984 -20.544  0.00  0.00    -0.247 OA
ATOM     10  N   UNL     1      34.585 -19.876 -19.805  0.00  0.00    -0.282 N 
ATOM     11  N   UNL     1      33.132 -21.209 -18.688  0.00  0.00    -0.305 N 
ATOM     12  C   UNL     1      35.280 -20.493 -18.756  0.00  0.00    +0.079 A 
ATOM     13  C   UNL     1      33.232 -20.307 -19.786  0.00  0.00    +0.328 A 
ATOM     14  C   UNL     1      34.381 -21.311 -18.074  0.00  0.00    +0.077 A 
ATOM     15  C   UNL     1      36.600 -20.393 -18.369  0.00  0.00    +0.020 C 
ATOM     16  C   UNL     1      34.749 -22.063 -16.981  0.00  0.00    +0.030 C 
ATOM     17  C   UNL     1      36.999 -21.149 -17.262  0.00  0.00    +0.013 C 
ATOM     18  C   UNL     1      36.083 -21.975 -16.576  0.00  0.00    +0.059 C 
ATOM     19  H   UNL     1      32.315 -21.681 -18.408  0.00  0.00    +0.170 HD
ENDBRANCH   2  10
BRANCH   1  20
ATOM     20  C   UNL     1      35.414 -15.657 -23.484  0.00  0.00    -0.075 C 
BRANCH  20  21
ATOM     21  C   UNL     1      35.095 -14.226 -23.040  0.00  0.00    +0.002 C 
BRANCH  21  22
ATOM     22  C   UNL     1      33.712 -13.730 -23.454  0.00  0.00    +0.108 C 
BRANCH  22  24
ATOM     23  O   UNL     1      34.136 -10.997 -24.663  0.00  0.00    -0.247 OA
ATOM     24  N   UNL     1      33.406 -12.434 -22.913  0.00  0.00    -0.280 N 
ATOM     25  N   UNL     1      33.186 -10.187 -22.655  0.00  0.00    -0.305 N 
ATOM     26  C   UNL     1      32.824 -12.187 -21.658  0.00  0.00    +0.079 A 
ATOM     27  C   UNL     1      33.643 -11.186 -23.559  0.00  0.00    +0.328 A 
ATOM     28  C   UNL     1      32.692 -10.808 -21.507  0.00  0.00    +0.076 A 
ATOM     29  C   UNL     1      32.415 -13.063 -20.673  0.00  0.00    +0.019 C 
ATOM     30  C   UNL     1      32.152 -10.237 -20.377  0.00  0.00    +0.019 C 
ATOM     31  C   UNL     1      31.863 -12.506 -19.515  0.00  0.00    +0.002 C 
ATOM     32  C   UNL     1      31.731 -11.109 -19.369  0.00  0.00    +0.002 C 
ATOM     33  H   UNL     1      33.214  -9.215 -22.813  0.00  0.00    +0.170 HD
ENDBRANCH  22  24
ENDBRANCH  21  22
ENDBRANCH  20  21
ENDBRANCH   1  20
TORSDOF 5
ENDMDL
