MODEL 1
REMARK VINA RESULT:     -11.8      0.000      0.000
REMARK  Name = 3559
REMARK  7 active torsions:
REMARK  status: ('A' for Active; 'I' for Inactive)
REMARK    1  A    between atoms: N_1  and  C_17
REMARK    2  A    between atoms: C_2  and  C_9
REMARK    3  A    between atoms: C_2  and  O_15
REMARK    4  A    between atoms: C_17  and  C_18
REMARK    5  A    between atoms: C_18  and  C_19
REMARK    6  A    between atoms: C_19  and  C_21
REMARK    7  A    between atoms: C_21  and  C_23
REMARK                            x       y       z     vdW  Elec       q    Type
REMARK                         _______ _______ _______ _____ _____    ______ ____
ROOT
ATOM      1  N   UNL     1      33.409 -22.634 -14.966  0.00  0.00    +0.387 N 
ATOM      2  C   UNL     1      34.053 -22.000 -17.795  0.00  0.00    +0.103 C 
ATOM      3  C   UNL     1      35.107 -22.069 -16.667  0.00  0.00    +0.008 C 
ATOM      4  C   UNL     1      32.667 -21.744 -17.160  0.00  0.00    +0.008 C 
ATOM      5  C   UNL     1      34.708 -23.016 -15.529  0.00  0.00    -0.075 C 
ATOM      6  C   UNL     1      32.356 -22.681 -15.986  0.00  0.00    -0.075 C 
ATOM      7  H   UNL     1      33.480 -21.674 -14.631  0.00  0.00    -0.080 HD
ENDROOT
BRANCH   2   9
ATOM      8 CL   UNL     1      35.193 -17.930 -22.107  0.00  0.00    -0.082 Cl
ATOM      9  C   UNL     1      34.341 -20.968 -18.886  0.00  0.00    +0.002 C 
ATOM     10  C   UNL     1      33.287 -20.349 -19.555  0.00  0.00    -0.001 C 
ATOM     11  C   UNL     1      35.659 -20.650 -19.212  0.00  0.00    -0.001 C 
ATOM     12  C   UNL     1      33.550 -19.408 -20.551  0.00  0.00    +0.011 C 
ATOM     13  C   UNL     1      35.922 -19.709 -20.208  0.00  0.00    +0.011 C 
ATOM     14  C   UNL     1      34.868 -19.089 -20.877  0.00  0.00    +0.058 C 
ENDBRANCH   2   9
BRANCH   2  15
ATOM     15  O   UNL     1      34.045 -23.270 -18.464  0.00  0.00    -0.383 OA
ATOM     16  H   UNL     1      33.843 -23.971 -17.824  0.00  0.00    +0.211 HD
ENDBRANCH   2  15
BRANCH   1  17
ATOM     17  C   UNL     1      33.067 -23.498 -13.835  0.00  0.00    -0.077 C 
BRANCH  17  18
ATOM     18  C   UNL     1      34.334 -24.111 -13.236  0.00  0.00    -0.015 C 
BRANCH  18  19
ATOM     19  C   UNL     1      34.755 -23.420 -11.936  0.00  0.00    +0.067 C 
BRANCH  19  21
ATOM     20  O   UNL     1      35.611 -24.634 -10.033  0.00  0.00    -0.291 OA
ATOM     21  C   UNL     1      35.816 -24.187 -11.160  0.00  0.00    +0.173 C 
BRANCH  21  23
ATOM     22  F   UNL     1      40.776 -25.075 -13.564  0.00  0.00    -0.204 F 
ATOM     23  C   UNL     1      37.140 -24.423 -11.803  0.00  0.00    +0.035 C 
ATOM     24  C   UNL     1      38.111 -23.455 -11.690  0.00  0.00    +0.005 C 
ATOM     25  C   UNL     1      37.343 -25.603 -12.486  0.00  0.00    +0.005 C 
ATOM     26  C   UNL     1      39.351 -23.677 -12.290  0.00  0.00    +0.030 C 
ATOM     27  C   UNL     1      38.582 -25.825 -13.085  0.00  0.00    +0.030 C 
ATOM     28  C   UNL     1      39.587 -24.862 -12.987  0.00  0.00    +0.140 C 
ENDBRANCH  21  23
ENDBRANCH  19  21
ENDBRANCH  18  19
ENDBRANCH  17  18
ENDBRANCH   1  17
TORSDOF 7
ENDMDL
MODEL 2
REMARK VINA RESULT:     -11.0      5.600     11.005
REMARK  Name = 3559
REMARK  7 active torsions:
REMARK  status: ('A' for Active; 'I' for Inactive)
REMARK    1  A    between atoms: N_1  and  C_17
REMARK    2  A    between atoms: C_2  and  C_9
REMARK    3  A    between atoms: C_2  and  O_15
REMARK    4  A    between atoms: C_17  and  C_18
REMARK    5  A    between atoms: C_18  and  C_19
REMARK    6  A    between atoms: C_19  and  C_21
REMARK    7  A    between atoms: C_21  and  C_23
REMARK                            x       y       z     vdW  Elec       q    Type
REMARK                         _______ _______ _______ _____ _____    ______ ____
ROOT
ATOM      1  N   UNL     1      35.536 -19.584 -19.518  0.00  0.00    +0.387 N 
ATOM      2  C   UNL     1      34.176 -21.796 -18.076  0.00  0.00    +0.103 C 
ATOM      3  C   UNL     1      33.432 -20.621 -18.750  0.00  0.00    +0.008 C 
ATOM      4  C   UNL     1      35.628 -21.355 -17.782  0.00  0.00    +0.008 C 
ATOM      5  C   UNL     1      34.200 -20.022 -19.934  0.00  0.00    -0.075 C 
ATOM      6  C   UNL     1      36.320 -20.705 -18.988  0.00  0.00    -0.075 C 
ATOM      7  H   UNL     1      35.425 -18.897 -18.772  0.00  0.00    -0.080 HD
ENDROOT
BRANCH   2   9
ATOM      8 CL   UNL     1      31.560 -23.941 -13.075  0.00  0.00    -0.082 Cl
ATOM      9  C   UNL     1      33.514 -22.338 -16.809  0.00  0.00    +0.002 C 
ATOM     10  C   UNL     1      34.297 -22.873 -15.788  0.00  0.00    -0.001 C 
ATOM     11  C   UNL     1      32.126 -22.297 -16.676  0.00  0.00    -0.001 C 
ATOM     12  C   UNL     1      33.693 -23.368 -14.632  0.00  0.00    +0.011 C 
ATOM     13  C   UNL     1      31.522 -22.792 -15.521  0.00  0.00    +0.011 C 
ATOM     14  C   UNL     1      32.306 -23.328 -14.500  0.00  0.00    +0.058 C 
ENDBRANCH   2   9
BRANCH   2  15
ATOM     15  O   UNL     1      34.187 -22.894 -19.000  0.00  0.00    -0.383 OA
ATOM     16  H   UNL     1      33.442 -22.807 -19.615  0.00  0.00    +0.211 HD
ENDBRANCH   2  15
BRANCH   1  17
ATOM     17  C   UNL     1      36.239 -18.950 -20.635  0.00  0.00    -0.077 C 
BRANCH  17  18
ATOM     18  C   UNL     1      35.234 -18.449 -21.675  0.00  0.00    -0.015 C 
BRANCH  18  19
ATOM     19  C   UNL     1      35.828 -17.367 -22.581  0.00  0.00    +0.067 C 
BRANCH  19  21
ATOM     20  O   UNL     1      34.278 -17.557 -24.422  0.00  0.00    -0.291 OA
ATOM     21  C   UNL     1      34.839 -16.829 -23.606  0.00  0.00    +0.173 C 
BRANCH  21  23
ATOM     22  F   UNL     1      33.672 -11.369 -23.586  0.00  0.00    -0.204 F 
ATOM     23  C   UNL     1      34.526 -15.371 -23.599  0.00  0.00    +0.035 C 
ATOM     24  C   UNL     1      34.946 -14.611 -22.532  0.00  0.00    +0.005 C 
ATOM     25  C   UNL     1      33.830 -14.840 -24.664  0.00  0.00    +0.005 C 
ATOM     26  C   UNL     1      34.654 -13.246 -22.527  0.00  0.00    +0.030 C 
ATOM     27  C   UNL     1      33.539 -13.476 -24.659  0.00  0.00    +0.030 C 
ATOM     28  C   UNL     1      33.952 -12.679 -23.590  0.00  0.00    +0.140 C 
ENDBRANCH  21  23
ENDBRANCH  19  21
ENDBRANCH  18  19
ENDBRANCH  17  18
ENDBRANCH   1  17
TORSDOF 7
ENDMDL
MODEL 3
REMARK VINA RESULT:     -11.0      5.760     10.588
REMARK  Name = 3559
REMARK  7 active torsions:
REMARK  status: ('A' for Active; 'I' for Inactive)
REMARK    1  A    between atoms: N_1  and  C_17
REMARK    2  A    between atoms: C_2  and  C_9
REMARK    3  A    between atoms: C_2  and  O_15
REMARK    4  A    between atoms: C_17  and  C_18
REMARK    5  A    between atoms: C_18  and  C_19
REMARK    6  A    between atoms: C_19  and  C_21
REMARK    7  A    between atoms: C_21  and  C_23
REMARK                            x       y       z     vdW  Elec       q    Type
REMARK                         _______ _______ _______ _____ _____    ______ ____
ROOT
ATOM      1  N   UNL     1      35.017 -19.516 -19.900  0.00  0.00    +0.387 N 
ATOM      2  C   UNL     1      34.033 -21.771 -18.236  0.00  0.00    +0.103 C 
ATOM      3  C   UNL     1      33.122 -20.662 -18.809  0.00  0.00    +0.008 C 
ATOM      4  C   UNL     1      35.481 -21.234 -18.170  0.00  0.00    +0.008 C 
ATOM      5  C   UNL     1      33.665 -20.047 -20.104  0.00  0.00    -0.075 C 
ATOM      6  C   UNL     1      35.942 -20.573 -19.476  0.00  0.00    -0.075 C 
ATOM      7  H   UNL     1      34.973 -18.819 -19.157  0.00  0.00    -0.080 HD
ENDROOT
BRANCH   2   9
ATOM      8 CL   UNL     1      32.335 -23.947 -12.865  0.00  0.00    -0.082 Cl
ATOM      9  C   UNL     1      33.603 -22.321 -16.875  0.00  0.00    +0.002 C 
ATOM     10  C   UNL     1      34.566 -22.721 -15.950  0.00  0.00    -0.001 C 
ATOM     11  C   UNL     1      32.248 -22.422 -16.562  0.00  0.00    -0.001 C 
ATOM     12  C   UNL     1      34.174 -23.223 -14.709  0.00  0.00    +0.011 C 
ATOM     13  C   UNL     1      31.856 -22.924 -15.321  0.00  0.00    +0.011 C 
ATOM     14  C   UNL     1      32.819 -23.325 -14.396  0.00  0.00    +0.058 C 
ENDBRANCH   2   9
BRANCH   2  15
ATOM     15  O   UNL     1      33.978 -22.890 -19.134  0.00  0.00    -0.383 OA
ATOM     16  H   UNL     1      33.285 -22.739 -19.795  0.00  0.00    +0.211 HD
ENDBRANCH   2  15
BRANCH   1  17
ATOM     17  C   UNL     1      35.503 -18.869 -21.119  0.00  0.00    -0.077 C 
BRANCH  17  18
ATOM     18  C   UNL     1      36.146 -17.522 -20.782  0.00  0.00    -0.015 C 
BRANCH  18  19
ATOM     19  C   UNL     1      35.366 -16.342 -21.370  0.00  0.00    +0.067 C 
BRANCH  19  21
ATOM     20  O   UNL     1      35.370 -15.356 -19.167  0.00  0.00    -0.291 OA
ATOM     21  C   UNL     1      35.022 -15.273 -20.343  0.00  0.00    +0.173 C 
BRANCH  21  23
ATOM     22  F   UNL     1      32.147 -10.789 -22.015  0.00  0.00    -0.204 F 
ATOM     23  C   UNL     1      34.255 -14.075 -20.788  0.00  0.00    +0.035 C 
ATOM     24  C   UNL     1      34.677 -13.402 -21.913  0.00  0.00    +0.005 C 
ATOM     25  C   UNL     1      33.152 -13.687 -20.059  0.00  0.00    +0.005 C 
ATOM     26  C   UNL     1      33.958 -12.281 -22.331  0.00  0.00    +0.030 C 
ATOM     27  C   UNL     1      32.434 -12.567 -20.477  0.00  0.00    +0.030 C 
ATOM     28  C   UNL     1      32.837 -11.864 -21.614  0.00  0.00    +0.140 C 
ENDBRANCH  21  23
ENDBRANCH  19  21
ENDBRANCH  18  19
ENDBRANCH  17  18
ENDBRANCH   1  17
TORSDOF 7
ENDMDL
MODEL 4
REMARK VINA RESULT:     -10.8      7.495     12.251
REMARK  Name = 3559
REMARK  7 active torsions:
REMARK  status: ('A' for Active; 'I' for Inactive)
REMARK    1  A    between atoms: N_1  and  C_17
REMARK    2  A    between atoms: C_2  and  C_9
REMARK    3  A    between atoms: C_2  and  O_15
REMARK    4  A    between atoms: C_17  and  C_18
REMARK    5  A    between atoms: C_18  and  C_19
REMARK    6  A    between atoms: C_19  and  C_21
REMARK    7  A    between atoms: C_21  and  C_23
REMARK                            x       y       z     vdW  Elec       q    Type
REMARK                         _______ _______ _______ _____ _____    ______ ____
ROOT
ATOM      1  N   UNL     1      34.700 -15.437 -22.466  0.00  0.00    +0.387 N 
ATOM      2  C   UNL     1      35.497 -17.930 -21.060  0.00  0.00    +0.103 C 
ATOM      3  C   UNL     1      34.899 -17.898 -22.485  0.00  0.00    +0.008 C 
ATOM      4  C   UNL     1      35.089 -16.632 -20.325  0.00  0.00    +0.008 C 
ATOM      5  C   UNL     1      35.189 -16.589 -23.229  0.00  0.00    -0.075 C 
ATOM      6  C   UNL     1      35.344 -15.363 -21.150  0.00  0.00    -0.075 C 
ATOM      7  H   UNL     1      33.698 -15.557 -22.319  0.00  0.00    -0.080 HD
ENDROOT
BRANCH   2   9
ATOM      8 CL   UNL     1      34.010 -22.772 -17.774  0.00  0.00    -0.082 Cl
ATOM      9  C   UNL     1      35.121 -19.157 -20.229  0.00  0.00    +0.002 C 
ATOM     10  C   UNL     1      33.780 -19.506 -20.071  0.00  0.00    -0.001 C 
ATOM     11  C   UNL     1      36.118 -19.925 -19.630  0.00  0.00    -0.001 C 
ATOM     12  C   UNL     1      33.437 -20.625 -19.312  0.00  0.00    +0.011 C 
ATOM     13  C   UNL     1      35.774 -21.043 -18.872  0.00  0.00    +0.011 C 
ATOM     14  C   UNL     1      34.434 -21.393 -18.713  0.00  0.00    +0.058 C 
ENDBRANCH   2   9
BRANCH   2  15
ATOM     15  O   UNL     1      36.926 -17.978 -21.186  0.00  0.00    -0.383 OA
ATOM     16  H   UNL     1      37.186 -17.631 -22.055  0.00  0.00    +0.211 HD
ENDBRANCH   2  15
BRANCH   1  17
ATOM     17  C   UNL     1      34.917 -14.197 -23.213  0.00  0.00    -0.077 C 
BRANCH  17  18
ATOM     18  C   UNL     1      34.500 -12.992 -22.367  0.00  0.00    -0.015 C 
BRANCH  18  19
ATOM     19  C   UNL     1      32.980 -12.808 -22.328  0.00  0.00    +0.067 C 
BRANCH  19  21
ATOM     20  O   UNL     1      32.134 -13.657 -20.233  0.00  0.00    -0.291 OA
ATOM     21  C   UNL     1      32.424 -12.678 -20.917  0.00  0.00    +0.173 C 
BRANCH  21  23
ATOM     22  F   UNL     1      31.781  -7.570 -18.758  0.00  0.00    -0.204 F 
ATOM     23  C   UNL     1      32.251 -11.314 -20.341  0.00  0.00    +0.035 C 
ATOM     24  C   UNL     1      32.054 -11.191 -18.984  0.00  0.00    +0.005 C 
ATOM     25  C   UNL     1      32.297 -10.228 -21.187  0.00  0.00    +0.005 C 
ATOM     26  C   UNL     1      31.893  -9.914 -18.444  0.00  0.00    +0.030 C 
ATOM     27  C   UNL     1      32.137  -8.952 -20.648  0.00  0.00    +0.030 C 
ATOM     28  C   UNL     1      31.935  -8.795 -19.276  0.00  0.00    +0.140 C 
ENDBRANCH  21  23
ENDBRANCH  19  21
ENDBRANCH  18  19
ENDBRANCH  17  18
ENDBRANCH   1  17
TORSDOF 7
ENDMDL
MODEL 5
REMARK VINA RESULT:     -10.7      6.762     11.960
REMARK  Name = 3559
REMARK  7 active torsions:
REMARK  status: ('A' for Active; 'I' for Inactive)
REMARK    1  A    between atoms: N_1  and  C_17
REMARK    2  A    between atoms: C_2  and  C_9
REMARK    3  A    between atoms: C_2  and  O_15
REMARK    4  A    between atoms: C_17  and  C_18
REMARK    5  A    between atoms: C_18  and  C_19
REMARK    6  A    between atoms: C_19  and  C_21
REMARK    7  A    between atoms: C_21  and  C_23
REMARK                            x       y       z     vdW  Elec       q    Type
REMARK                         _______ _______ _______ _____ _____    ______ ____
ROOT
ATOM      1  N   UNL     1      34.968 -16.009 -22.607  0.00  0.00    +0.387 N 
ATOM      2  C   UNL     1      35.550 -18.384 -20.921  0.00  0.00    +0.103 C 
ATOM      3  C   UNL     1      35.014 -18.466 -22.368  0.00  0.00    +0.008 C 
ATOM      4  C   UNL     1      35.193 -16.997 -20.341  0.00  0.00    +0.008 C 
ATOM      5  C   UNL     1      35.415 -17.260 -23.227  0.00  0.00    -0.075 C 
ATOM      6  C   UNL     1      35.561 -15.837 -21.276  0.00  0.00    -0.075 C 
ATOM      7  H   UNL     1      33.956 -16.056 -22.497  0.00  0.00    -0.080 HD
ENDROOT
BRANCH   2   9
ATOM      8 CL   UNL     1      33.631 -22.775 -17.247  0.00  0.00    -0.082 Cl
ATOM      9  C   UNL     1      35.064 -19.495 -19.990  0.00  0.00    +0.002 C 
ATOM     10  C   UNL     1      35.985 -20.240 -19.255  0.00  0.00    -0.001 C 
ATOM     11  C   UNL     1      33.700 -19.763 -19.876  0.00  0.00    -0.001 C 
ATOM     12  C   UNL     1      35.542 -21.255 -18.406  0.00  0.00    +0.011 C 
ATOM     13  C   UNL     1      33.257 -20.776 -19.028  0.00  0.00    +0.011 C 
ATOM     14  C   UNL     1      34.178 -21.522 -18.293  0.00  0.00    +0.058 C 
ENDBRANCH   2   9
BRANCH   2  15
ATOM     15  O   UNL     1      36.977 -18.528 -20.975  0.00  0.00    -0.383 OA
ATOM     16  H   UNL     1      37.309 -18.153 -21.806  0.00  0.00    +0.211 HD
ENDBRANCH   2  15
BRANCH   1  17
ATOM     17  C   UNL     1      35.292 -14.868 -23.464  0.00  0.00    -0.077 C 
BRANCH  17  18
ATOM     18  C   UNL     1      34.205 -14.678 -24.524  0.00  0.00    -0.015 C 
BRANCH  18  19
ATOM     19  C   UNL     1      33.106 -13.717 -24.062  0.00  0.00    +0.067 C 
BRANCH  19  21
ATOM     20  O   UNL     1      34.537 -11.809 -23.689  0.00  0.00    -0.291 OA
ATOM     21  C   UNL     1      33.636 -12.531 -23.269  0.00  0.00    +0.173 C 
BRANCH  21  23
ATOM     22  F   UNL     1      31.323 -11.388 -18.317  0.00  0.00    -0.204 F 
ATOM     23  C   UNL     1      33.020 -12.225 -21.946  0.00  0.00    +0.035 C 
ATOM     24  C   UNL     1      32.555 -10.951 -21.713  0.00  0.00    +0.005 C 
ATOM     25  C   UNL     1      32.937 -13.230 -21.006  0.00  0.00    +0.005 C 
ATOM     26  C   UNL     1      31.977 -10.665 -20.475  0.00  0.00    +0.030 C 
ATOM     27  C   UNL     1      32.359 -12.944 -19.770  0.00  0.00    +0.030 C 
ATOM     28  C   UNL     1      31.878 -11.661 -19.504  0.00  0.00    +0.140 C 
ENDBRANCH  21  23
ENDBRANCH  19  21
ENDBRANCH  18  19
ENDBRANCH  17  18
ENDBRANCH   1  17
TORSDOF 7
ENDMDL
MODEL 6
REMARK VINA RESULT:     -10.6      7.219     12.255
REMARK  Name = 3559
REMARK  7 active torsions:
REMARK  status: ('A' for Active; 'I' for Inactive)
REMARK    1  A    between atoms: N_1  and  C_17
REMARK    2  A    between atoms: C_2  and  C_9
REMARK    3  A    between atoms: C_2  and  O_15
REMARK    4  A    between atoms: C_17  and  C_18
REMARK    5  A    between atoms: C_18  and  C_19
REMARK    6  A    between atoms: C_19  and  C_21
REMARK    7  A    between atoms: C_21  and  C_23
REMARK                            x       y       z     vdW  Elec       q    Type
REMARK                         _______ _______ _______ _____ _____    ______ ____
ROOT
ATOM      1  N   UNL     1      34.845 -16.186 -22.633  0.00  0.00    +0.387 N 
ATOM      2  C   UNL     1      35.575 -18.461 -20.868  0.00  0.00    +0.103 C 
ATOM      3  C   UNL     1      35.046 -18.625 -22.310  0.00  0.00    +0.008 C 
ATOM      4  C   UNL     1      35.132 -17.079 -20.335  0.00  0.00    +0.008 C 
ATOM      5  C   UNL     1      35.370 -17.427 -23.210  0.00  0.00    -0.075 C 
ATOM      6  C   UNL     1      35.425 -15.931 -21.309  0.00  0.00    -0.075 C 
ATOM      7  H   UNL     1      33.837 -16.292 -22.518  0.00  0.00    -0.080 HD
ENDROOT
BRANCH   2   9
ATOM      8 CL   UNL     1      33.936 -22.828 -17.034  0.00  0.00    -0.082 Cl
ATOM      9  C   UNL     1      35.160 -19.568 -19.898  0.00  0.00    +0.002 C 
ATOM     10  C   UNL     1      33.816 -19.913 -19.770  0.00  0.00    -0.001 C 
ATOM     11  C   UNL     1      36.127 -20.229 -19.142  0.00  0.00    -0.001 C 
ATOM     12  C   UNL     1      33.437 -20.923 -18.884  0.00  0.00    +0.011 C 
ATOM     13  C   UNL     1      35.748 -21.238 -18.256  0.00  0.00    +0.011 C 
ATOM     14  C   UNL     1      34.404 -21.584 -18.128  0.00  0.00    +0.058 C 
ENDBRANCH   2   9
BRANCH   2  15
ATOM     15  O   UNL     1      37.009 -18.516 -20.919  0.00  0.00    -0.383 OA
ATOM     16  H   UNL     1      37.309 -19.393 -20.634  0.00  0.00    +0.211 HD
ENDBRANCH   2  15
BRANCH   1  17
ATOM     17  C   UNL     1      35.096 -15.056 -23.528  0.00  0.00    -0.077 C 
BRANCH  17  18
ATOM     18  C   UNL     1      34.869 -13.736 -22.790  0.00  0.00    -0.015 C 
BRANCH  18  19
ATOM     19  C   UNL     1      33.549 -13.068 -23.186  0.00  0.00    +0.067 C 
BRANCH  19  21
ATOM     20  O   UNL     1      33.970 -10.701 -23.399  0.00  0.00    -0.291 OA
ATOM     21  C   UNL     1      33.456 -11.612 -22.754  0.00  0.00    +0.173 C 
BRANCH  21  23
ATOM     22  F   UNL     1      30.602 -10.372 -18.118  0.00  0.00    -0.204 F 
ATOM     23  C   UNL     1      32.692 -11.282 -21.517  0.00  0.00    +0.035 C 
ATOM     24  C   UNL     1      32.545 -12.253 -20.552  0.00  0.00    +0.005 C 
ATOM     25  C   UNL     1      32.164 -10.016 -21.383  0.00  0.00    +0.005 C 
ATOM     26  C   UNL     1      31.832 -11.943 -19.394  0.00  0.00    +0.030 C 
ATOM     27  C   UNL     1      31.452  -9.706 -20.225  0.00  0.00    +0.030 C 
ATOM     28  C   UNL     1      31.286 -10.670 -19.230  0.00  0.00    +0.140 C 
ENDBRANCH  21  23
ENDBRANCH  19  21
ENDBRANCH  18  19
ENDBRANCH  17  18
ENDBRANCH   1  17
TORSDOF 7
ENDMDL
MODEL 7
REMARK VINA RESULT:     -10.5      8.097     13.445
REMARK  Name = 3559
REMARK  7 active torsions:
REMARK  status: ('A' for Active; 'I' for Inactive)
REMARK    1  A    between atoms: N_1  and  C_17
REMARK    2  A    between atoms: C_2  and  C_9
REMARK    3  A    between atoms: C_2  and  O_15
REMARK    4  A    between atoms: C_17  and  C_18
REMARK    5  A    between atoms: C_18  and  C_19
REMARK    6  A    between atoms: C_19  and  C_21
REMARK    7  A    between atoms: C_21  and  C_23
REMARK                            x       y       z     vdW  Elec       q    Type
REMARK                         _______ _______ _______ _____ _____    ______ ____
ROOT
ATOM      1  N   UNL     1      34.796 -15.896 -22.633  0.00  0.00    +0.387 N 
ATOM      2  C   UNL     1      35.489 -18.259 -20.972  0.00  0.00    +0.103 C 
ATOM      3  C   UNL     1      34.961 -18.350 -22.422  0.00  0.00    +0.008 C 
ATOM      4  C   UNL     1      35.064 -16.897 -20.378  0.00  0.00    +0.008 C 
ATOM      5  C   UNL     1      35.305 -17.117 -23.265  0.00  0.00    -0.075 C 
ATOM      6  C   UNL     1      35.377 -15.710 -21.299  0.00  0.00    -0.075 C 
ATOM      7  H   UNL     1      33.786 -15.993 -22.526  0.00  0.00    -0.080 HD
ENDROOT
BRANCH   2   9
ATOM      8 CL   UNL     1      33.778 -22.772 -17.343  0.00  0.00    -0.082 Cl
ATOM      9  C   UNL     1      35.056 -19.403 -20.055  0.00  0.00    +0.002 C 
ATOM     10  C   UNL     1      33.702 -19.692 -19.895  0.00  0.00    -0.001 C 
ATOM     11  C   UNL     1      36.015 -20.154 -19.378  0.00  0.00    -0.001 C 
ATOM     12  C   UNL     1      33.306 -20.735 -19.056  0.00  0.00    +0.011 C 
ATOM     13  C   UNL     1      35.620 -21.197 -18.540  0.00  0.00    +0.011 C 
ATOM     14  C   UNL     1      34.266 -21.487 -18.379  0.00  0.00    +0.058 C 
ENDBRANCH   2   9
BRANCH   2  15
ATOM     15  O   UNL     1      36.922 -18.333 -21.023  0.00  0.00    -0.383 OA
ATOM     16  H   UNL     1      37.280 -18.286 -20.122  0.00  0.00    +0.211 HD
ENDBRANCH   2  15
BRANCH   1  17
ATOM     17  C   UNL     1      35.066 -14.731 -23.477  0.00  0.00    -0.077 C 
BRANCH  17  18
ATOM     18  C   UNL     1      34.754 -13.442 -22.712  0.00  0.00    -0.015 C 
BRANCH  18  19
ATOM     19  C   UNL     1      33.550 -12.698 -23.296  0.00  0.00    +0.067 C 
BRANCH  19  21
ATOM     20  O   UNL     1      33.692 -12.388 -25.686  0.00  0.00    -0.291 OA
ATOM     21  C   UNL     1      33.877 -11.922 -24.564  0.00  0.00    +0.173 C 
BRANCH  21  23
ATOM     22  F   UNL     1      35.912  -6.745 -24.079  0.00  0.00    -0.204 F 
ATOM     23  C   UNL     1      34.419 -10.539 -24.435  0.00  0.00    +0.035 C 
ATOM     24  C   UNL     1      34.090  -9.802 -23.320  0.00  0.00    +0.005 C 
ATOM     25  C   UNL     1      35.230 -10.051 -25.436  0.00  0.00    +0.005 C 
ATOM     26  C   UNL     1      34.599  -8.509 -23.199  0.00  0.00    +0.030 C 
ATOM     27  C   UNL     1      35.739  -8.758 -25.315  0.00  0.00    +0.030 C 
ATOM     28  C   UNL     1      35.423  -7.987 -24.195  0.00  0.00    +0.140 C 
ENDBRANCH  21  23
ENDBRANCH  19  21
ENDBRANCH  18  19
ENDBRANCH  17  18
ENDBRANCH   1  17
TORSDOF 7
ENDMDL
MODEL 8
REMARK VINA RESULT:     -10.4      7.187     10.750
REMARK  Name = 3559
REMARK  7 active torsions:
REMARK  status: ('A' for Active; 'I' for Inactive)
REMARK    1  A    between atoms: N_1  and  C_17
REMARK    2  A    between atoms: C_2  and  C_9
REMARK    3  A    between atoms: C_2  and  O_15
REMARK    4  A    between atoms: C_17  and  C_18
REMARK    5  A    between atoms: C_18  and  C_19
REMARK    6  A    between atoms: C_19  and  C_21
REMARK    7  A    between atoms: C_21  and  C_23
REMARK                            x       y       z     vdW  Elec       q    Type
REMARK                         _______ _______ _______ _____ _____    ______ ____
ROOT
ATOM      1  N   UNL     1      34.912 -14.814 -23.404  0.00  0.00    +0.387 N 
ATOM      2  C   UNL     1      33.381 -12.379 -22.660  0.00  0.00    +0.103 C 
ATOM      3  C   UNL     1      33.468 -12.936 -24.099  0.00  0.00    +0.008 C 
ATOM      4  C   UNL     1      34.596 -12.898 -21.857  0.00  0.00    +0.008 C 
ATOM      5  C   UNL     1      33.700 -14.451 -24.145  0.00  0.00    -0.075 C 
ATOM      6  C   UNL     1      34.811 -14.411 -21.996  0.00  0.00    -0.075 C 
ATOM      7  H   UNL     1      35.697 -14.313 -23.818  0.00  0.00    -0.080 HD
ENDROOT
BRANCH   2   9
ATOM      8 CL   UNL     1      33.002  -6.365 -22.278  0.00  0.00    -0.082 Cl
ATOM      9  C   UNL     1      33.286 -10.856 -22.563  0.00  0.00    +0.002 C 
ATOM     10  C   UNL     1      32.355 -10.270 -21.707  0.00  0.00    -0.001 C 
ATOM     11  C   UNL     1      34.130 -10.055 -23.330  0.00  0.00    -0.001 C 
ATOM     12  C   UNL     1      32.267  -8.880 -21.618  0.00  0.00    +0.011 C 
ATOM     13  C   UNL     1      34.043  -8.666 -23.242  0.00  0.00    +0.011 C 
ATOM     14  C   UNL     1      33.111  -8.079 -22.386  0.00  0.00    +0.058 C 
ENDBRANCH   2   9
BRANCH   2  15
ATOM     15  O   UNL     1      32.170 -12.875 -22.072  0.00  0.00    -0.383 OA
ATOM     16  H   UNL     1      31.465 -12.218 -22.180  0.00  0.00    +0.211 HD
ENDBRANCH   2  15
BRANCH   1  17
ATOM     17  C   UNL     1      35.166 -16.251 -23.508  0.00  0.00    -0.077 C 
BRANCH  17  18
ATOM     18  C   UNL     1      35.671 -16.797 -22.171  0.00  0.00    -0.015 C 
BRANCH  18  19
ATOM     19  C   UNL     1      35.281 -18.262 -21.958  0.00  0.00    +0.067 C 
BRANCH  19  21
ATOM     20  O   UNL     1      37.112 -18.678 -20.439  0.00  0.00    -0.291 OA
ATOM     21  C   UNL     1      35.938 -18.890 -20.736  0.00  0.00    +0.173 C 
BRANCH  21  23
ATOM     22  F   UNL     1      32.866 -22.194 -17.447  0.00  0.00    -0.204 F 
ATOM     23  C   UNL     1      35.118 -19.774 -19.859  0.00  0.00    +0.035 C 
ATOM     24  C   UNL     1      35.763 -20.636 -19.003  0.00  0.00    +0.005 C 
ATOM     25  C   UNL     1      33.745 -19.692 -19.937  0.00  0.00    +0.005 C 
ATOM     26  C   UNL     1      34.996 -21.462 -18.180  0.00  0.00    +0.030 C 
ATOM     27  C   UNL     1      32.977 -20.516 -19.115  0.00  0.00    +0.030 C 
ATOM     28  C   UNL     1      33.603 -21.402 -18.236  0.00  0.00    +0.140 C 
ENDBRANCH  21  23
ENDBRANCH  19  21
ENDBRANCH  18  19
ENDBRANCH  17  18
ENDBRANCH   1  17
TORSDOF 7
ENDMDL
MODEL 9
REMARK VINA RESULT:     -10.3      7.030     10.669
REMARK  Name = 3559
REMARK  7 active torsions:
REMARK  status: ('A' for Active; 'I' for Inactive)
REMARK    1  A    between atoms: N_1  and  C_17
REMARK    2  A    between atoms: C_2  and  C_9
REMARK    3  A    between atoms: C_2  and  O_15
REMARK    4  A    between atoms: C_17  and  C_18
REMARK    5  A    between atoms: C_18  and  C_19
REMARK    6  A    between atoms: C_19  and  C_21
REMARK    7  A    between atoms: C_21  and  C_23
REMARK                            x       y       z     vdW  Elec       q    Type
REMARK                         _______ _______ _______ _____ _____    ______ ____
ROOT
ATOM      1  N   UNL     1      34.758 -15.417 -23.945  0.00  0.00    +0.387 N 
ATOM      2  C   UNL     1      33.653 -12.730 -23.327  0.00  0.00    +0.103 C 
ATOM      3  C   UNL     1      33.524 -13.419 -24.705  0.00  0.00    +0.008 C 
ATOM      4  C   UNL     1      34.857 -13.347 -22.579  0.00  0.00    +0.008 C 
ATOM      5  C   UNL     1      33.542 -14.949 -24.616  0.00  0.00    -0.075 C 
ATOM      6  C   UNL     1      34.850 -14.882 -22.582  0.00  0.00    -0.075 C 
ATOM      7  H   UNL     1      35.561 -15.075 -24.472  0.00  0.00    -0.080 HD
ENDROOT
BRANCH   2   9
ATOM      8 CL   UNL     1      34.146  -6.715 -23.517  0.00  0.00    -0.082 Cl
ATOM      9  C   UNL     1      33.777 -11.207 -23.376  0.00  0.00    +0.002 C 
ATOM     10  C   UNL     1      34.611 -10.606 -24.318  0.00  0.00    -0.001 C 
ATOM     11  C   UNL     1      33.056 -10.420 -22.479  0.00  0.00    -0.001 C 
ATOM     12  C   UNL     1      34.725  -9.216 -24.362  0.00  0.00    +0.011 C 
ATOM     13  C   UNL     1      33.170  -9.031 -22.523  0.00  0.00    +0.011 C 
ATOM     14  C   UNL     1      34.004  -8.430 -23.464  0.00  0.00    +0.058 C 
ENDBRANCH   2   9
BRANCH   2  15
ATOM     15  O   UNL     1      32.448 -12.992 -22.592  0.00  0.00    -0.383 OA
ATOM     16  H   UNL     1      31.816 -13.456 -23.164  0.00  0.00    +0.211 HD
ENDBRANCH   2  15
BRANCH   1  17
ATOM     17  C   UNL     1      34.803 -16.880 -23.925  0.00  0.00    -0.077 C 
BRANCH  17  18
ATOM     18  C   UNL     1      35.724 -17.365 -22.804  0.00  0.00    -0.015 C 
BRANCH  18  19
ATOM     19  C   UNL     1      35.152 -18.579 -22.066  0.00  0.00    +0.067 C 
BRANCH  19  21
ATOM     20  O   UNL     1      36.008 -17.626 -20.019  0.00  0.00    -0.291 OA
ATOM     21  C   UNL     1      35.419 -18.555 -20.567  0.00  0.00    +0.173 C 
BRANCH  21  23
ATOM     22  F   UNL     1      33.573 -22.802 -17.449  0.00  0.00    -0.204 F 
ATOM     23  C   UNL     1      34.927 -19.690 -19.736  0.00  0.00    +0.035 C 
ATOM     24  C   UNL     1      35.845 -20.457 -19.055  0.00  0.00    +0.005 C 
ATOM     25  C   UNL     1      33.571 -19.929 -19.679  0.00  0.00    +0.005 C 
ATOM     26  C   UNL     1      35.384 -21.518 -18.275  0.00  0.00    +0.030 C 
ATOM     27  C   UNL     1      33.110 -20.989 -18.899  0.00  0.00    +0.030 C 
ATOM     28  C   UNL     1      34.016 -21.784 -18.197  0.00  0.00    +0.140 C 
ENDBRANCH  21  23
ENDBRANCH  19  21
ENDBRANCH  18  19
ENDBRANCH  17  18
ENDBRANCH   1  17
TORSDOF 7
ENDMDL
