MODEL 1
REMARK VINA RESULT:     -11.7      0.000      0.000
REMARK  Name = 9887812
REMARK  11 active torsions:
REMARK  status: ('A' for Active; 'I' for Inactive)
REMARK    1  A    between atoms: N_1  and  C_3
REMARK    2  A    between atoms: N_1  and  C_19
REMARK    3  A    between atoms: C_4  and  C_9
REMARK    4  A    between atoms: C_12  and  C_16
REMARK    5  A    between atoms: C_16  and  O_17
REMARK    6  A    between atoms: C_19  and  C_20
REMARK    7  A    between atoms: C_20  and  N_21
REMARK    8  A    between atoms: N_21  and  C_24
REMARK    9  A    between atoms: C_24  and  C_25
REMARK   10  A    between atoms: C_25  and  C_27
REMARK   11  A    between atoms: C_25  and  O_33
REMARK                            x       y       z     vdW  Elec       q    Type
REMARK                         _______ _______ _______ _____ _____    ______ ____
ROOT
ATOM      1  N   UNL     1      33.320 -21.506 -18.955  0.00  0.00    -0.335 N 
ATOM      2  H   UNL     1      32.818 -21.959 -19.671  0.00  0.00    +0.147 HD
ENDROOT
BRANCH   1   3
ATOM      3  C   UNL     1      34.452 -20.743 -19.307  0.00  0.00    +0.045 C 
ATOM      4  C   UNL     1      35.420 -18.798 -20.364  0.00  0.00    +0.001 C 
ATOM      5  C   UNL     1      34.299 -19.553 -20.016  0.00  0.00    +0.014 C 
ATOM      6  C   UNL     1      35.727 -21.179 -18.945  0.00  0.00    +0.014 C 
ATOM      7  C   UNL     1      36.695 -19.234 -20.002  0.00  0.00    +0.000 C 
ATOM      8  C   UNL     1      36.848 -20.426 -19.292  0.00  0.00    +0.001 C 
BRANCH   4   9
ATOM      9  C   UNL     1      35.260 -17.563 -21.100  0.00  0.00    +0.000 C 
ATOM     10  C   UNL     1      35.054 -17.595 -22.480  0.00  0.00    +0.006 C 
ATOM     11  C   UNL     1      35.313 -16.341 -20.431  0.00  0.00    +0.000 C 
ATOM     12  C   UNL     1      34.900 -16.404 -23.189  0.00  0.00    +0.075 C 
ATOM     13  C   UNL     1      35.159 -15.149 -21.141  0.00  0.00    +0.000 C 
ATOM     14  C   UNL     1      34.953 -15.181 -22.520  0.00  0.00    +0.006 C 
BRANCH  12  16
ATOM     15  O   UNL     1      35.008 -15.545 -25.420  0.00  0.00    -0.245 OA
ATOM     16  C   UNL     1      34.684 -16.436 -24.627  0.00  0.00    +0.338 C 
BRANCH  16  17
ATOM     17  O   UNL     1      34.068 -17.580 -25.036  0.00  0.00    -0.477 OA
ATOM     18  H   UNL     1      33.149 -17.578 -25.214  0.00  0.00    +0.295 HD
ENDBRANCH  16  17
ENDBRANCH  12  16
ENDBRANCH   4   9
ENDBRANCH   1   3
BRANCH   1  19
ATOM     19  C   UNL     1      32.866 -21.649 -17.606  0.00  0.00    +0.064 C 
BRANCH  19  20
ATOM     20  C   UNL     1      33.556 -22.842 -16.959  0.00  0.00    -0.060 C 
BRANCH  20  21
ATOM     21  N   UNL     1      33.595 -22.681 -15.510  0.00  0.00    +0.387 N 
ATOM     22  H   UNL     1      33.179 -21.783 -15.263  0.00  0.00    -0.084 HD
ATOM     23  H   UNL     1      33.072 -23.445 -15.083  0.00  0.00    -0.084 HD
BRANCH  21  24
ATOM     24  C   UNL     1      34.966 -22.723 -15.019  0.00  0.00    -0.047 C 
BRANCH  24  25
ATOM     25  C   UNL     1      35.220 -24.007 -14.220  0.00  0.00    +0.112 C 
BRANCH  25  27
ATOM     26 CL   UNL     1      40.260 -24.929 -13.337  0.00  0.00    -0.082 Cl
ATOM     27  C   UNL     1      36.421 -23.865 -13.311  0.00  0.00    +0.003 C 
ATOM     28  C   UNL     1      37.634 -24.402 -13.705  0.00  0.00    +0.009 C 
ATOM     29  C   UNL     1      36.281 -23.199 -12.105  0.00  0.00    -0.002 C 
ATOM     30  C   UNL     1      38.741 -24.270 -12.867  0.00  0.00    +0.057 C 
ATOM     31  C   UNL     1      37.388 -23.067 -11.268  0.00  0.00    +0.001 C 
ATOM     32  C   UNL     1      38.618 -23.602 -11.648  0.00  0.00    +0.011 C 
ENDBRANCH  25  27
BRANCH  25  33
ATOM     33  O   UNL     1      34.085 -24.319 -13.414  0.00  0.00    -0.382 OA
ATOM     34  H   UNL     1      33.587 -23.508 -13.228  0.00  0.00    +0.211 HD
ENDBRANCH  25  33
ENDBRANCH  24  25
ENDBRANCH  21  24
ENDBRANCH  20  21
ENDBRANCH  19  20
ENDBRANCH   1  19
TORSDOF 11
ENDMDL
MODEL 2
REMARK VINA RESULT:     -11.5      3.679     11.206
REMARK  Name = 9887812
REMARK  11 active torsions:
REMARK  status: ('A' for Active; 'I' for Inactive)
REMARK    1  A    between atoms: N_1  and  C_3
REMARK    2  A    between atoms: N_1  and  C_19
REMARK    3  A    between atoms: C_4  and  C_9
REMARK    4  A    between atoms: C_12  and  C_16
REMARK    5  A    between atoms: C_16  and  O_17
REMARK    6  A    between atoms: C_19  and  C_20
REMARK    7  A    between atoms: C_20  and  N_21
REMARK    8  A    between atoms: N_21  and  C_24
REMARK    9  A    between atoms: C_24  and  C_25
REMARK   10  A    between atoms: C_25  and  C_27
REMARK   11  A    between atoms: C_25  and  O_33
REMARK                            x       y       z     vdW  Elec       q    Type
REMARK                         _______ _______ _______ _____ _____    ______ ____
ROOT
ATOM      1  N   UNL     1      33.088 -21.865 -17.963  0.00  0.00    -0.335 N 
ATOM      2  H   UNL     1      32.317 -21.875 -18.575  0.00  0.00    +0.147 HD
ENDROOT
BRANCH   1   3
ATOM      3  C   UNL     1      32.905 -22.321 -16.641  0.00  0.00    +0.045 C 
ATOM      4  C   UNL     1      33.811 -23.248 -14.602  0.00  0.00    +0.001 C 
ATOM      5  C   UNL     1      33.993 -22.797 -15.910  0.00  0.00    +0.014 C 
ATOM      6  C   UNL     1      31.635 -22.295 -16.064  0.00  0.00    +0.014 C 
ATOM      7  C   UNL     1      32.541 -23.223 -14.026  0.00  0.00    +0.000 C 
ATOM      8  C   UNL     1      31.453 -22.746 -14.758  0.00  0.00    +0.001 C 
BRANCH   4   9
ATOM      9  C   UNL     1      34.939 -23.743 -13.845  0.00  0.00    +0.000 C 
ATOM     10  C   UNL     1      35.093 -23.383 -12.505  0.00  0.00    +0.006 C 
ATOM     11  C   UNL     1      35.874 -24.580 -14.454  0.00  0.00    +0.000 C 
ATOM     12  C   UNL     1      36.182 -23.860 -11.776  0.00  0.00    +0.075 C 
ATOM     13  C   UNL     1      36.963 -25.056 -13.724  0.00  0.00    +0.000 C 
ATOM     14  C   UNL     1      37.117 -24.697 -12.384  0.00  0.00    +0.006 C 
BRANCH  12  16
ATOM     15  O   UNL     1      35.692 -23.947  -9.435  0.00  0.00    -0.245 OA
ATOM     16  C   UNL     1      36.342 -23.486 -10.380  0.00  0.00    +0.338 C 
BRANCH  16  17
ATOM     17  O   UNL     1      37.310 -22.545 -10.200  0.00  0.00    -0.477 OA
ATOM     18  H   UNL     1      38.175 -22.696 -10.524  0.00  0.00    +0.295 HD
ENDBRANCH  16  17
ENDBRANCH  12  16
ENDBRANCH   4   9
ENDBRANCH   1   3
BRANCH   1  19
ATOM     19  C   UNL     1      34.345 -21.392 -18.455  0.00  0.00    +0.064 C 
BRANCH  19  20
ATOM     20  C   UNL     1      34.110 -20.320 -19.511  0.00  0.00    -0.060 C 
BRANCH  20  21
ATOM     21  N   UNL     1      35.370 -19.683 -19.876  0.00  0.00    +0.387 N 
ATOM     22  H   UNL     1      35.608 -18.986 -19.170  0.00  0.00    -0.084 HD
ATOM     23  H   UNL     1      36.094 -20.399 -19.927  0.00  0.00    -0.084 HD
BRANCH  21  24
ATOM     24  C   UNL     1      35.265 -19.031 -21.174  0.00  0.00    -0.047 C 
BRANCH  24  25
ATOM     25  C   UNL     1      35.932 -17.650 -21.146  0.00  0.00    +0.112 C 
BRANCH  25  27
ATOM     26 CL   UNL     1      34.595 -12.868 -22.690  0.00  0.00    -0.082 Cl
ATOM     27  C   UNL     1      35.380 -16.747 -22.227  0.00  0.00    +0.003 C 
ATOM     28  C   UNL     1      35.261 -15.391 -21.979  0.00  0.00    +0.009 C 
ATOM     29  C   UNL     1      35.009 -17.297 -23.442  0.00  0.00    -0.002 C 
ATOM     30  C   UNL     1      34.753 -14.558 -22.976  0.00  0.00    +0.057 C 
ATOM     31  C   UNL     1      34.500 -16.464 -24.439  0.00  0.00    +0.001 C 
ATOM     32  C   UNL     1      34.373 -15.095 -24.206  0.00  0.00    +0.011 C 
ENDBRANCH  25  27
BRANCH  25  33
ATOM     33  O   UNL     1      35.714 -17.022 -19.885  0.00  0.00    -0.382 OA
ATOM     34  H   UNL     1      36.208 -16.188 -19.849  0.00  0.00    +0.211 HD
ENDBRANCH  25  33
ENDBRANCH  24  25
ENDBRANCH  21  24
ENDBRANCH  20  21
ENDBRANCH  19  20
ENDBRANCH   1  19
TORSDOF 11
ENDMDL
MODEL 3
REMARK VINA RESULT:     -11.4      3.259      4.518
REMARK  Name = 9887812
REMARK  11 active torsions:
REMARK  status: ('A' for Active; 'I' for Inactive)
REMARK    1  A    between atoms: N_1  and  C_3
REMARK    2  A    between atoms: N_1  and  C_19
REMARK    3  A    between atoms: C_4  and  C_9
REMARK    4  A    between atoms: C_12  and  C_16
REMARK    5  A    between atoms: C_16  and  O_17
REMARK    6  A    between atoms: C_19  and  C_20
REMARK    7  A    between atoms: C_20  and  N_21
REMARK    8  A    between atoms: N_21  and  C_24
REMARK    9  A    between atoms: C_24  and  C_25
REMARK   10  A    between atoms: C_25  and  C_27
REMARK   11  A    between atoms: C_25  and  O_33
REMARK                            x       y       z     vdW  Elec       q    Type
REMARK                         _______ _______ _______ _____ _____    ______ ____
ROOT
ATOM      1  N   UNL     1      33.294 -21.554 -18.865  0.00  0.00    -0.335 N 
ATOM      2  H   UNL     1      32.780 -21.999 -19.577  0.00  0.00    +0.147 HD
ENDROOT
BRANCH   1   3
ATOM      3  C   UNL     1      34.429 -20.799 -19.226  0.00  0.00    +0.045 C 
ATOM      4  C   UNL     1      35.407 -18.893 -20.343  0.00  0.00    +0.001 C 
ATOM      5  C   UNL     1      34.283 -19.639 -19.986  0.00  0.00    +0.014 C 
ATOM      6  C   UNL     1      35.699 -21.213 -18.824  0.00  0.00    +0.014 C 
ATOM      7  C   UNL     1      36.677 -19.307 -19.941  0.00  0.00    +0.000 C 
ATOM      8  C   UNL     1      36.822 -20.468 -19.181  0.00  0.00    +0.001 C 
BRANCH   4   9
ATOM      9  C   UNL     1      35.255 -17.690 -21.132  0.00  0.00    +0.000 C 
ATOM     10  C   UNL     1      34.958 -17.779 -22.493  0.00  0.00    +0.006 C 
ATOM     11  C   UNL     1      35.405 -16.440 -20.532  0.00  0.00    +0.000 C 
ATOM     12  C   UNL     1      34.812 -16.619 -23.252  0.00  0.00    +0.075 C 
ATOM     13  C   UNL     1      35.259 -15.279 -21.292  0.00  0.00    +0.000 C 
ATOM     14  C   UNL     1      34.962 -15.368 -22.652  0.00  0.00    +0.006 C 
BRANCH  12  16
ATOM     15  O   UNL     1      33.868 -17.627 -25.206  0.00  0.00    -0.245 OA
ATOM     16  C   UNL     1      34.501 -16.711 -24.670  0.00  0.00    +0.338 C 
BRANCH  16  17
ATOM     17  O   UNL     1      34.991 -15.658 -25.380  0.00  0.00    -0.477 OA
ATOM     18  H   UNL     1      35.889 -15.650 -25.647  0.00  0.00    +0.295 HD
ENDBRANCH  16  17
ENDBRANCH  12  16
ENDBRANCH   4   9
ENDBRANCH   1   3
BRANCH   1  19
ATOM     19  C   UNL     1      32.856 -21.699 -17.511  0.00  0.00    +0.064 C 
BRANCH  19  20
ATOM     20  C   UNL     1      33.514 -22.924 -16.890  0.00  0.00    -0.060 C 
BRANCH  20  21
ATOM     21  N   UNL     1      34.265 -22.547 -15.699  0.00  0.00    +0.387 N 
ATOM     22  H   UNL     1      35.253 -22.755 -15.848  0.00  0.00    -0.084 HD
ATOM     23  H   UNL     1      34.133 -21.550 -15.532  0.00  0.00    -0.084 HD
BRANCH  21  24
ATOM     24  C   UNL     1      33.794 -23.282 -14.533  0.00  0.00    -0.047 C 
BRANCH  24  25
ATOM     25  C   UNL     1      32.663 -22.521 -13.830  0.00  0.00    +0.112 C 
BRANCH  25  27
ATOM     26 CL   UNL     1      27.808 -21.795 -15.547  0.00  0.00    -0.082 Cl
ATOM     27  C   UNL     1      31.309 -23.106 -14.168  0.00  0.00    +0.003 C 
ATOM     28  C   UNL     1      30.311 -22.273 -14.643  0.00  0.00    +0.009 C 
ATOM     29  C   UNL     1      31.098 -24.464 -13.997  0.00  0.00    -0.002 C 
ATOM     30  C   UNL     1      29.064 -22.813 -14.955  0.00  0.00    +0.057 C 
ATOM     31  C   UNL     1      29.851 -25.004 -14.308  0.00  0.00    +0.001 C 
ATOM     32  C   UNL     1      28.834 -24.179 -14.788  0.00  0.00    +0.011 C 
ENDBRANCH  25  27
BRANCH  25  33
ATOM     33  O   UNL     1      32.833 -22.578 -12.415  0.00  0.00    -0.382 OA
ATOM     34  H   UNL     1      33.174 -21.728 -12.095  0.00  0.00    +0.211 HD
ENDBRANCH  25  33
ENDBRANCH  24  25
ENDBRANCH  21  24
ENDBRANCH  20  21
ENDBRANCH  19  20
ENDBRANCH   1  19
TORSDOF 11
ENDMDL
MODEL 4
REMARK VINA RESULT:     -11.4      3.675     10.916
REMARK  Name = 9887812
REMARK  11 active torsions:
REMARK  status: ('A' for Active; 'I' for Inactive)
REMARK    1  A    between atoms: N_1  and  C_3
REMARK    2  A    between atoms: N_1  and  C_19
REMARK    3  A    between atoms: C_4  and  C_9
REMARK    4  A    between atoms: C_12  and  C_16
REMARK    5  A    between atoms: C_16  and  O_17
REMARK    6  A    between atoms: C_19  and  C_20
REMARK    7  A    between atoms: C_20  and  N_21
REMARK    8  A    between atoms: N_21  and  C_24
REMARK    9  A    between atoms: C_24  and  C_25
REMARK   10  A    between atoms: C_25  and  C_27
REMARK   11  A    between atoms: C_25  and  O_33
REMARK                            x       y       z     vdW  Elec       q    Type
REMARK                         _______ _______ _______ _____ _____    ______ ____
ROOT
ATOM      1  N   UNL     1      33.560 -22.293 -18.185  0.00  0.00    -0.335 N 
ATOM      2  H   UNL     1      33.506 -23.048 -18.813  0.00  0.00    +0.147 HD
ENDROOT
BRANCH   1   3
ATOM      3  C   UNL     1      33.316 -22.536 -16.817  0.00  0.00    +0.045 C 
ATOM      4  C   UNL     1      34.091 -23.280 -14.653  0.00  0.00    +0.001 C 
ATOM      5  C   UNL     1      34.333 -23.039 -16.006  0.00  0.00    +0.014 C 
ATOM      6  C   UNL     1      32.058 -22.274 -16.276  0.00  0.00    +0.014 C 
ATOM      7  C   UNL     1      32.832 -23.018 -14.111  0.00  0.00    +0.000 C 
ATOM      8  C   UNL     1      31.815 -22.516 -14.924  0.00  0.00    +0.001 C 
BRANCH   4   9
ATOM      9  C   UNL     1      35.145 -23.802 -13.812  0.00  0.00    +0.000 C 
ATOM     10  C   UNL     1      35.233 -23.408 -12.476  0.00  0.00    +0.006 C 
ATOM     11  C   UNL     1      36.075 -24.700 -14.337  0.00  0.00    +0.000 C 
ATOM     12  C   UNL     1      36.251 -23.912 -11.667  0.00  0.00    +0.075 C 
ATOM     13  C   UNL     1      37.093 -25.204 -13.526  0.00  0.00    +0.000 C 
ATOM     14  C   UNL     1      37.180 -24.810 -12.191  0.00  0.00    +0.006 C 
BRANCH  12  16
ATOM     15  O   UNL     1      35.666 -23.961  -9.347  0.00  0.00    -0.245 OA
ATOM     16  C   UNL     1      36.342 -23.503 -10.274  0.00  0.00    +0.338 C 
BRANCH  16  17
ATOM     17  O   UNL     1      37.276 -22.531 -10.077  0.00  0.00    -0.477 OA
ATOM     18  H   UNL     1      37.328 -21.806 -10.666  0.00  0.00    +0.295 HD
ENDBRANCH  16  17
ENDBRANCH  12  16
ENDBRANCH   4   9
ENDBRANCH   1   3
BRANCH   1  19
ATOM     19  C   UNL     1      33.884 -20.997 -18.698  0.00  0.00    +0.064 C 
BRANCH  19  20
ATOM     20  C   UNL     1      35.328 -20.986 -19.182  0.00  0.00    -0.060 C 
BRANCH  20  21
ATOM     21  N   UNL     1      35.759 -19.622 -19.462  0.00  0.00    +0.387 N 
ATOM     22  H   UNL     1      35.572 -19.039 -18.646  0.00  0.00    -0.084 HD
ATOM     23  H   UNL     1      36.757 -19.631 -19.671  0.00  0.00    -0.084 HD
BRANCH  21  24
ATOM     24  C   UNL     1      35.048 -19.078 -20.610  0.00  0.00    -0.047 C 
BRANCH  24  25
ATOM     25  C   UNL     1      35.954 -18.141 -21.419  0.00  0.00    +0.112 C 
BRANCH  25  27
ATOM     26 CL   UNL     1      34.324 -13.905 -23.957  0.00  0.00    -0.082 Cl
ATOM     27  C   UNL     1      35.461 -16.712 -21.367  0.00  0.00    +0.003 C 
ATOM     28  C   UNL     1      35.160 -16.057 -22.549  0.00  0.00    +0.009 C 
ATOM     29  C   UNL     1      35.318 -16.091 -20.138  0.00  0.00    -0.002 C 
ATOM     30  C   UNL     1      34.704 -14.739 -22.500  0.00  0.00    +0.057 C 
ATOM     31  C   UNL     1      34.863 -14.774 -20.089  0.00  0.00    +0.001 C 
ATOM     32  C   UNL     1      34.555 -14.098 -21.270  0.00  0.00    +0.011 C 
ENDBRANCH  25  27
BRANCH  25  33
ATOM     33  O   UNL     1      37.283 -18.173 -20.903  0.00  0.00    -0.382 OA
ATOM     34  H   UNL     1      37.486 -17.325 -20.478  0.00  0.00    +0.211 HD
ENDBRANCH  25  33
ENDBRANCH  24  25
ENDBRANCH  21  24
ENDBRANCH  20  21
ENDBRANCH  19  20
ENDBRANCH   1  19
TORSDOF 11
ENDMDL
MODEL 5
REMARK VINA RESULT:     -11.3      2.413      4.067
REMARK  Name = 9887812
REMARK  11 active torsions:
REMARK  status: ('A' for Active; 'I' for Inactive)
REMARK    1  A    between atoms: N_1  and  C_3
REMARK    2  A    between atoms: N_1  and  C_19
REMARK    3  A    between atoms: C_4  and  C_9
REMARK    4  A    between atoms: C_12  and  C_16
REMARK    5  A    between atoms: C_16  and  O_17
REMARK    6  A    between atoms: C_19  and  C_20
REMARK    7  A    between atoms: C_20  and  N_21
REMARK    8  A    between atoms: N_21  and  C_24
REMARK    9  A    between atoms: C_24  and  C_25
REMARK   10  A    between atoms: C_25  and  C_27
REMARK   11  A    between atoms: C_25  and  O_33
REMARK                            x       y       z     vdW  Elec       q    Type
REMARK                         _______ _______ _______ _____ _____    ______ ____
ROOT
ATOM      1  N   UNL     1      34.931 -23.705 -14.616  0.00  0.00    -0.335 N 
ATOM      2  H   UNL     1      35.182 -24.656 -14.610  0.00  0.00    +0.147 HD
ENDROOT
BRANCH   1   3
ATOM      3  C   UNL     1      35.655 -22.822 -15.443  0.00  0.00    +0.045 C 
ATOM      4  C   UNL     1      35.749 -21.344 -17.352  0.00  0.00    +0.001 C 
ATOM      5  C   UNL     1      35.031 -22.217 -16.534  0.00  0.00    +0.014 C 
ATOM      6  C   UNL     1      36.997 -22.554 -15.171  0.00  0.00    +0.014 C 
ATOM      7  C   UNL     1      37.091 -21.076 -17.080  0.00  0.00    +0.000 C 
ATOM      8  C   UNL     1      37.715 -21.682 -15.989  0.00  0.00    +0.001 C 
BRANCH   4   9
ATOM      9  C   UNL     1      35.101 -20.717 -18.484  0.00  0.00    +0.000 C 
ATOM     10  C   UNL     1      35.836 -19.900 -19.344  0.00  0.00    +0.006 C 
ATOM     11  C   UNL     1      33.743 -20.931 -18.715  0.00  0.00    +0.000 C 
ATOM     12  C   UNL     1      35.210 -19.296 -20.434  0.00  0.00    +0.075 C 
ATOM     13  C   UNL     1      33.117 -20.326 -19.806  0.00  0.00    +0.000 C 
ATOM     14  C   UNL     1      33.851 -19.509 -20.666  0.00  0.00    +0.006 C 
BRANCH  12  16
ATOM     15  O   UNL     1      35.550 -17.941 -22.377  0.00  0.00    -0.245 OA
ATOM     16  C   UNL     1      35.975 -18.444 -21.332  0.00  0.00    +0.338 C 
BRANCH  16  17
ATOM     17  O   UNL     1      37.251 -18.245 -20.899  0.00  0.00    -0.477 OA
ATOM     18  H   UNL     1      37.711 -17.467 -21.143  0.00  0.00    +0.295 HD
ENDBRANCH  16  17
ENDBRANCH  12  16
ENDBRANCH   4   9
ENDBRANCH   1   3
BRANCH   1  19
ATOM     19  C   UNL     1      33.845 -23.279 -13.788  0.00  0.00    +0.064 C 
BRANCH  19  20
ATOM     20  C   UNL     1      34.152 -23.609 -12.333  0.00  0.00    -0.060 C 
BRANCH  20  21
ATOM     21  N   UNL     1      35.337 -22.886 -11.888  0.00  0.00    +0.387 N 
ATOM     22  H   UNL     1      36.062 -22.963 -12.602  0.00  0.00    -0.084 HD
ATOM     23  H   UNL     1      35.087 -21.908 -11.741  0.00  0.00    -0.084 HD
BRANCH  21  24
ATOM     24  C   UNL     1      35.840 -23.432 -10.635  0.00  0.00    -0.047 C 
BRANCH  24  25
ATOM     25  C   UNL     1      37.372 -23.508 -10.649  0.00  0.00    +0.112 C 
BRANCH  25  27
ATOM     26 CL   UNL     1      40.883 -24.370 -14.387  0.00  0.00    -0.082 Cl
ATOM     27  C   UNL     1      37.873 -24.384 -11.776  0.00  0.00    +0.003 C 
ATOM     28  C   UNL     1      39.009 -24.008 -12.471  0.00  0.00    +0.009 C 
ATOM     29  C   UNL     1      37.184 -25.544 -12.087  0.00  0.00    -0.002 C 
ATOM     30  C   UNL     1      39.471 -24.818 -13.509  0.00  0.00    +0.057 C 
ATOM     31  C   UNL     1      37.646 -26.352 -13.126  0.00  0.00    +0.001 C 
ATOM     32  C   UNL     1      38.789 -25.990 -13.836  0.00  0.00    +0.011 C 
ENDBRANCH  25  27
BRANCH  25  33
ATOM     33  O   UNL     1      37.929 -22.205 -10.816  0.00  0.00    -0.382 OA
ATOM     34  H   UNL     1      38.344 -21.922  -9.986  0.00  0.00    +0.211 HD
ENDBRANCH  25  33
ENDBRANCH  24  25
ENDBRANCH  21  24
ENDBRANCH  20  21
ENDBRANCH  19  20
ENDBRANCH   1  19
TORSDOF 11
ENDMDL
MODEL 6
REMARK VINA RESULT:     -11.2      6.395     11.704
REMARK  Name = 9887812
REMARK  11 active torsions:
REMARK  status: ('A' for Active; 'I' for Inactive)
REMARK    1  A    between atoms: N_1  and  C_3
REMARK    2  A    between atoms: N_1  and  C_19
REMARK    3  A    between atoms: C_4  and  C_9
REMARK    4  A    between atoms: C_12  and  C_16
REMARK    5  A    between atoms: C_16  and  O_17
REMARK    6  A    between atoms: C_19  and  C_20
REMARK    7  A    between atoms: C_20  and  N_21
REMARK    8  A    between atoms: N_21  and  C_24
REMARK    9  A    between atoms: C_24  and  C_25
REMARK   10  A    between atoms: C_25  and  C_27
REMARK   11  A    between atoms: C_25  and  O_33
REMARK                            x       y       z     vdW  Elec       q    Type
REMARK                         _______ _______ _______ _____ _____    ______ ____
ROOT
ATOM      1  N   UNL     1      35.065 -14.239 -21.953  0.00  0.00    -0.335 N 
ATOM      2  H   UNL     1      35.707 -13.660 -22.424  0.00  0.00    +0.147 HD
ENDROOT
BRANCH   1   3
ATOM      3  C   UNL     1      35.032 -15.611 -22.278  0.00  0.00    +0.045 C 
ATOM      4  C   UNL     1      35.248 -17.925 -21.618  0.00  0.00    +0.001 C 
ATOM      5  C   UNL     1      35.281 -16.567 -21.295  0.00  0.00    +0.014 C 
ATOM      6  C   UNL     1      34.750 -16.011 -23.585  0.00  0.00    +0.014 C 
ATOM      7  C   UNL     1      34.967 -18.325 -22.924  0.00  0.00    +0.000 C 
ATOM      8  C   UNL     1      34.718 -17.367 -23.908  0.00  0.00    +0.001 C 
BRANCH   4   9
ATOM      9  C   UNL     1      35.507 -18.917 -20.597  0.00  0.00    +0.000 C 
ATOM     10  C   UNL     1      34.480 -19.755 -20.161  0.00  0.00    +0.006 C 
ATOM     11  C   UNL     1      36.784 -19.035 -20.049  0.00  0.00    +0.000 C 
ATOM     12  C   UNL     1      34.731 -20.710 -19.177  0.00  0.00    +0.075 C 
ATOM     13  C   UNL     1      37.035 -19.991 -19.064  0.00  0.00    +0.000 C 
ATOM     14  C   UNL     1      36.008 -20.829 -18.628  0.00  0.00    +0.006 C 
BRANCH  12  16
ATOM     15  O   UNL     1      32.596 -21.212 -18.221  0.00  0.00    -0.245 OA
ATOM     16  C   UNL     1      33.662 -21.585 -18.723  0.00  0.00    +0.338 C 
BRANCH  16  17
ATOM     17  O   UNL     1      33.953 -22.903 -18.907  0.00  0.00    -0.477 OA
ATOM     18  H   UNL     1      33.920 -23.495 -18.182  0.00  0.00    +0.295 HD
ENDBRANCH  16  17
ENDBRANCH  12  16
ENDBRANCH   4   9
ENDBRANCH   1   3
BRANCH   1  19
ATOM     19  C   UNL     1      34.209 -13.653 -20.968  0.00  0.00    +0.064 C 
BRANCH  19  20
ATOM     20  C   UNL     1      33.092 -12.880 -21.657  0.00  0.00    -0.060 C 
BRANCH  20  21
ATOM     21  N   UNL     1      31.974 -12.681 -20.742  0.00  0.00    +0.387 N 
ATOM     22  H   UNL     1      31.199 -12.256 -21.250  0.00  0.00    -0.084 HD
ATOM     23  H   UNL     1      31.697 -13.587 -20.364  0.00  0.00    -0.084 HD
BRANCH  21  24
ATOM     24  C   UNL     1      32.355 -11.813 -19.637  0.00  0.00    -0.047 C 
BRANCH  24  25
ATOM     25  C   UNL     1      31.345 -10.671 -19.469  0.00  0.00    +0.112 C 
BRANCH  25  27
ATOM     26 CL   UNL     1      32.373  -7.488 -23.451  0.00  0.00    -0.082 Cl
ATOM     27  C   UNL     1      31.908  -9.356 -19.962  0.00  0.00    +0.003 C 
ATOM     28  C   UNL     1      31.879  -9.074 -21.317  0.00  0.00    +0.009 C 
ATOM     29  C   UNL     1      32.439  -8.463 -19.047  0.00  0.00    -0.002 C 
ATOM     30  C   UNL     1      32.398  -7.861 -21.771  0.00  0.00    +0.057 C 
ATOM     31  C   UNL     1      32.958  -7.251 -19.501  0.00  0.00    +0.001 C 
ATOM     32  C   UNL     1      32.938  -6.949 -20.862  0.00  0.00    +0.011 C 
ENDBRANCH  25  27
BRANCH  25  33
ATOM     33  O   UNL     1      30.156 -10.950 -20.205  0.00  0.00    -0.382 OA
ATOM     34  H   UNL     1      29.729 -10.117 -20.460  0.00  0.00    +0.211 HD
ENDBRANCH  25  33
ENDBRANCH  24  25
ENDBRANCH  21  24
ENDBRANCH  20  21
ENDBRANCH  19  20
ENDBRANCH   1  19
TORSDOF 11
ENDMDL
MODEL 7
REMARK VINA RESULT:     -11.1      4.354     10.592
REMARK  Name = 9887812
REMARK  11 active torsions:
REMARK  status: ('A' for Active; 'I' for Inactive)
REMARK    1  A    between atoms: N_1  and  C_3
REMARK    2  A    between atoms: N_1  and  C_19
REMARK    3  A    between atoms: C_4  and  C_9
REMARK    4  A    between atoms: C_12  and  C_16
REMARK    5  A    between atoms: C_16  and  O_17
REMARK    6  A    between atoms: C_19  and  C_20
REMARK    7  A    between atoms: C_20  and  N_21
REMARK    8  A    between atoms: N_21  and  C_24
REMARK    9  A    between atoms: C_24  and  C_25
REMARK   10  A    between atoms: C_25  and  C_27
REMARK   11  A    between atoms: C_25  and  O_33
REMARK                            x       y       z     vdW  Elec       q    Type
REMARK                         _______ _______ _______ _____ _____    ______ ____
ROOT
ATOM      1  N   UNL     1      34.976 -21.618 -18.523  0.00  0.00    -0.335 N 
ATOM      2  H   UNL     1      35.590 -22.199 -19.026  0.00  0.00    +0.147 HD
ENDROOT
BRANCH   1   3
ATOM      3  C   UNL     1      34.632 -21.983 -17.205  0.00  0.00    +0.045 C 
ATOM      4  C   UNL     1      32.979 -22.700 -15.595  0.00  0.00    +0.001 C 
ATOM      5  C   UNL     1      33.318 -22.339 -16.900  0.00  0.00    +0.014 C 
ATOM      6  C   UNL     1      35.605 -21.986 -16.205  0.00  0.00    +0.014 C 
ATOM      7  C   UNL     1      33.952 -22.703 -14.596  0.00  0.00    +0.000 C 
ATOM      8  C   UNL     1      35.265 -22.345 -14.901  0.00  0.00    +0.001 C 
BRANCH   4   9
ATOM      9  C   UNL     1      31.616 -23.069 -15.279  0.00  0.00    +0.000 C 
ATOM     10  C   UNL     1      30.556 -22.498 -15.984  0.00  0.00    +0.006 C 
ATOM     11  C   UNL     1      31.362 -23.997 -14.269  0.00  0.00    +0.000 C 
ATOM     12  C   UNL     1      29.243 -22.855 -15.678  0.00  0.00    +0.075 C 
ATOM     13  C   UNL     1      30.049 -24.353 -13.963  0.00  0.00    +0.000 C 
ATOM     14  C   UNL     1      28.989 -23.782 -14.668  0.00  0.00    +0.006 C 
BRANCH  12  16
ATOM     15  O   UNL     1      27.719 -21.107 -16.268  0.00  0.00    -0.245 OA
ATOM     16  C   UNL     1      28.138 -22.260 -16.414  0.00  0.00    +0.338 C 
BRANCH  16  17
ATOM     17  O   UNL     1      27.585 -23.123 -17.311  0.00  0.00    -0.477 OA
ATOM     18  H   UNL     1      27.685 -24.047 -17.194  0.00  0.00    +0.295 HD
ENDBRANCH  16  17
ENDBRANCH  12  16
ENDBRANCH   4   9
ENDBRANCH   1   3
BRANCH   1  19
ATOM     19  C   UNL     1      34.474 -20.439 -19.159  0.00  0.00    +0.064 C 
BRANCH  19  20
ATOM     20  C   UNL     1      35.540 -19.863 -20.082  0.00  0.00    -0.060 C 
BRANCH  20  21
ATOM     21  N   UNL     1      35.115 -18.568 -20.600  0.00  0.00    +0.387 N 
ATOM     22  H   UNL     1      34.295 -18.254 -20.082  0.00  0.00    -0.084 HD
ATOM     23  H   UNL     1      35.882 -17.905 -20.488  0.00  0.00    -0.084 HD
BRANCH  21  24
ATOM     24  C   UNL     1      34.780 -18.659 -22.015  0.00  0.00    -0.047 C 
BRANCH  24  25
ATOM     25  C   UNL     1      35.739 -17.809 -22.858  0.00  0.00    +0.112 C 
BRANCH  25  27
ATOM     26 CL   UNL     1      34.591 -12.797 -22.076  0.00  0.00    -0.082 Cl
ATOM     27  C   UNL     1      35.071 -16.543 -23.348  0.00  0.00    +0.003 C 
ATOM     28  C   UNL     1      35.137 -15.399 -22.572  0.00  0.00    +0.009 C 
ATOM     29  C   UNL     1      34.409 -16.556 -24.564  0.00  0.00    -0.002 C 
ATOM     30  C   UNL     1      34.521 -14.232 -23.025  0.00  0.00    +0.057 C 
ATOM     31  C   UNL     1      33.793 -15.389 -25.016  0.00  0.00    +0.001 C 
ATOM     32  C   UNL     1      33.849 -14.227 -24.247  0.00  0.00    +0.011 C 
ENDBRANCH  25  27
BRANCH  25  33
ATOM     33  O   UNL     1      36.881 -17.440 -22.086  0.00  0.00    -0.382 OA
ATOM     34  H   UNL     1      37.680 -17.529 -22.628  0.00  0.00    +0.211 HD
ENDBRANCH  25  33
ENDBRANCH  24  25
ENDBRANCH  21  24
ENDBRANCH  20  21
ENDBRANCH  19  20
ENDBRANCH   1  19
TORSDOF 11
ENDMDL
MODEL 8
REMARK VINA RESULT:     -11.0      3.883     10.908
REMARK  Name = 9887812
REMARK  11 active torsions:
REMARK  status: ('A' for Active; 'I' for Inactive)
REMARK    1  A    between atoms: N_1  and  C_3
REMARK    2  A    between atoms: N_1  and  C_19
REMARK    3  A    between atoms: C_4  and  C_9
REMARK    4  A    between atoms: C_12  and  C_16
REMARK    5  A    between atoms: C_16  and  O_17
REMARK    6  A    between atoms: C_19  and  C_20
REMARK    7  A    between atoms: C_20  and  N_21
REMARK    8  A    between atoms: N_21  and  C_24
REMARK    9  A    between atoms: C_24  and  C_25
REMARK   10  A    between atoms: C_25  and  C_27
REMARK   11  A    between atoms: C_25  and  O_33
REMARK                            x       y       z     vdW  Elec       q    Type
REMARK                         _______ _______ _______ _____ _____    ______ ____
ROOT
ATOM      1  N   UNL     1      34.949 -21.689 -17.906  0.00  0.00    -0.335 N 
ATOM      2  H   UNL     1      34.303 -21.839 -18.634  0.00  0.00    +0.147 HD
ENDROOT
BRANCH   1   3
ATOM      3  C   UNL     1      34.658 -22.213 -16.629  0.00  0.00    +0.045 C 
ATOM      4  C   UNL     1      35.405 -23.005 -14.473  0.00  0.00    +0.001 C 
ATOM      5  C   UNL     1      35.693 -22.487 -15.736  0.00  0.00    +0.014 C 
ATOM      6  C   UNL     1      33.335 -22.457 -16.260  0.00  0.00    +0.014 C 
ATOM      7  C   UNL     1      34.082 -23.250 -14.104  0.00  0.00    +0.000 C 
ATOM      8  C   UNL     1      33.047 -22.976 -14.999  0.00  0.00    +0.001 C 
BRANCH   4   9
ATOM      9  C   UNL     1      36.479 -23.290 -13.546  0.00  0.00    +0.000 C 
ATOM     10  C   UNL     1      37.636 -23.929 -13.993  0.00  0.00    +0.006 C 
ATOM     11  C   UNL     1      36.357 -22.926 -12.205  0.00  0.00    +0.000 C 
ATOM     12  C   UNL     1      38.670 -24.203 -13.099  0.00  0.00    +0.075 C 
ATOM     13  C   UNL     1      37.392 -23.201 -11.311  0.00  0.00    +0.000 C 
ATOM     14  C   UNL     1      38.549 -23.840 -11.758  0.00  0.00    +0.006 C 
BRANCH  12  16
ATOM     15  O   UNL     1      40.989 -24.340 -13.673  0.00  0.00    -0.245 OA
ATOM     16  C   UNL     1      39.877 -24.868 -13.565  0.00  0.00    +0.338 C 
BRANCH  16  17
ATOM     17  O   UNL     1      39.663 -26.175 -13.883  0.00  0.00    -0.477 OA
ATOM     18  H   UNL     1      39.577 -26.430 -14.779  0.00  0.00    +0.295 HD
ENDBRANCH  16  17
ENDBRANCH  12  16
ENDBRANCH   4   9
ENDBRANCH   1   3
BRANCH   1  19
ATOM     19  C   UNL     1      36.142 -20.954 -18.192  0.00  0.00    +0.064 C 
BRANCH  19  20
ATOM     20  C   UNL     1      35.986 -20.222 -19.518  0.00  0.00    -0.060 C 
BRANCH  20  21
ATOM     21  N   UNL     1      36.841 -19.041 -19.550  0.00  0.00    +0.387 N 
ATOM     22  H   UNL     1      36.414 -18.306 -18.985  0.00  0.00    -0.084 HD
ATOM     23  H   UNL     1      37.756 -19.291 -19.176  0.00  0.00    -0.084 HD
BRANCH  21  24
ATOM     24  C   UNL     1      37.010 -18.558 -20.913  0.00  0.00    -0.047 C 
BRANCH  24  25
ATOM     25  C   UNL     1      36.215 -17.265 -21.136  0.00  0.00    +0.112 C 
BRANCH  25  27
ATOM     26 CL   UNL     1      34.212 -14.727 -25.208  0.00  0.00    -0.082 Cl
ATOM     27  C   UNL     1      35.438 -17.310 -22.433  0.00  0.00    +0.003 C 
ATOM     28  C   UNL     1      35.216 -16.135 -23.129  0.00  0.00    +0.009 C 
ATOM     29  C   UNL     1      34.967 -18.527 -22.897  0.00  0.00    -0.002 C 
ATOM     30  C   UNL     1      34.500 -16.177 -24.326  0.00  0.00    +0.057 C 
ATOM     31  C   UNL     1      34.251 -18.568 -24.093  0.00  0.00    +0.001 C 
ATOM     32  C   UNL     1      34.018 -17.394 -24.808  0.00  0.00    +0.011 C 
ENDBRANCH  25  27
BRANCH  25  33
ATOM     33  O   UNL     1      35.290 -17.064 -20.069  0.00  0.00    -0.382 OA
ATOM     34  H   UNL     1      35.758 -17.115 -19.220  0.00  0.00    +0.211 HD
ENDBRANCH  25  33
ENDBRANCH  24  25
ENDBRANCH  21  24
ENDBRANCH  20  21
ENDBRANCH  19  20
ENDBRANCH   1  19
TORSDOF 11
ENDMDL
MODEL 9
REMARK VINA RESULT:     -11.0      4.136     10.306
REMARK  Name = 9887812
REMARK  11 active torsions:
REMARK  status: ('A' for Active; 'I' for Inactive)
REMARK    1  A    between atoms: N_1  and  C_3
REMARK    2  A    between atoms: N_1  and  C_19
REMARK    3  A    between atoms: C_4  and  C_9
REMARK    4  A    between atoms: C_12  and  C_16
REMARK    5  A    between atoms: C_16  and  O_17
REMARK    6  A    between atoms: C_19  and  C_20
REMARK    7  A    between atoms: C_20  and  N_21
REMARK    8  A    between atoms: N_21  and  C_24
REMARK    9  A    between atoms: C_24  and  C_25
REMARK   10  A    between atoms: C_25  and  C_27
REMARK   11  A    between atoms: C_25  and  O_33
REMARK                            x       y       z     vdW  Elec       q    Type
REMARK                         _______ _______ _______ _____ _____    ______ ____
ROOT
ATOM      1  N   UNL     1      34.467 -17.813 -23.419  0.00  0.00    -0.335 N 
ATOM      2  H   UNL     1      33.768 -18.444 -23.707  0.00  0.00    +0.147 HD
ENDROOT
BRANCH   1   3
ATOM      3  C   UNL     1      35.295 -18.173 -22.336  0.00  0.00    +0.045 C 
ATOM      4  C   UNL     1      35.637 -19.392 -20.278  0.00  0.00    +0.001 C 
ATOM      5  C   UNL     1      34.817 -19.036 -21.350  0.00  0.00    +0.014 C 
ATOM      6  C   UNL     1      36.591 -17.664 -22.248  0.00  0.00    +0.014 C 
ATOM      7  C   UNL     1      36.933 -18.883 -20.191  0.00  0.00    +0.000 C 
ATOM      8  C   UNL     1      37.409 -18.018 -21.177  0.00  0.00    +0.001 C 
BRANCH   4   9
ATOM      9  C   UNL     1      35.141 -20.287 -19.255  0.00  0.00    +0.000 C 
ATOM     10  C   UNL     1      35.990 -20.724 -18.238  0.00  0.00    +0.006 C 
ATOM     11  C   UNL     1      33.813 -20.713 -19.287  0.00  0.00    +0.000 C 
ATOM     12  C   UNL     1      35.511 -21.588 -17.254  0.00  0.00    +0.075 C 
ATOM     13  C   UNL     1      33.335 -21.578 -18.301  0.00  0.00    +0.000 C 
ATOM     14  C   UNL     1      34.184 -22.015 -17.284  0.00  0.00    +0.006 C 
BRANCH  12  16
ATOM     15  O   UNL     1      36.215 -23.043 -15.489  0.00  0.00    -0.245 OA
ATOM     16  C   UNL     1      36.396 -22.043 -16.192  0.00  0.00    +0.338 C 
BRANCH  16  17
ATOM     17  O   UNL     1      37.482 -21.236 -16.037  0.00  0.00    -0.477 OA
ATOM     18  H   UNL     1      37.486 -20.581 -15.369  0.00  0.00    +0.295 HD
ENDBRANCH  16  17
ENDBRANCH  12  16
ENDBRANCH   4   9
ENDBRANCH   1   3
BRANCH   1  19
ATOM     19  C   UNL     1      34.601 -16.573 -24.121  0.00  0.00    +0.064 C 
BRANCH  19  20
ATOM     20  C   UNL     1      33.455 -16.421 -25.113  0.00  0.00    -0.060 C 
BRANCH  20  21
ATOM     21  N   UNL     1      33.103 -15.015 -25.270  0.00  0.00    +0.387 N 
ATOM     22  H   UNL     1      33.037 -14.797 -26.264  0.00  0.00    -0.084 HD
ATOM     23  H   UNL     1      32.208 -14.850 -24.810  0.00  0.00    -0.084 HD
BRANCH  21  24
ATOM     24  C   UNL     1      34.108 -14.157 -24.658  0.00  0.00    -0.047 C 
BRANCH  24  25
ATOM     25  C   UNL     1      33.452 -12.945 -23.984  0.00  0.00    +0.112 C 
BRANCH  25  27
ATOM     26 CL   UNL     1      35.127 -15.298 -19.660  0.00  0.00    -0.082 Cl
ATOM     27  C   UNL     1      33.333 -13.140 -22.489  0.00  0.00    +0.003 C 
ATOM     28  C   UNL     1      34.186 -14.025 -21.852  0.00  0.00    +0.009 C 
ATOM     29  C   UNL     1      32.374 -12.428 -21.789  0.00  0.00    -0.002 C 
ATOM     30  C   UNL     1      34.076 -14.204 -20.473  0.00  0.00    +0.057 C 
ATOM     31  C   UNL     1      32.264 -12.608 -20.410  0.00  0.00    +0.001 C 
ATOM     32  C   UNL     1      33.115 -13.495 -19.752  0.00  0.00    +0.011 C 
ENDBRANCH  25  27
BRANCH  25  33
ATOM     33  O   UNL     1      34.225 -11.770 -24.220  0.00  0.00    -0.382 OA
ATOM     34  H   UNL     1      35.060 -12.012 -24.651  0.00  0.00    +0.211 HD
ENDBRANCH  25  33
ENDBRANCH  24  25
ENDBRANCH  21  24
ENDBRANCH  20  21
ENDBRANCH  19  20
ENDBRANCH   1  19
TORSDOF 11
ENDMDL
