MODEL 1
REMARK VINA RESULT:     -12.5      0.000      0.000
REMARK  Name = 16741238
REMARK  6 active torsions:
REMARK  status: ('A' for Active; 'I' for Inactive)
REMARK    1  A    between atoms: N_1  and  C_22
REMARK    2  A    between atoms: C_10  and  C_15
REMARK    3  A    between atoms: C_15  and  C_16
REMARK    4  A    between atoms: C_22  and  C_23
REMARK    5  A    between atoms: C_23  and  C_26
REMARK    6  A    between atoms: N_25  and  C_28
REMARK                            x       y       z     vdW  Elec       q    Type
REMARK                         _______ _______ _______ _____ _____    ______ ____
ROOT
ATOM      1  N   UNL     1      33.414 -22.546 -16.792  0.00  0.00    -0.249 N 
ATOM      2  N   UNL     1      32.197 -22.640 -14.719  0.00  0.00    -0.373 NA
ATOM      3  N   UNL     1      31.127 -21.989 -16.664  0.00  0.00    -0.321 N 
ATOM      4  C   UNL     1      34.680 -22.986 -16.204  0.00  0.00    +0.071 C 
ATOM      5  C   UNL     1      34.578 -23.242 -14.727  0.00  0.00    +0.045 C 
ATOM      6  C   UNL     1      32.264 -22.406 -16.008  0.00  0.00    +0.239 C 
ATOM      7  C   UNL     1      33.360 -23.062 -14.056  0.00  0.00    +0.136 C 
ATOM      8  C   UNL     1      35.709 -23.666 -14.016  0.00  0.00    +0.007 C 
ATOM      9  C   UNL     1      33.294 -23.310 -12.679  0.00  0.00    +0.032 C 
ATOM     10  C   UNL     1      35.632 -23.910 -12.645  0.00  0.00    +0.039 C 
ATOM     11  C   UNL     1      34.423 -23.731 -11.976  0.00  0.00    +0.006 C 
ATOM     12  H   UNL     1      31.155 -21.809 -17.632  0.00  0.00    +0.146 HD
ATOM     13  H   UNL     1      30.286 -21.873 -16.165  0.00  0.00    +0.146 HD
ENDROOT
BRANCH  10  15
ATOM     14  O   UNL     1      36.789 -24.417 -10.677  0.00  0.00    -0.287 OA
ATOM     15  C   UNL     1      36.810 -24.348 -11.915  0.00  0.00    +0.196 C 
BRANCH  15  16
ATOM     16  C   UNL     1      38.080 -24.733 -12.601  0.00  0.00    +0.039 C 
ATOM     17  C   UNL     1      39.208 -23.920 -12.490  0.00  0.00    +0.003 C 
ATOM     18  C   UNL     1      38.139 -25.906 -13.354  0.00  0.00    +0.003 C 
ATOM     19  C   UNL     1      40.393 -24.280 -13.130  0.00  0.00    +0.000 C 
ATOM     20  C   UNL     1      39.324 -26.266 -13.994  0.00  0.00    +0.000 C 
ATOM     21  C   UNL     1      40.452 -25.452 -13.882  0.00  0.00    +0.000 C 
ENDBRANCH  15  16
ENDBRANCH  10  15
BRANCH   1  22
ATOM     22  C   UNL     1      33.456 -22.278 -18.226  0.00  0.00    +0.109 C 
BRANCH  22  23
ATOM     23  C   UNL     1      34.518 -21.229 -18.542  0.00  0.00    +0.107 C 
BRANCH  23  26
ATOM     24  O   UNL     1      32.835 -19.986 -19.720  0.00  0.00    -0.275 OA
ATOM     25  N   UNL     1      35.035 -19.347 -20.076  0.00  0.00    -0.279 N 
ATOM     26  C   UNL     1      34.039 -20.139 -19.495  0.00  0.00    +0.227 C 
ATOM     27  C   UNL     1      36.456 -19.545 -19.796  0.00  0.00    +0.115 C 
BRANCH  25  28
ATOM     28  C   UNL     1      34.735 -18.276 -20.996  0.00  0.00    +0.075 C 
ATOM     29  C   UNL     1      34.993 -18.720 -22.438  0.00  0.00    +0.020 C 
ATOM     30  C   UNL     1      35.538 -17.020 -20.647  0.00  0.00    +0.020 C 
ATOM     31  C   UNL     1      34.734 -17.589 -23.430  0.00  0.00    +0.002 C 
ATOM     32  C   UNL     1      35.277 -15.891 -21.641  0.00  0.00    +0.002 C 
ATOM     33  C   UNL     1      35.533 -16.337 -23.077  0.00  0.00    +0.000 C 
ENDBRANCH  25  28
ENDBRANCH  23  26
ENDBRANCH  22  23
ENDBRANCH   1  22
TORSDOF 6
ENDMDL
MODEL 2
REMARK VINA RESULT:     -12.4      6.320     11.013
REMARK  Name = 16741238
REMARK  6 active torsions:
REMARK  status: ('A' for Active; 'I' for Inactive)
REMARK    1  A    between atoms: N_1  and  C_22
REMARK    2  A    between atoms: C_10  and  C_15
REMARK    3  A    between atoms: C_15  and  C_16
REMARK    4  A    between atoms: C_22  and  C_23
REMARK    5  A    between atoms: C_23  and  C_26
REMARK    6  A    between atoms: N_25  and  C_28
REMARK                            x       y       z     vdW  Elec       q    Type
REMARK                         _______ _______ _______ _____ _____    ______ ____
ROOT
ATOM      1  N   UNL     1      34.296 -13.255 -23.559  0.00  0.00    -0.249 N 
ATOM      2  N   UNL     1      33.889 -15.238 -24.858  0.00  0.00    -0.373 NA
ATOM      3  N   UNL     1      33.276 -13.165 -25.682  0.00  0.00    -0.321 N 
ATOM      4  C   UNL     1      34.908 -13.972 -22.440  0.00  0.00    +0.071 C 
ATOM      5  C   UNL     1      34.957 -15.459 -22.658  0.00  0.00    +0.045 C 
ATOM      6  C   UNL     1      33.831 -13.939 -24.687  0.00  0.00    +0.239 C 
ATOM      7  C   UNL     1      34.453 -16.022 -23.839  0.00  0.00    +0.136 C 
ATOM      8  C   UNL     1      35.511 -16.288 -21.673  0.00  0.00    +0.007 C 
ATOM      9  C   UNL     1      34.513 -17.410 -24.016  0.00  0.00    +0.032 C 
ATOM     10  C   UNL     1      35.565 -17.669 -21.859  0.00  0.00    +0.039 C 
ATOM     11  C   UNL     1      35.066 -18.230 -23.032  0.00  0.00    +0.006 C 
ATOM     12  H   UNL     1      33.225 -12.188 -25.575  0.00  0.00    +0.146 HD
ATOM     13  H   UNL     1      32.932 -13.590 -26.501  0.00  0.00    +0.146 HD
ENDROOT
BRANCH  10  15
ATOM     14  O   UNL     1      37.354 -18.467 -20.582  0.00  0.00    -0.287 OA
ATOM     15  C   UNL     1      36.141 -18.521 -20.832  0.00  0.00    +0.196 C 
BRANCH  15  16
ATOM     16  C   UNL     1      35.320 -19.485 -20.039  0.00  0.00    +0.039 C 
ATOM     17  C   UNL     1      35.945 -20.423 -19.217  0.00  0.00    +0.003 C 
ATOM     18  C   UNL     1      33.927 -19.447 -20.119  0.00  0.00    +0.003 C 
ATOM     19  C   UNL     1      35.178 -21.322 -18.476  0.00  0.00    +0.000 C 
ATOM     20  C   UNL     1      33.161 -20.346 -19.378  0.00  0.00    +0.000 C 
ATOM     21  C   UNL     1      33.787 -21.284 -18.557  0.00  0.00    +0.000 C 
ENDBRANCH  15  16
ENDBRANCH  10  15
BRANCH   1  22
ATOM     22  C   UNL     1      34.218 -11.807 -23.399  0.00  0.00    +0.109 C 
BRANCH  22  23
ATOM     23  C   UNL     1      33.169 -11.441 -22.354  0.00  0.00    +0.107 C 
BRANCH  23  26
ATOM     24  O   UNL     1      33.692  -9.138 -22.791  0.00  0.00    -0.275 OA
ATOM     25  N   UNL     1      32.039  -9.545 -21.217  0.00  0.00    -0.279 N 
ATOM     26  C   UNL     1      33.003  -9.938 -22.151  0.00  0.00    +0.227 C 
ATOM     27  C   UNL     1      31.233 -10.508 -20.470  0.00  0.00    +0.115 C 
BRANCH  25  28
ATOM     28  C   UNL     1      31.768  -8.158 -20.920  0.00  0.00    +0.075 C 
ATOM     29  C   UNL     1      31.601  -7.357 -22.213  0.00  0.00    +0.020 C 
ATOM     30  C   UNL     1      32.870  -7.568 -20.036  0.00  0.00    +0.020 C 
ATOM     31  C   UNL     1      31.366  -5.875 -21.931  0.00  0.00    +0.002 C 
ATOM     32  C   UNL     1      32.632  -6.086 -19.756  0.00  0.00    +0.002 C 
ATOM     33  C   UNL     1      32.463  -5.290 -21.047  0.00  0.00    +0.000 C 
ENDBRANCH  25  28
ENDBRANCH  23  26
ENDBRANCH  22  23
ENDBRANCH   1  22
TORSDOF 6
ENDMDL
MODEL 3
REMARK VINA RESULT:     -12.2      6.407     11.212
REMARK  Name = 16741238
REMARK  6 active torsions:
REMARK  status: ('A' for Active; 'I' for Inactive)
REMARK    1  A    between atoms: N_1  and  C_22
REMARK    2  A    between atoms: C_10  and  C_15
REMARK    3  A    between atoms: C_15  and  C_16
REMARK    4  A    between atoms: C_22  and  C_23
REMARK    5  A    between atoms: C_23  and  C_26
REMARK    6  A    between atoms: N_25  and  C_28
REMARK                            x       y       z     vdW  Elec       q    Type
REMARK                         _______ _______ _______ _____ _____    ______ ____
ROOT
ATOM      1  N   UNL     1      34.218 -13.207 -23.931  0.00  0.00    -0.249 N 
ATOM      2  N   UNL     1      33.570 -15.261 -25.002  0.00  0.00    -0.373 NA
ATOM      3  N   UNL     1      32.945 -13.229 -25.914  0.00  0.00    -0.321 N 
ATOM      4  C   UNL     1      34.937 -13.866 -22.839  0.00  0.00    +0.071 C 
ATOM      5  C   UNL     1      34.896 -15.365 -22.938  0.00  0.00    +0.045 C 
ATOM      6  C   UNL     1      33.588 -13.951 -24.933  0.00  0.00    +0.239 C 
ATOM      7  C   UNL     1      34.226 -15.991 -23.998  0.00  0.00    +0.136 C 
ATOM      8  C   UNL     1      35.535 -16.143 -21.962  0.00  0.00    +0.007 C 
ATOM      9  C   UNL     1      34.205 -17.390 -24.065  0.00  0.00    +0.032 C 
ATOM     10  C   UNL     1      35.508 -17.535 -22.039  0.00  0.00    +0.039 C 
ATOM     11  C   UNL     1      34.843 -18.159 -23.091  0.00  0.00    +0.006 C 
ATOM     12  H   UNL     1      32.948 -12.245 -25.883  0.00  0.00    +0.146 HD
ATOM     13  H   UNL     1      32.483 -13.697 -26.647  0.00  0.00    +0.146 HD
ENDROOT
BRANCH  10  15
ATOM     14  O   UNL     1      37.387 -18.196 -20.813  0.00  0.00    -0.287 OA
ATOM     15  C   UNL     1      36.173 -18.334 -21.022  0.00  0.00    +0.196 C 
BRANCH  15  16
ATOM     16  C   UNL     1      35.444 -19.340 -20.192  0.00  0.00    +0.039 C 
ATOM     17  C   UNL     1      34.050 -19.367 -20.191  0.00  0.00    +0.003 C 
ATOM     18  C   UNL     1      36.159 -20.254 -19.417  0.00  0.00    +0.003 C 
ATOM     19  C   UNL     1      33.370 -20.307 -19.417  0.00  0.00    +0.000 C 
ATOM     20  C   UNL     1      35.480 -21.194 -18.642  0.00  0.00    +0.000 C 
ATOM     21  C   UNL     1      34.085 -21.220 -18.642  0.00  0.00    +0.000 C 
ENDBRANCH  15  16
ENDBRANCH  10  15
BRANCH   1  22
ATOM     22  C   UNL     1      34.221 -11.748 -23.883  0.00  0.00    +0.109 C 
BRANCH  22  23
ATOM     23  C   UNL     1      33.395 -11.251 -22.700  0.00  0.00    +0.107 C 
BRANCH  23  26
ATOM     24  O   UNL     1      34.421  -9.102 -23.009  0.00  0.00    -0.275 OA
ATOM     25  N   UNL     1      32.679  -9.210 -21.484  0.00  0.00    -0.279 N 
ATOM     26  C   UNL     1      33.557  -9.760 -22.423  0.00  0.00    +0.227 C 
ATOM     27  C   UNL     1      31.662 -10.007 -20.800  0.00  0.00    +0.115 C 
BRANCH  25  28
ATOM     28  C   UNL     1      32.711  -7.813 -21.120  0.00  0.00    +0.075 C 
ATOM     29  C   UNL     1      32.582  -7.652 -19.603  0.00  0.00    +0.020 C 
ATOM     30  C   UNL     1      31.617  -7.036 -21.858  0.00  0.00    +0.020 C 
ATOM     31  C   UNL     1      32.559  -6.181 -19.193  0.00  0.00    +0.002 C 
ATOM     32  C   UNL     1      31.597  -5.566 -21.446  0.00  0.00    +0.002 C 
ATOM     33  C   UNL     1      31.471  -5.408 -19.933  0.00  0.00    +0.000 C 
ENDBRANCH  25  28
ENDBRANCH  23  26
ENDBRANCH  22  23
ENDBRANCH   1  22
TORSDOF 6
ENDMDL
MODEL 4
REMARK VINA RESULT:     -11.8      2.402      4.081
REMARK  Name = 16741238
REMARK  6 active torsions:
REMARK  status: ('A' for Active; 'I' for Inactive)
REMARK    1  A    between atoms: N_1  and  C_22
REMARK    2  A    between atoms: C_10  and  C_15
REMARK    3  A    between atoms: C_15  and  C_16
REMARK    4  A    between atoms: C_22  and  C_23
REMARK    5  A    between atoms: C_23  and  C_26
REMARK    6  A    between atoms: N_25  and  C_28
REMARK                            x       y       z     vdW  Elec       q    Type
REMARK                         _______ _______ _______ _____ _____    ______ ____
ROOT
ATOM      1  N   UNL     1      34.698 -19.878 -19.877  0.00  0.00    -0.249 N 
ATOM      2  N   UNL     1      33.287 -21.185 -18.433  0.00  0.00    -0.373 NA
ATOM      3  N   UNL     1      32.383 -20.095 -20.262  0.00  0.00    -0.321 N 
ATOM      4  C   UNL     1      35.923 -20.153 -19.124  0.00  0.00    +0.071 C 
ATOM      5  C   UNL     1      35.685 -21.033 -17.928  0.00  0.00    +0.045 C 
ATOM      6  C   UNL     1      33.470 -20.415 -19.478  0.00  0.00    +0.239 C 
ATOM      7  C   UNL     1      34.398 -21.505 -17.637  0.00  0.00    +0.136 C 
ATOM      8  C   UNL     1      36.760 -21.384 -17.100  0.00  0.00    +0.007 C 
ATOM      9  C   UNL     1      34.207 -22.325 -16.517  0.00  0.00    +0.032 C 
ATOM     10  C   UNL     1      36.558 -22.200 -15.987  0.00  0.00    +0.039 C 
ATOM     11  C   UNL     1      35.280 -22.671 -15.696  0.00  0.00    +0.006 C 
ATOM     12  H   UNL     1      32.498 -19.519 -21.053  0.00  0.00    +0.146 HD
ATOM     13  H   UNL     1      31.491 -20.443 -20.032  0.00  0.00    +0.146 HD
ENDROOT
BRANCH  10  15
ATOM     14  O   UNL     1      38.822 -22.162 -15.402  0.00  0.00    -0.287 OA
ATOM     15  C   UNL     1      37.678 -22.558 -15.133  0.00  0.00    +0.196 C 
BRANCH  15  16
ATOM     16  C   UNL     1      37.515 -23.403 -13.911  0.00  0.00    +0.039 C 
ATOM     17  C   UNL     1      37.187 -22.810 -12.692  0.00  0.00    +0.003 C 
ATOM     18  C   UNL     1      37.691 -24.785 -13.990  0.00  0.00    +0.003 C 
ATOM     19  C   UNL     1      37.034 -23.599 -11.552  0.00  0.00    +0.000 C 
ATOM     20  C   UNL     1      37.538 -25.573 -12.850  0.00  0.00    +0.000 C 
ATOM     21  C   UNL     1      37.210 -24.980 -11.631  0.00  0.00    +0.000 C 
ENDBRANCH  15  16
ENDBRANCH  10  15
BRANCH   1  22
ATOM     22  C   UNL     1      34.869 -19.024 -21.048  0.00  0.00    +0.109 C 
BRANCH  22  23
ATOM     23  C   UNL     1      36.046 -18.074 -20.847  0.00  0.00    +0.107 C 
BRANCH  23  26
ATOM     24  O   UNL     1      35.599 -16.197 -19.417  0.00  0.00    -0.275 OA
ATOM     25  N   UNL     1      35.299 -15.862 -21.692  0.00  0.00    -0.279 N 
ATOM     26  C   UNL     1      35.630 -16.632 -20.572  0.00  0.00    +0.227 C 
ATOM     27  C   UNL     1      35.342 -16.397 -23.051  0.00  0.00    +0.115 C 
BRANCH  25  28
ATOM     28  C   UNL     1      34.889 -14.482 -21.588  0.00  0.00    +0.075 C 
ATOM     29  C   UNL     1      33.734 -14.339 -20.595  0.00  0.00    +0.020 C 
ATOM     30  C   UNL     1      34.513 -13.924 -22.964  0.00  0.00    +0.020 C 
ATOM     31  C   UNL     1      33.244 -12.896 -20.504  0.00  0.00    +0.002 C 
ATOM     32  C   UNL     1      34.024 -12.480 -22.870  0.00  0.00    +0.002 C 
ATOM     33  C   UNL     1      32.874 -12.340 -21.877  0.00  0.00    +0.000 C 
ENDBRANCH  25  28
ENDBRANCH  23  26
ENDBRANCH  22  23
ENDBRANCH   1  22
TORSDOF 6
ENDMDL
MODEL 5
REMARK VINA RESULT:     -11.8      1.824      3.176
REMARK  Name = 16741238
REMARK  6 active torsions:
REMARK  status: ('A' for Active; 'I' for Inactive)
REMARK    1  A    between atoms: N_1  and  C_22
REMARK    2  A    between atoms: C_10  and  C_15
REMARK    3  A    between atoms: C_15  and  C_16
REMARK    4  A    between atoms: C_22  and  C_23
REMARK    5  A    between atoms: C_23  and  C_26
REMARK    6  A    between atoms: N_25  and  C_28
REMARK                            x       y       z     vdW  Elec       q    Type
REMARK                         _______ _______ _______ _____ _____    ______ ____
ROOT
ATOM      1  N   UNL     1      34.862 -20.699 -19.121  0.00  0.00    -0.249 N 
ATOM      2  N   UNL     1      32.706 -21.277 -18.226  0.00  0.00    -0.373 NA
ATOM      3  N   UNL     1      32.863 -20.179 -20.256  0.00  0.00    -0.321 N 
ATOM      4  C   UNL     1      35.611 -21.271 -18.001  0.00  0.00    +0.071 C 
ATOM      5  C   UNL     1      34.718 -21.870 -16.950  0.00  0.00    +0.045 C 
ATOM      6  C   UNL     1      33.465 -20.744 -19.153  0.00  0.00    +0.239 C 
ATOM      7  C   UNL     1      33.325 -21.849 -17.103  0.00  0.00    +0.136 C 
ATOM      8  C   UNL     1      35.285 -22.455 -15.809  0.00  0.00    +0.007 C 
ATOM      9  C   UNL     1      32.518 -22.415 -16.109  0.00  0.00    +0.032 C 
ATOM     10  C   UNL     1      34.472 -23.016 -14.824  0.00  0.00    +0.039 C 
ATOM     11  C   UNL     1      33.088 -22.996 -14.975  0.00  0.00    +0.006 C 
ATOM     12  H   UNL     1      33.414 -19.775 -20.965  0.00  0.00    +0.146 HD
ATOM     13  H   UNL     1      31.881 -20.181 -20.335  0.00  0.00    +0.146 HD
ENDROOT
BRANCH  10  15
ATOM     14  O   UNL     1      34.451 -23.632 -12.568  0.00  0.00    -0.287 OA
ATOM     15  C   UNL     1      35.068 -23.619 -13.644  0.00  0.00    +0.196 C 
BRANCH  15  16
ATOM     16  C   UNL     1      36.425 -24.245 -13.663  0.00  0.00    +0.039 C 
ATOM     17  C   UNL     1      37.472 -23.662 -12.950  0.00  0.00    +0.003 C 
ATOM     18  C   UNL     1      36.644 -25.414 -14.393  0.00  0.00    +0.003 C 
ATOM     19  C   UNL     1      38.738 -24.247 -12.967  0.00  0.00    +0.000 C 
ATOM     20  C   UNL     1      37.910 -25.999 -14.410  0.00  0.00    +0.000 C 
ATOM     21  C   UNL     1      38.957 -25.415 -13.697  0.00  0.00    +0.000 C 
ENDBRANCH  15  16
ENDBRANCH  10  15
BRANCH   1  22
ATOM     22  C   UNL     1      35.679 -20.099 -20.171  0.00  0.00    +0.109 C 
BRANCH  22  23
ATOM     23  C   UNL     1      35.808 -18.594 -19.952  0.00  0.00    +0.107 C 
BRANCH  23  26
ATOM     24  O   UNL     1      36.175 -18.297 -22.307  0.00  0.00    -0.275 OA
ATOM     25  N   UNL     1      35.374 -16.459 -21.143  0.00  0.00    -0.279 N 
ATOM     26  C   UNL     1      35.808 -17.785 -21.246  0.00  0.00    +0.227 C 
ATOM     27  C   UNL     1      34.944 -15.871 -19.876  0.00  0.00    +0.115 C 
BRANCH  25  28
ATOM     28  C   UNL     1      35.318 -15.572 -22.280  0.00  0.00    +0.075 C 
ATOM     29  C   UNL     1      34.594 -14.275 -21.913  0.00  0.00    +0.020 C 
ATOM     30  C   UNL     1      34.652 -16.263 -23.474  0.00  0.00    +0.020 C 
ATOM     31  C   UNL     1      34.473 -13.338 -23.113  0.00  0.00    +0.002 C 
ATOM     32  C   UNL     1      34.532 -15.325 -24.672  0.00  0.00    +0.002 C 
ATOM     33  C   UNL     1      33.813 -14.031 -24.302  0.00  0.00    +0.000 C 
ENDBRANCH  25  28
ENDBRANCH  23  26
ENDBRANCH  22  23
ENDBRANCH   1  22
TORSDOF 6
ENDMDL
MODEL 6
REMARK VINA RESULT:     -11.5      3.094      6.014
REMARK  Name = 16741238
REMARK  6 active torsions:
REMARK  status: ('A' for Active; 'I' for Inactive)
REMARK    1  A    between atoms: N_1  and  C_22
REMARK    2  A    between atoms: C_10  and  C_15
REMARK    3  A    between atoms: C_15  and  C_16
REMARK    4  A    between atoms: C_22  and  C_23
REMARK    5  A    between atoms: C_23  and  C_26
REMARK    6  A    between atoms: N_25  and  C_28
REMARK                            x       y       z     vdW  Elec       q    Type
REMARK                         _______ _______ _______ _____ _____    ______ ____
ROOT
ATOM      1  N   UNL     1      35.920 -21.695 -16.599  0.00  0.00    -0.249 N 
ATOM      2  N   UNL     1      35.969 -22.497 -14.332  0.00  0.00    -0.373 NA
ATOM      3  N   UNL     1      37.851 -21.521 -15.258  0.00  0.00    -0.321 N 
ATOM      4  C   UNL     1      34.527 -22.082 -16.830  0.00  0.00    +0.071 C 
ATOM      5  C   UNL     1      33.899 -22.734 -15.630  0.00  0.00    +0.045 C 
ATOM      6  C   UNL     1      36.539 -21.929 -15.367  0.00  0.00    +0.239 C 
ATOM      7  C   UNL     1      34.633 -22.912 -14.450  0.00  0.00    +0.136 C 
ATOM      8  C   UNL     1      32.567 -23.168 -15.694  0.00  0.00    +0.007 C 
ATOM      9  C   UNL     1      34.021 -23.522 -13.348  0.00  0.00    +0.032 C 
ATOM     10  C   UNL     1      31.967 -23.774 -14.591  0.00  0.00    +0.039 C 
ATOM     11  C   UNL     1      32.695 -23.951 -13.417  0.00  0.00    +0.006 C 
ATOM     12  H   UNL     1      38.298 -21.092 -16.022  0.00  0.00    +0.146 HD
ATOM     13  H   UNL     1      38.340 -21.659 -14.414  0.00  0.00    +0.146 HD
ENDROOT
BRANCH  10  15
ATOM     14  O   UNL     1      30.274 -25.357 -14.277  0.00  0.00    -0.287 OA
ATOM     15  C   UNL     1      30.586 -24.221 -14.666  0.00  0.00    +0.196 C 
BRANCH  15  16
ATOM     16  C   UNL     1      29.493 -23.356 -15.202  0.00  0.00    +0.039 C 
ATOM     17  C   UNL     1      28.853 -23.697 -16.393  0.00  0.00    +0.003 C 
ATOM     18  C   UNL     1      29.110 -22.206 -14.510  0.00  0.00    +0.003 C 
ATOM     19  C   UNL     1      27.831 -22.890 -16.893  0.00  0.00    +0.000 C 
ATOM     20  C   UNL     1      28.089 -21.398 -15.010  0.00  0.00    +0.000 C 
ATOM     21  C   UNL     1      27.450 -21.740 -16.201  0.00  0.00    +0.000 C 
ENDBRANCH  15  16
ENDBRANCH  10  15
BRANCH   1  22
ATOM     22  C   UNL     1      36.583 -21.059 -17.733  0.00  0.00    +0.109 C 
BRANCH  22  23
ATOM     23  C   UNL     1      35.576 -20.755 -18.838  0.00  0.00    +0.107 C 
BRANCH  23  26
ATOM     24  O   UNL     1      37.285 -19.502 -19.966  0.00  0.00    -0.275 OA
ATOM     25  N   UNL     1      35.104 -19.144 -20.667  0.00  0.00    -0.279 N 
ATOM     26  C   UNL     1      36.080 -19.748 -19.867  0.00  0.00    +0.227 C 
ATOM     27  C   UNL     1      33.681 -19.450 -20.533  0.00  0.00    +0.115 C 
BRANCH  25  28
ATOM     28  C   UNL     1      35.429 -18.174 -21.685  0.00  0.00    +0.075 C 
ATOM     29  C   UNL     1      35.304 -16.753 -21.130  0.00  0.00    +0.020 C 
ATOM     30  C   UNL     1      34.547 -18.369 -22.921  0.00  0.00    +0.020 C 
ATOM     31  C   UNL     1      35.592 -15.703 -22.200  0.00  0.00    +0.002 C 
ATOM     32  C   UNL     1      34.837 -17.317 -23.990  0.00  0.00    +0.002 C 
ATOM     33  C   UNL     1      34.714 -15.902 -23.433  0.00  0.00    +0.000 C 
ENDBRANCH  25  28
ENDBRANCH  23  26
ENDBRANCH  22  23
ENDBRANCH   1  22
TORSDOF 6
ENDMDL
MODEL 7
REMARK VINA RESULT:     -11.4      6.509     14.511
REMARK  Name = 16741238
REMARK  6 active torsions:
REMARK  status: ('A' for Active; 'I' for Inactive)
REMARK    1  A    between atoms: N_1  and  C_22
REMARK    2  A    between atoms: C_10  and  C_15
REMARK    3  A    between atoms: C_15  and  C_16
REMARK    4  A    between atoms: C_22  and  C_23
REMARK    5  A    between atoms: C_23  and  C_26
REMARK    6  A    between atoms: N_25  and  C_28
REMARK                            x       y       z     vdW  Elec       q    Type
REMARK                         _______ _______ _______ _____ _____    ______ ____
ROOT
ATOM      1  N   UNL     1      34.024 -14.019 -23.481  0.00  0.00    -0.249 N 
ATOM      2  N   UNL     1      33.660 -12.800 -25.522  0.00  0.00    -0.373 NA
ATOM      3  N   UNL     1      33.447 -15.103 -25.493  0.00  0.00    -0.321 N 
ATOM      4  C   UNL     1      34.321 -12.827 -22.684  0.00  0.00    +0.071 C 
ATOM      5  C   UNL     1      34.259 -11.559 -23.489  0.00  0.00    +0.045 C 
ATOM      6  C   UNL     1      33.714 -13.919 -24.841  0.00  0.00    +0.239 C 
ATOM      7  C   UNL     1      33.936 -11.597 -24.853  0.00  0.00    +0.136 C 
ATOM      8  C   UNL     1      34.524 -10.330 -22.870  0.00  0.00    +0.007 C 
ATOM      9  C   UNL     1      33.884 -10.400 -25.578  0.00  0.00    +0.032 C 
ATOM     10  C   UNL     1      34.470  -9.144 -23.601  0.00  0.00    +0.039 C 
ATOM     11  C   UNL     1      34.149  -9.179 -24.956  0.00  0.00    +0.006 C 
ATOM     12  H   UNL     1      33.480 -15.955 -24.999  0.00  0.00    +0.146 HD
ATOM     13  H   UNL     1      33.222 -15.097 -26.451  0.00  0.00    +0.146 HD
ENDROOT
BRANCH  10  15
ATOM     14  O   UNL     1      35.908  -7.440 -22.896  0.00  0.00    -0.287 OA
ATOM     15  C   UNL     1      34.748  -7.874 -22.952  0.00  0.00    +0.196 C 
BRANCH  15  16
ATOM     16  C   UNL     1      33.674  -7.040 -22.332  0.00  0.00    +0.039 C 
ATOM     17  C   UNL     1      32.832  -6.274 -23.138  0.00  0.00    +0.003 C 
ATOM     18  C   UNL     1      33.513  -7.027 -20.946  0.00  0.00    +0.003 C 
ATOM     19  C   UNL     1      31.829  -5.497 -22.559  0.00  0.00    +0.000 C 
ATOM     20  C   UNL     1      32.510  -6.250 -20.367  0.00  0.00    +0.000 C 
ATOM     21  C   UNL     1      31.669  -5.484 -21.174  0.00  0.00    +0.000 C 
ENDBRANCH  15  16
ENDBRANCH  10  15
BRANCH   1  22
ATOM     22  C   UNL     1      34.074 -15.281 -22.750  0.00  0.00    +0.109 C 
BRANCH  22  23
ATOM     23  C   UNL     1      35.431 -15.452 -22.073  0.00  0.00    +0.107 C 
BRANCH  23  26
ATOM     24  O   UNL     1      35.412 -15.863 -19.707  0.00  0.00    -0.275 OA
ATOM     25  N   UNL     1      35.335 -17.727 -21.084  0.00  0.00    -0.279 N 
ATOM     26  C   UNL     1      35.393 -16.350 -20.841  0.00  0.00    +0.227 C 
ATOM     27  C   UNL     1      35.314 -18.284 -22.435  0.00  0.00    +0.115 C 
BRANCH  25  28
ATOM     28  C   UNL     1      35.291 -18.700 -20.019  0.00  0.00    +0.075 C 
ATOM     29  C   UNL     1      36.582 -19.522 -19.991  0.00  0.00    +0.020 C 
ATOM     30  C   UNL     1      34.060 -19.600 -20.157  0.00  0.00    +0.020 C 
ATOM     31  C   UNL     1      36.542 -20.596 -18.907  0.00  0.00    +0.002 C 
ATOM     32  C   UNL     1      34.023 -20.673 -19.071  0.00  0.00    +0.002 C 
ATOM     33  C   UNL     1      35.312 -21.489 -19.044  0.00  0.00    +0.000 C 
ENDBRANCH  25  28
ENDBRANCH  23  26
ENDBRANCH  22  23
ENDBRANCH   1  22
TORSDOF 6
ENDMDL
MODEL 8
REMARK VINA RESULT:     -11.0      1.647      9.278
REMARK  Name = 16741238
REMARK  6 active torsions:
REMARK  status: ('A' for Active; 'I' for Inactive)
REMARK    1  A    between atoms: N_1  and  C_22
REMARK    2  A    between atoms: C_10  and  C_15
REMARK    3  A    between atoms: C_15  and  C_16
REMARK    4  A    between atoms: C_22  and  C_23
REMARK    5  A    between atoms: C_23  and  C_26
REMARK    6  A    between atoms: N_25  and  C_28
REMARK                            x       y       z     vdW  Elec       q    Type
REMARK                         _______ _______ _______ _____ _____    ______ ____
ROOT
ATOM      1  N   UNL     1      33.422 -22.940 -15.739  0.00  0.00    -0.249 N 
ATOM      2  N   UNL     1      31.808 -21.878 -17.171  0.00  0.00    -0.373 NA
ATOM      3  N   UNL     1      31.103 -23.196 -15.406  0.00  0.00    -0.321 N 
ATOM      4  C   UNL     1      34.582 -22.401 -16.450  0.00  0.00    +0.071 C 
ATOM      5  C   UNL     1      34.198 -21.537 -17.619  0.00  0.00    +0.045 C 
ATOM      6  C   UNL     1      32.120 -22.638 -16.150  0.00  0.00    +0.239 C 
ATOM      7  C   UNL     1      32.849 -21.314 -17.926  0.00  0.00    +0.136 C 
ATOM      8  C   UNL     1      35.198 -20.949 -18.406  0.00  0.00    +0.007 C 
ATOM      9  C   UNL     1      32.520 -20.504 -19.020  0.00  0.00    +0.032 C 
ATOM     10  C   UNL     1      34.860 -20.145 -19.494  0.00  0.00    +0.039 C 
ATOM     11  C   UNL     1      33.520 -19.922 -19.801  0.00  0.00    +0.006 C 
ATOM     12  H   UNL     1      31.315 -23.769 -14.634  0.00  0.00    +0.146 HD
ATOM     13  H   UNL     1      30.164 -23.020 -15.646  0.00  0.00    +0.146 HD
ENDROOT
BRANCH  10  15
ATOM     14  O   UNL     1      37.076 -19.933 -20.212  0.00  0.00    -0.287 OA
ATOM     15  C   UNL     1      35.903 -19.540 -20.305  0.00  0.00    +0.196 C 
BRANCH  15  16
ATOM     16  C   UNL     1      35.625 -18.438 -21.275  0.00  0.00    +0.039 C 
ATOM     17  C   UNL     1      35.781 -17.108 -20.885  0.00  0.00    +0.003 C 
ATOM     18  C   UNL     1      35.211 -18.739 -22.573  0.00  0.00    +0.003 C 
ATOM     19  C   UNL     1      35.522 -16.080 -21.791  0.00  0.00    +0.000 C 
ATOM     20  C   UNL     1      34.953 -17.711 -23.479  0.00  0.00    +0.000 C 
ATOM     21  C   UNL     1      35.108 -16.381 -23.088  0.00  0.00    +0.000 C 
ENDBRANCH  15  16
ENDBRANCH  10  15
BRANCH   1  22
ATOM     22  C   UNL     1      33.736 -23.790 -14.595  0.00  0.00    +0.109 C 
BRANCH  22  23
ATOM     23  C   UNL     1      34.795 -23.132 -13.715  0.00  0.00    +0.107 C 
BRANCH  23  26
ATOM     24  O   UNL     1      36.742 -23.685 -15.007  0.00  0.00    -0.275 OA
ATOM     25  N   UNL     1      36.793 -24.254 -12.760  0.00  0.00    -0.279 N 
ATOM     26  C   UNL     1      36.194 -23.710 -13.902  0.00  0.00    +0.227 C 
ATOM     27  C   UNL     1      36.126 -24.275 -11.460  0.00  0.00    +0.115 C 
BRANCH  25  28
ATOM     28  C   UNL     1      38.114 -24.836 -12.782  0.00  0.00    +0.075 C 
ATOM     29  C   UNL     1      39.168 -23.761 -13.059  0.00  0.00    +0.020 C 
ATOM     30  C   UNL     1      38.190 -25.970 -13.808  0.00  0.00    +0.020 C 
ATOM     31  C   UNL     1      40.571 -24.357 -13.140  0.00  0.00    +0.002 C 
ATOM     32  C   UNL     1      39.595 -26.563 -13.886  0.00  0.00    +0.002 C 
ATOM     33  C   UNL     1      40.644 -25.489 -14.160  0.00  0.00    +0.000 C 
ENDBRANCH  25  28
ENDBRANCH  23  26
ENDBRANCH  22  23
ENDBRANCH   1  22
TORSDOF 6
ENDMDL
MODEL 9
REMARK VINA RESULT:     -11.0      4.401     12.904
REMARK  Name = 16741238
REMARK  6 active torsions:
REMARK  status: ('A' for Active; 'I' for Inactive)
REMARK    1  A    between atoms: N_1  and  C_22
REMARK    2  A    between atoms: C_10  and  C_15
REMARK    3  A    between atoms: C_15  and  C_16
REMARK    4  A    between atoms: C_22  and  C_23
REMARK    5  A    between atoms: C_23  and  C_26
REMARK    6  A    between atoms: N_25  and  C_28
REMARK                            x       y       z     vdW  Elec       q    Type
REMARK                         _______ _______ _______ _____ _____    ______ ____
ROOT
ATOM      1  N   UNL     1      35.449 -17.087 -22.352  0.00  0.00    -0.249 N 
ATOM      2  N   UNL     1      34.285 -16.643 -24.410  0.00  0.00    -0.373 NA
ATOM      3  N   UNL     1      34.985 -18.791 -23.913  0.00  0.00    -0.321 N 
ATOM      4  C   UNL     1      35.401 -15.699 -21.889  0.00  0.00    +0.071 C 
ATOM      5  C   UNL     1      34.711 -14.785 -22.863  0.00  0.00    +0.045 C 
ATOM      6  C   UNL     1      34.887 -17.458 -23.578  0.00  0.00    +0.239 C 
ATOM      7  C   UNL     1      34.190 -15.286 -24.064  0.00  0.00    +0.136 C 
ATOM      8  C   UNL     1      34.588 -13.420 -22.566  0.00  0.00    +0.007 C 
ATOM      9  C   UNL     1      33.551 -14.411 -24.952  0.00  0.00    +0.032 C 
ATOM     10  C   UNL     1      33.950 -12.557 -23.458  0.00  0.00    +0.039 C 
ATOM     11  C   UNL     1      33.432 -13.053 -24.651  0.00  0.00    +0.006 C 
ATOM     12  H   UNL     1      35.432 -19.421 -23.302  0.00  0.00    +0.146 HD
ATOM     13  H   UNL     1      34.608 -19.113 -24.763  0.00  0.00    +0.146 HD
ENDROOT
BRANCH  10  15
ATOM     14  O   UNL     1      33.088 -10.770 -22.220  0.00  0.00    -0.287 OA
ATOM     15  C   UNL     1      33.828 -11.144 -23.143  0.00  0.00    +0.196 C 
BRANCH  15  16
ATOM     16  C   UNL     1      34.571 -10.088 -23.895  0.00  0.00    +0.039 C 
ATOM     17  C   UNL     1      34.775  -8.834 -23.320  0.00  0.00    +0.003 C 
ATOM     18  C   UNL     1      35.062 -10.357 -25.173  0.00  0.00    +0.003 C 
ATOM     19  C   UNL     1      35.470  -7.850 -24.022  0.00  0.00    +0.000 C 
ATOM     20  C   UNL     1      35.756  -9.373 -25.875  0.00  0.00    +0.000 C 
ATOM     21  C   UNL     1      35.960  -8.119 -25.300  0.00  0.00    +0.000 C 
ENDBRANCH  15  16
ENDBRANCH  10  15
BRANCH   1  22
ATOM     22  C   UNL     1      36.112 -18.019 -21.447  0.00  0.00    +0.109 C 
BRANCH  22  23
ATOM     23  C   UNL     1      35.089 -18.939 -20.785  0.00  0.00    +0.107 C 
BRANCH  23  26
ATOM     24  O   UNL     1      36.924 -20.041 -19.696  0.00  0.00    -0.275 OA
ATOM     25  N   UNL     1      34.795 -20.626 -18.988  0.00  0.00    -0.279 N 
ATOM     26  C   UNL     1      35.700 -19.912 -19.781  0.00  0.00    +0.227 C 
ATOM     27  C   UNL     1      33.348 -20.459 -19.105  0.00  0.00    +0.115 C 
BRANCH  25  28
ATOM     28  C   UNL     1      35.224 -21.581 -17.994  0.00  0.00    +0.075 C 
ATOM     29  C   UNL     1      34.032 -22.058 -17.160  0.00  0.00    +0.020 C 
ATOM     30  C   UNL     1      36.321 -20.985 -17.107  0.00  0.00    +0.020 C 
ATOM     31  C   UNL     1      34.464 -23.030 -16.065  0.00  0.00    +0.002 C 
ATOM     32  C   UNL     1      36.750 -21.959 -16.013  0.00  0.00    +0.002 C 
ATOM     33  C   UNL     1      35.560 -22.435 -15.185  0.00  0.00    +0.000 C 
ENDBRANCH  25  28
ENDBRANCH  23  26
ENDBRANCH  22  23
ENDBRANCH   1  22
TORSDOF 6
ENDMDL
