MODEL 1
REMARK VINA RESULT:     -12.0      0.000      0.000
REMARK  Name = 46937052
REMARK  7 active torsions:
REMARK  status: ('A' for Active; 'I' for Inactive)
REMARK    1  A    between atoms: O_1  and  C_3
REMARK    2  A    between atoms: O_1  and  C_17
REMARK    3  A    between atoms: C_4  and  C_11
REMARK    4  A    between atoms: C_17  and  C_18
REMARK    5  A    between atoms: C_18  and  N_19
REMARK    6  A    between atoms: C_18  and  C_23
REMARK    7  A    between atoms: C_23  and  C_25
REMARK                            x       y       z     vdW  Elec       q    Type
REMARK                         _______ _______ _______ _____ _____    ______ ____
ROOT
ATOM      1  O   UNL     1      32.995 -21.835 -18.145  0.00  0.00    -0.476 OA
ENDROOT
BRANCH   1   3
ATOM      2  N   UNL     1      31.968 -23.126 -14.879  0.00  0.00    -0.239 NA
ATOM      3  C   UNL     1      33.086 -22.341 -16.875  0.00  0.00    +0.158 C 
ATOM      4  C   UNL     1      34.383 -23.100 -14.997  0.00  0.00    +0.039 C 
ATOM      5  C   UNL     1      34.322 -22.585 -16.287  0.00  0.00    +0.042 C 
ATOM      6  C   UNL     1      31.949 -22.626 -16.136  0.00  0.00    +0.136 C 
ATOM      7  C   UNL     1      33.188 -23.350 -14.341  0.00  0.00    +0.101 C 
BRANCH   4  11
ATOM      8  N   UNL     1      36.473 -24.243 -14.874  0.00  0.00    -0.264 NA
ATOM      9  N   UNL     1      39.138 -23.873 -12.324  0.00  0.00    -0.150 NA
ATOM     10  N   UNL     1      38.968 -22.940 -11.211  0.00  0.00    -0.147 NA
ATOM     11  C   UNL     1      35.690 -23.371 -14.339  0.00  0.00    +0.078 C 
ATOM     12  C   UNL     1      37.125 -22.849 -12.522  0.00  0.00    +0.040 C 
ATOM     13  C   UNL     1      38.063 -23.801 -13.063  0.00  0.00    +0.107 C 
ATOM     14  C   UNL     1      37.778 -24.573 -14.298  0.00  0.00    +0.173 C 
ATOM     15  C   UNL     1      35.957 -22.600 -13.092  0.00  0.00    +0.022 C 
ATOM     16  C   UNL     1      37.806 -22.367 -11.343  0.00  0.00    +0.123 C 
ENDBRANCH   4  11
ENDBRANCH   1   3
BRANCH   1  17
ATOM     17  C   UNL     1      34.218 -21.542 -18.807  0.00  0.00    +0.184 C 
BRANCH  17  18
ATOM     18  C   UNL     1      34.011 -20.438 -19.852  0.00  0.00    -0.017 C 
BRANCH  18  19
ATOM     19  N   UNL     1      32.743 -19.764 -19.563  0.00  0.00    +0.384 N 
ATOM     20  H   UNL     1      32.281 -20.229 -18.781  0.00  0.00    -0.089 HD
ATOM     21  H   UNL     1      32.141 -19.804 -20.386  0.00  0.00    -0.089 HD
ATOM     22  H   UNL     1      32.923 -18.790 -19.320  0.00  0.00    -0.089 HD
ENDBRANCH  18  19
BRANCH  18  23
ATOM     23  C   UNL     1      35.151 -19.389 -19.861  0.00  0.00    +0.010 C 
BRANCH  23  25
ATOM     24  N   UNL     1      35.054 -17.869 -23.274  0.00  0.00    -0.244 NA
ATOM     25  C   UNL     1      35.110 -18.444 -20.991  0.00  0.00    -0.004 C 
ATOM     26  C   UNL     1      35.078 -17.110 -21.096  0.00  0.00    +0.011 C 
ATOM     27  C   UNL     1      35.044 -16.743 -22.497  0.00  0.00    +0.080 C 
ATOM     28  C   UNL     1      35.092 -18.837 -22.409  0.00  0.00    +0.094 C 
ATOM     29  C   UNL     1      35.074 -16.119 -20.051  0.00  0.00    -0.020 C 
ATOM     30  C   UNL     1      35.008 -15.458 -22.869  0.00  0.00    +0.015 C 
ATOM     31  C   UNL     1      35.003 -14.344 -21.840  0.00  0.00    -0.020 C 
ATOM     32  C   UNL     1      35.039 -14.820 -20.399  0.00  0.00    +0.052 C 
ENDBRANCH  23  25
ENDBRANCH  18  23
ENDBRANCH  17  18
ENDBRANCH   1  17
TORSDOF 7
ENDMDL
MODEL 2
REMARK VINA RESULT:     -11.8      0.910      1.665
REMARK  Name = 46937052
REMARK  7 active torsions:
REMARK  status: ('A' for Active; 'I' for Inactive)
REMARK    1  A    between atoms: O_1  and  C_3
REMARK    2  A    between atoms: O_1  and  C_17
REMARK    3  A    between atoms: C_4  and  C_11
REMARK    4  A    between atoms: C_17  and  C_18
REMARK    5  A    between atoms: C_18  and  N_19
REMARK    6  A    between atoms: C_18  and  C_23
REMARK    7  A    between atoms: C_23  and  C_25
REMARK                            x       y       z     vdW  Elec       q    Type
REMARK                         _______ _______ _______ _____ _____    ______ ____
ROOT
ATOM      1  O   UNL     1      33.075 -21.705 -18.319  0.00  0.00    -0.476 OA
ENDROOT
BRANCH   1   3
ATOM      2  N   UNL     1      31.951 -22.912 -15.053  0.00  0.00    -0.239 NA
ATOM      3  C   UNL     1      33.127 -22.201 -17.042  0.00  0.00    +0.158 C 
ATOM      4  C   UNL     1      34.366 -22.999 -15.140  0.00  0.00    +0.039 C 
ATOM      5  C   UNL     1      34.344 -22.495 -16.436  0.00  0.00    +0.042 C 
ATOM      6  C   UNL     1      31.970 -22.425 -16.315  0.00  0.00    +0.136 C 
ATOM      7  C   UNL     1      33.152 -23.187 -14.498  0.00  0.00    +0.101 C 
BRANCH   4  11
ATOM      8  N   UNL     1      36.414 -24.212 -14.998  0.00  0.00    -0.264 NA
ATOM      9  N   UNL     1      39.042 -23.968 -12.395  0.00  0.00    -0.150 NA
ATOM     10  N   UNL     1      38.882 -23.047 -11.270  0.00  0.00    -0.147 NA
ATOM     11  C   UNL     1      35.650 -23.323 -14.464  0.00  0.00    +0.078 C 
ATOM     12  C   UNL     1      37.067 -22.876 -12.613  0.00  0.00    +0.040 C 
ATOM     13  C   UNL     1      37.984 -23.850 -13.152  0.00  0.00    +0.107 C 
ATOM     14  C   UNL     1      37.697 -24.593 -14.404  0.00  0.00    +0.173 C 
ATOM     15  C   UNL     1      35.919 -22.580 -13.200  0.00  0.00    +0.022 C 
ATOM     16  C   UNL     1      37.742 -22.435 -11.415  0.00  0.00    +0.123 C 
ENDBRANCH   4  11
ENDBRANCH   1   3
BRANCH   1  17
ATOM     17  C   UNL     1      34.314 -21.561 -19.001  0.00  0.00    +0.184 C 
BRANCH  17  18
ATOM     18  C   UNL     1      34.223 -20.441 -20.046  0.00  0.00    -0.017 C 
BRANCH  18  19
ATOM     19  N   UNL     1      33.161 -19.518 -19.638  0.00  0.00    +0.384 N 
ATOM     20  H   UNL     1      32.407 -20.042 -19.193  0.00  0.00    -0.089 HD
ATOM     21  H   UNL     1      32.799 -19.032 -20.459  0.00  0.00    -0.089 HD
ATOM     22  H   UNL     1      33.538 -18.837 -18.978  0.00  0.00    -0.089 HD
ENDBRANCH  18  19
BRANCH  18  23
ATOM     23  C   UNL     1      35.546 -19.652 -20.207  0.00  0.00    +0.010 C 
BRANCH  23  25
ATOM     24  N   UNL     1      35.495 -16.010 -21.049  0.00  0.00    -0.244 NA
ATOM     25  C   UNL     1      35.412 -18.360 -20.903  0.00  0.00    -0.004 C 
ATOM     26  C   UNL     1      35.070 -17.995 -22.144  0.00  0.00    +0.011 C 
ATOM     27  C   UNL     1      35.117 -16.551 -22.247  0.00  0.00    +0.080 C 
ATOM     28  C   UNL     1      35.662 -17.048 -20.285  0.00  0.00    +0.094 C 
ATOM     29  C   UNL     1      34.701 -18.825 -23.263  0.00  0.00    -0.020 C 
ATOM     30  C   UNL     1      34.815 -15.934 -23.396  0.00  0.00    +0.015 C 
ATOM     31  C   UNL     1      34.414 -16.724 -24.627  0.00  0.00    -0.020 C 
ATOM     32  C   UNL     1      34.393 -18.229 -24.429  0.00  0.00    +0.052 C 
ENDBRANCH  23  25
ENDBRANCH  18  23
ENDBRANCH  17  18
ENDBRANCH   1  17
TORSDOF 7
ENDMDL
MODEL 3
REMARK VINA RESULT:     -11.7      1.857      9.894
REMARK  Name = 46937052
REMARK  7 active torsions:
REMARK  status: ('A' for Active; 'I' for Inactive)
REMARK    1  A    between atoms: O_1  and  C_3
REMARK    2  A    between atoms: O_1  and  C_17
REMARK    3  A    between atoms: C_4  and  C_11
REMARK    4  A    between atoms: C_17  and  C_18
REMARK    5  A    between atoms: C_18  and  N_19
REMARK    6  A    between atoms: C_18  and  C_23
REMARK    7  A    between atoms: C_23  and  C_25
REMARK                            x       y       z     vdW  Elec       q    Type
REMARK                         _______ _______ _______ _____ _____    ______ ____
ROOT
ATOM      1  O   UNL     1      33.442 -21.586 -18.118  0.00  0.00    -0.476 OA
ENDROOT
BRANCH   1   3
ATOM      2  N   UNL     1      36.910 -20.646 -18.804  0.00  0.00    -0.239 NA
ATOM      3  C   UNL     1      34.514 -20.944 -18.681  0.00  0.00    +0.158 C 
ATOM      4  C   UNL     1      35.443 -19.340 -20.214  0.00  0.00    +0.039 C 
ATOM      5  C   UNL     1      34.336 -19.974 -19.660  0.00  0.00    +0.042 C 
ATOM      6  C   UNL     1      35.810 -21.241 -18.291  0.00  0.00    +0.136 C 
ATOM      7  C   UNL     1      36.697 -19.709 -19.755  0.00  0.00    +0.101 C 
BRANCH   4  11
ATOM      8  N   UNL     1      35.682 -17.101 -20.999  0.00  0.00    -0.264 NA
ATOM      9  N   UNL     1      34.726 -15.720 -24.304  0.00  0.00    -0.150 NA
ATOM     10  N   UNL     1      34.106 -16.581 -25.311  0.00  0.00    -0.147 NA
ATOM     11  C   UNL     1      35.286 -18.298 -21.264  0.00  0.00    +0.078 C 
ATOM     12  C   UNL     1      34.531 -17.816 -23.461  0.00  0.00    +0.040 C 
ATOM     13  C   UNL     1      34.958 -16.455 -23.249  0.00  0.00    +0.107 C 
ATOM     14  C   UNL     1      35.569 -16.012 -21.972  0.00  0.00    +0.173 C 
ATOM     15  C   UNL     1      34.658 -18.753 -22.536  0.00  0.00    +0.022 C 
ATOM     16  C   UNL     1      34.002 -17.776 -24.805  0.00  0.00    +0.123 C 
ENDBRANCH   4  11
ENDBRANCH   1   3
BRANCH   1  17
ATOM     17  C   UNL     1      33.716 -22.777 -17.392  0.00  0.00    +0.184 C 
BRANCH  17  18
ATOM     18  C   UNL     1      33.590 -22.527 -15.884  0.00  0.00    -0.017 C 
BRANCH  18  19
ATOM     19  N   UNL     1      32.166 -22.480 -15.544  0.00  0.00    +0.384 N 
ATOM     20  H   UNL     1      31.870 -21.507 -15.455  0.00  0.00    -0.089 HD
ATOM     21  H   UNL     1      32.011 -22.964 -14.660  0.00  0.00    -0.089 HD
ATOM     22  H   UNL     1      31.625 -22.933 -16.280  0.00  0.00    -0.089 HD
ENDBRANCH  18  19
BRANCH  18  23
ATOM     23  C   UNL     1      34.279 -23.618 -15.028  0.00  0.00    +0.010 C 
BRANCH  23  25
ATOM     24  N   UNL     1      37.674 -22.098 -14.649  0.00  0.00    -0.244 NA
ATOM     25  C   UNL     1      35.721 -23.406 -14.803  0.00  0.00    -0.004 C 
ATOM     26  C   UNL     1      36.749 -24.207 -14.502  0.00  0.00    +0.011 C 
ATOM     27  C   UNL     1      37.958 -23.414 -14.404  0.00  0.00    +0.080 C 
ATOM     28  C   UNL     1      36.395 -22.100 -14.876  0.00  0.00    +0.094 C 
ATOM     29  C   UNL     1      36.756 -25.632 -14.289  0.00  0.00    -0.020 C 
ATOM     30  C   UNL     1      39.132 -23.986 -14.111  0.00  0.00    +0.015 C 
ATOM     31  C   UNL     1      39.239 -25.479 -13.871  0.00  0.00    -0.020 C 
ATOM     32  C   UNL     1      37.924 -26.230 -13.993  0.00  0.00    +0.052 C 
ENDBRANCH  23  25
ENDBRANCH  18  23
ENDBRANCH  17  18
ENDBRANCH   1  17
TORSDOF 7
ENDMDL
MODEL 4
REMARK VINA RESULT:     -11.7      1.522      1.872
REMARK  Name = 46937052
REMARK  7 active torsions:
REMARK  status: ('A' for Active; 'I' for Inactive)
REMARK    1  A    between atoms: O_1  and  C_3
REMARK    2  A    between atoms: O_1  and  C_17
REMARK    3  A    between atoms: C_4  and  C_11
REMARK    4  A    between atoms: C_17  and  C_18
REMARK    5  A    between atoms: C_18  and  N_19
REMARK    6  A    between atoms: C_18  and  C_23
REMARK    7  A    between atoms: C_23  and  C_25
REMARK                            x       y       z     vdW  Elec       q    Type
REMARK                         _______ _______ _______ _____ _____    ______ ____
ROOT
ATOM      1  O   UNL     1      36.098 -20.347 -18.435  0.00  0.00    -0.476 OA
ENDROOT
BRANCH   1   3
ATOM      2  N   UNL     1      33.804 -22.807 -16.995  0.00  0.00    -0.239 NA
ATOM      3  C   UNL     1      35.585 -21.275 -17.566  0.00  0.00    +0.158 C 
ATOM      4  C   UNL     1      35.727 -22.577 -15.549  0.00  0.00    +0.039 C 
ATOM      5  C   UNL     1      36.272 -21.632 -16.411  0.00  0.00    +0.042 C 
ATOM      6  C   UNL     1      34.366 -21.886 -17.810  0.00  0.00    +0.136 C 
ATOM      7  C   UNL     1      34.501 -23.130 -15.883  0.00  0.00    +0.101 C 
BRANCH   4  11
ATOM      8  N   UNL     1      37.640 -23.431 -14.407  0.00  0.00    -0.264 NA
ATOM      9  N   UNL     1      38.074 -23.982 -10.767  0.00  0.00    -0.150 NA
ATOM     10  N   UNL     1      36.984 -23.678  -9.840  0.00  0.00    -0.147 NA
ATOM     11  C   UNL     1      36.437 -22.981 -14.305  0.00  0.00    +0.078 C 
ATOM     12  C   UNL     1      36.305 -23.193 -11.945  0.00  0.00    +0.040 C 
ATOM     13  C   UNL     1      37.656 -23.695 -11.971  0.00  0.00    +0.107 C 
ATOM     14  C   UNL     1      38.415 -23.849 -13.237  0.00  0.00    +0.173 C 
ATOM     15  C   UNL     1      35.659 -22.835 -13.042  0.00  0.00    +0.022 C 
ATOM     16  C   UNL     1      35.980 -23.231 -10.538  0.00  0.00    +0.123 C 
ENDBRANCH   4  11
ENDBRANCH   1   3
BRANCH   1  17
ATOM     17  C   UNL     1      36.051 -20.669 -19.818  0.00  0.00    +0.184 C 
BRANCH  17  18
ATOM     18  C   UNL     1      35.386 -19.537 -20.610  0.00  0.00    -0.017 C 
BRANCH  18  19
ATOM     19  N   UNL     1      33.974 -19.473 -20.223  0.00  0.00    +0.384 N 
ATOM     20  H   UNL     1      33.754 -20.257 -19.609  0.00  0.00    -0.089 HD
ATOM     21  H   UNL     1      33.390 -19.520 -21.058  0.00  0.00    -0.089 HD
ATOM     22  H   UNL     1      33.796 -18.596 -19.732  0.00  0.00    -0.089 HD
ENDBRANCH  18  19
BRANCH  18  23
ATOM     23  C   UNL     1      36.042 -18.156 -20.363  0.00  0.00    +0.010 C 
BRANCH  23  25
ATOM     24  N   UNL     1      35.332 -16.258 -23.505  0.00  0.00    -0.244 NA
ATOM     25  C   UNL     1      35.669 -17.113 -21.336  0.00  0.00    -0.004 C 
ATOM     26  C   UNL     1      35.243 -15.848 -21.237  0.00  0.00    +0.011 C 
ATOM     27  C   UNL     1      35.032 -15.311 -22.565  0.00  0.00    +0.080 C 
ATOM     28  C   UNL     1      35.695 -17.286 -22.797  0.00  0.00    +0.094 C 
ATOM     29  C   UNL     1      35.003 -15.064 -20.052  0.00  0.00    -0.020 C 
ATOM     30  C   UNL     1      34.604 -14.054 -22.737  0.00  0.00    +0.015 C 
ATOM     31  C   UNL     1      34.324 -13.152 -21.551  0.00  0.00    -0.020 C 
ATOM     32  C   UNL     1      34.571 -13.798 -20.199  0.00  0.00    +0.052 C 
ENDBRANCH  23  25
ENDBRANCH  18  23
ENDBRANCH  17  18
ENDBRANCH   1  17
TORSDOF 7
ENDMDL
MODEL 5
REMARK VINA RESULT:     -11.5      1.838      2.680
REMARK  Name = 46937052
REMARK  7 active torsions:
REMARK  status: ('A' for Active; 'I' for Inactive)
REMARK    1  A    between atoms: O_1  and  C_3
REMARK    2  A    between atoms: O_1  and  C_17
REMARK    3  A    between atoms: C_4  and  C_11
REMARK    4  A    between atoms: C_17  and  C_18
REMARK    5  A    between atoms: C_18  and  N_19
REMARK    6  A    between atoms: C_18  and  C_23
REMARK    7  A    between atoms: C_23  and  C_25
REMARK                            x       y       z     vdW  Elec       q    Type
REMARK                         _______ _______ _______ _____ _____    ______ ____
ROOT
ATOM      1  O   UNL     1      35.355 -20.136 -19.906  0.00  0.00    -0.476 OA
ENDROOT
BRANCH   1   3
ATOM      2  N   UNL     1      32.773 -21.851 -17.962  0.00  0.00    -0.239 NA
ATOM      3  C   UNL     1      34.765 -20.843 -18.891  0.00  0.00    +0.158 C 
ATOM      4  C   UNL     1      34.875 -21.984 -16.776  0.00  0.00    +0.039 C 
ATOM      5  C   UNL     1      35.501 -21.268 -17.790  0.00  0.00    +0.042 C 
ATOM      6  C   UNL     1      33.416 -21.158 -18.929  0.00  0.00    +0.136 C 
ATOM      7  C   UNL     1      33.521 -22.247 -16.909  0.00  0.00    +0.101 C 
BRANCH   4  11
ATOM      8  N   UNL     1      36.917 -22.530 -15.671  0.00  0.00    -0.264 NA
ATOM      9  N   UNL     1      37.387 -23.747 -12.201  0.00  0.00    -0.150 NA
ATOM     10  N   UNL     1      36.230 -23.961 -11.332  0.00  0.00    -0.147 NA
ATOM     11  C   UNL     1      35.634 -22.452 -15.585  0.00  0.00    +0.078 C 
ATOM     12  C   UNL     1      35.501 -23.216 -13.342  0.00  0.00    +0.040 C 
ATOM     13  C   UNL     1      36.940 -23.320 -13.351  0.00  0.00    +0.107 C 
ATOM     14  C   UNL     1      37.746 -22.977 -14.549  0.00  0.00    +0.173 C 
ATOM     15  C   UNL     1      34.812 -22.807 -14.394  0.00  0.00    +0.022 C 
ATOM     16  C   UNL     1      35.161 -23.653 -12.008  0.00  0.00    +0.123 C 
ENDBRANCH   4  11
ENDBRANCH   1   3
BRANCH   1  17
ATOM     17  C   UNL     1      34.500 -19.334 -20.709  0.00  0.00    +0.184 C 
BRANCH  17  18
ATOM     18  C   UNL     1      35.148 -17.971 -20.986  0.00  0.00    -0.017 C 
BRANCH  18  19
ATOM     19  N   UNL     1      36.215 -17.762 -20.004  0.00  0.00    +0.384 N 
ATOM     20  H   UNL     1      37.087 -17.552 -20.489  0.00  0.00    -0.089 HD
ATOM     21  H   UNL     1      36.332 -18.606 -19.443  0.00  0.00    -0.089 HD
ATOM     22  H   UNL     1      35.968 -16.981 -19.395  0.00  0.00    -0.089 HD
ENDBRANCH  18  19
BRANCH  18  23
ATOM     23  C   UNL     1      35.743 -17.860 -22.411  0.00  0.00    +0.010 C 
BRANCH  23  25
ATOM     24  N   UNL     1      33.752 -16.456 -25.246  0.00  0.00    -0.244 NA
ATOM     25  C   UNL     1      35.007 -16.961 -23.318  0.00  0.00    -0.004 C 
ATOM     26  C   UNL     1      34.720 -15.654 -23.313  0.00  0.00    +0.011 C 
ATOM     27  C   UNL     1      33.948 -15.330 -24.494  0.00  0.00    +0.080 C 
ATOM     28  C   UNL     1      34.359 -17.384 -24.570  0.00  0.00    +0.094 C 
ATOM     29  C   UNL     1      35.074 -14.653 -22.339  0.00  0.00    -0.020 C 
ATOM     30  C   UNL     1      33.534 -14.077 -24.723  0.00  0.00    +0.015 C 
ATOM     31  C   UNL     1      33.859 -12.956 -23.755  0.00  0.00    -0.020 C 
ATOM     32  C   UNL     1      34.670 -13.386 -22.545  0.00  0.00    +0.052 C 
ENDBRANCH  23  25
ENDBRANCH  18  23
ENDBRANCH  17  18
ENDBRANCH   1  17
TORSDOF 7
ENDMDL
MODEL 6
REMARK VINA RESULT:     -11.5      3.332      4.671
REMARK  Name = 46937052
REMARK  7 active torsions:
REMARK  status: ('A' for Active; 'I' for Inactive)
REMARK    1  A    between atoms: O_1  and  C_3
REMARK    2  A    between atoms: O_1  and  C_17
REMARK    3  A    between atoms: C_4  and  C_11
REMARK    4  A    between atoms: C_17  and  C_18
REMARK    5  A    between atoms: C_18  and  N_19
REMARK    6  A    between atoms: C_18  and  C_23
REMARK    7  A    between atoms: C_23  and  C_25
REMARK                            x       y       z     vdW  Elec       q    Type
REMARK                         _______ _______ _______ _____ _____    ______ ____
ROOT
ATOM      1  O   UNL     1      33.810 -19.594 -20.417  0.00  0.00    -0.476 OA
ENDROOT
BRANCH   1   3
ATOM      2  N   UNL     1      35.908 -21.579 -18.171  0.00  0.00    -0.239 NA
ATOM      3  C   UNL     1      34.168 -20.408 -19.374  0.00  0.00    +0.158 C 
ATOM      4  C   UNL     1      33.610 -21.710 -17.430  0.00  0.00    +0.039 C 
ATOM      5  C   UNL     1      33.218 -20.887 -18.480  0.00  0.00    +0.042 C 
ATOM      6  C   UNL     1      35.488 -20.780 -19.178  0.00  0.00    +0.136 C 
ATOM      7  C   UNL     1      34.956 -22.024 -17.321  0.00  0.00    +0.101 C 
BRANCH   4  11
ATOM      8  N   UNL     1      31.366 -22.076 -16.711  0.00  0.00    -0.264 NA
ATOM      9  N   UNL     1      30.198 -23.783 -13.635  0.00  0.00    -0.150 NA
ATOM     10  N   UNL     1      31.165 -24.320 -12.677  0.00  0.00    -0.147 NA
ATOM     11  C   UNL     1      32.618 -22.240 -16.456  0.00  0.00    +0.078 C 
ATOM     12  C   UNL     1      32.294 -23.375 -14.398  0.00  0.00    +0.040 C 
ATOM     13  C   UNL     1      30.874 -23.244 -14.614  0.00  0.00    +0.107 C 
ATOM     14  C   UNL     1      30.319 -22.566 -15.812  0.00  0.00    +0.173 C 
ATOM     15  C   UNL     1      33.188 -22.905 -15.251  0.00  0.00    +0.022 C 
ATOM     16  C   UNL     1      32.359 -24.072 -13.134  0.00  0.00    +0.123 C 
ENDBRANCH   4  11
ENDBRANCH   1   3
BRANCH   1  17
ATOM     17  C   UNL     1      34.833 -19.250 -21.342  0.00  0.00    +0.184 C 
BRANCH  17  18
ATOM     18  C   UNL     1      35.029 -17.730 -21.385  0.00  0.00    -0.017 C 
BRANCH  18  19
ATOM     19  N   UNL     1      35.764 -17.328 -20.183  0.00  0.00    +0.384 N 
ATOM     20  H   UNL     1      36.655 -17.824 -20.147  0.00  0.00    -0.089 HD
ATOM     21  H   UNL     1      35.214 -17.556 -19.355  0.00  0.00    -0.089 HD
ATOM     22  H   UNL     1      35.937 -16.323 -20.210  0.00  0.00    -0.089 HD
ENDBRANCH  18  19
BRANCH  18  23
ATOM     23  C   UNL     1      35.805 -17.252 -22.637  0.00  0.00    +0.010 C 
BRANCH  23  25
ATOM     24  N   UNL     1      33.951 -15.574 -25.415  0.00  0.00    -0.244 NA
ATOM     25  C   UNL     1      35.084 -16.276 -23.473  0.00  0.00    -0.004 C 
ATOM     26  C   UNL     1      34.714 -14.999 -23.316  0.00  0.00    +0.011 C 
ATOM     27  C   UNL     1      34.015 -14.555 -24.504  0.00  0.00    +0.080 C 
ATOM     28  C   UNL     1      34.563 -16.554 -24.821  0.00  0.00    +0.094 C 
ATOM     29  C   UNL     1      34.927 -14.126 -22.189  0.00  0.00    -0.020 C 
ATOM     30  C   UNL     1      33.541 -13.307 -24.596  0.00  0.00    +0.015 C 
ATOM     31  C   UNL     1      33.717 -12.316 -23.462  0.00  0.00    -0.020 C 
ATOM     32  C   UNL     1      34.459 -12.867 -22.257  0.00  0.00    +0.052 C 
ENDBRANCH  23  25
ENDBRANCH  18  23
ENDBRANCH  17  18
ENDBRANCH   1  17
TORSDOF 7
ENDMDL
MODEL 7
REMARK VINA RESULT:     -11.4      2.002      2.819
REMARK  Name = 46937052
REMARK  7 active torsions:
REMARK  status: ('A' for Active; 'I' for Inactive)
REMARK    1  A    between atoms: O_1  and  C_3
REMARK    2  A    between atoms: O_1  and  C_17
REMARK    3  A    between atoms: C_4  and  C_11
REMARK    4  A    between atoms: C_17  and  C_18
REMARK    5  A    between atoms: C_18  and  N_19
REMARK    6  A    between atoms: C_18  and  C_23
REMARK    7  A    between atoms: C_23  and  C_25
REMARK                            x       y       z     vdW  Elec       q    Type
REMARK                         _______ _______ _______ _____ _____    ______ ____
ROOT
ATOM      1  O   UNL     1      36.630 -20.265 -18.649  0.00  0.00    -0.476 OA
ENDROOT
BRANCH   1   3
ATOM      2  N   UNL     1      34.022 -22.384 -17.201  0.00  0.00    -0.239 NA
ATOM      3  C   UNL     1      35.992 -21.104 -17.772  0.00  0.00    +0.158 C 
ATOM      4  C   UNL     1      35.944 -22.380 -15.734  0.00  0.00    +0.039 C 
ATOM      5  C   UNL     1      36.615 -21.528 -16.604  0.00  0.00    +0.042 C 
ATOM      6  C   UNL     1      34.707 -21.556 -18.022  0.00  0.00    +0.136 C 
ATOM      7  C   UNL     1      34.660 -22.775 -16.075  0.00  0.00    +0.101 C 
BRANCH   4  11
ATOM      8  N   UNL     1      37.791 -23.292 -14.532  0.00  0.00    -0.264 NA
ATOM      9  N   UNL     1      38.017 -24.047 -10.910  0.00  0.00    -0.150 NA
ATOM     10  N   UNL     1      36.874 -23.797 -10.032  0.00  0.00    -0.147 NA
ATOM     11  C   UNL     1      36.582 -22.852 -14.475  0.00  0.00    +0.078 C 
ATOM     12  C   UNL     1      36.315 -23.196 -12.142  0.00  0.00    +0.040 C 
ATOM     13  C   UNL     1      37.668 -23.693 -12.118  0.00  0.00    +0.107 C 
ATOM     14  C   UNL     1      38.500 -23.774 -13.344  0.00  0.00    +0.173 C 
ATOM     15  C   UNL     1      35.732 -22.779 -13.254  0.00  0.00    +0.022 C 
ATOM     16  C   UNL     1      35.910 -23.313 -10.761  0.00  0.00    +0.123 C 
ENDBRANCH   4  11
ENDBRANCH   1   3
BRANCH   1  17
ATOM     17  C   UNL     1      35.936 -19.941 -19.846  0.00  0.00    +0.184 C 
BRANCH  17  18
ATOM     18  C   UNL     1      36.359 -18.557 -20.353  0.00  0.00    -0.017 C 
BRANCH  18  19
ATOM     19  N   UNL     1      37.819 -18.539 -20.476  0.00  0.00    +0.384 N 
ATOM     20  H   UNL     1      38.221 -18.049 -19.677  0.00  0.00    -0.089 HD
ATOM     21  H   UNL     1      38.082 -18.059 -21.337  0.00  0.00    -0.089 HD
ATOM     22  H   UNL     1      38.169 -19.497 -20.499  0.00  0.00    -0.089 HD
ENDBRANCH  18  19
BRANCH  18  23
ATOM     23  C   UNL     1      35.731 -18.192 -21.721  0.00  0.00    +0.010 C 
BRANCH  23  25
ATOM     24  N   UNL     1      34.941 -14.599 -21.059  0.00  0.00    -0.244 NA
ATOM     25  C   UNL     1      35.323 -16.782 -21.856  0.00  0.00    -0.004 C 
ATOM     26  C   UNL     1      34.875 -16.029 -22.868  0.00  0.00    +0.011 C 
ATOM     27  C   UNL     1      34.636 -14.683 -22.391  0.00  0.00    +0.080 C 
ATOM     28  C   UNL     1      35.333 -15.801 -20.759  0.00  0.00    +0.094 C 
ATOM     29  C   UNL     1      34.638 -16.403 -24.239  0.00  0.00    -0.020 C 
ATOM     30  C   UNL     1      34.181 -13.732 -23.216  0.00  0.00    +0.015 C 
ATOM     31  C   UNL     1      33.901 -14.031 -24.676  0.00  0.00    -0.020 C 
ATOM     32  C   UNL     1      34.181 -15.465 -25.089  0.00  0.00    +0.052 C 
ENDBRANCH  23  25
ENDBRANCH  18  23
ENDBRANCH  17  18
ENDBRANCH   1  17
TORSDOF 7
ENDMDL
MODEL 8
REMARK VINA RESULT:     -11.3      5.013      8.776
REMARK  Name = 46937052
REMARK  7 active torsions:
REMARK  status: ('A' for Active; 'I' for Inactive)
REMARK    1  A    between atoms: O_1  and  C_3
REMARK    2  A    between atoms: O_1  and  C_17
REMARK    3  A    between atoms: C_4  and  C_11
REMARK    4  A    between atoms: C_17  and  C_18
REMARK    5  A    between atoms: C_18  and  N_19
REMARK    6  A    between atoms: C_18  and  C_23
REMARK    7  A    between atoms: C_23  and  C_25
REMARK                            x       y       z     vdW  Elec       q    Type
REMARK                         _______ _______ _______ _____ _____    ______ ____
ROOT
ATOM      1  O   UNL     1      34.744 -13.647 -20.828  0.00  0.00    -0.476 OA
ENDROOT
BRANCH   1   3
ATOM      2  N   UNL     1      35.350 -16.205 -23.373  0.00  0.00    -0.239 NA
ATOM      3  C   UNL     1      34.987 -14.875 -21.387  0.00  0.00    +0.158 C 
ATOM      4  C   UNL     1      35.363 -17.243 -21.189  0.00  0.00    +0.039 C 
ATOM      5  C   UNL     1      35.116 -16.010 -20.595  0.00  0.00    +0.042 C 
ATOM      6  C   UNL     1      35.111 -15.025 -22.759  0.00  0.00    +0.136 C 
ATOM      7  C   UNL     1      35.470 -17.286 -22.571  0.00  0.00    +0.101 C 
BRANCH   4  11
ATOM      8  N   UNL     1      36.678 -18.787 -19.934  0.00  0.00    -0.264 NA
ATOM      9  N   UNL     1      35.556 -21.860 -18.190  0.00  0.00    -0.150 NA
ATOM     10  N   UNL     1      34.150 -22.260 -18.234  0.00  0.00    -0.147 NA
ATOM     11  C   UNL     1      35.506 -18.476 -20.370  0.00  0.00    +0.078 C 
ATOM     12  C   UNL     1      34.396 -20.342 -19.412  0.00  0.00    +0.040 C 
ATOM     13  C   UNL     1      35.670 -20.754 -18.877  0.00  0.00    +0.107 C 
ATOM     14  C   UNL     1      36.913 -19.981 -19.119  0.00  0.00    +0.173 C 
ATOM     15  C   UNL     1      34.253 -19.251 -20.147  0.00  0.00    +0.022 C 
ATOM     16  C   UNL     1      33.505 -21.377 -18.942  0.00  0.00    +0.123 C 
ENDBRANCH   4  11
ENDBRANCH   1   3
BRANCH   1  17
ATOM     17  C   UNL     1      33.462 -13.450 -20.248  0.00  0.00    +0.184 C 
BRANCH  17  18
ATOM     18  C   UNL     1      32.787 -12.209 -20.847  0.00  0.00    -0.017 C 
BRANCH  18  19
ATOM     19  N   UNL     1      32.045 -12.621 -22.041  0.00  0.00    +0.384 N 
ATOM     20  H   UNL     1      32.641 -13.207 -22.626  0.00  0.00    -0.089 HD
ATOM     21  H   UNL     1      31.760 -11.795 -22.566  0.00  0.00    -0.089 HD
ATOM     22  H   UNL     1      31.219 -13.150 -21.762  0.00  0.00    -0.089 HD
ENDBRANCH  18  19
BRANCH  18  23
ATOM     23  C   UNL     1      31.816 -11.511 -19.863  0.00  0.00    +0.010 C 
BRANCH  23  25
ATOM     24  N   UNL     1      32.563  -8.114 -18.492  0.00  0.00    -0.244 NA
ATOM     25  C   UNL     1      32.033 -10.061 -19.707  0.00  0.00    -0.004 C 
ATOM     26  C   UNL     1      31.970  -9.010 -20.533  0.00  0.00    +0.011 C 
ATOM     27  C   UNL     1      32.294  -7.805 -19.798  0.00  0.00    +0.080 C 
ATOM     28  C   UNL     1      32.413  -9.404 -18.447  0.00  0.00    +0.094 C 
ATOM     29  C   UNL     1      31.644  -8.979 -21.937  0.00  0.00    -0.020 C 
ATOM     30  C   UNL     1      32.300  -6.612 -20.404  0.00  0.00    +0.015 C 
ATOM     31  C   UNL     1      31.969  -6.479 -21.877  0.00  0.00    -0.020 C 
ATOM     32  C   UNL     1      31.644  -7.792 -22.568  0.00  0.00    +0.052 C 
ENDBRANCH  23  25
ENDBRANCH  18  23
ENDBRANCH  17  18
ENDBRANCH   1  17
TORSDOF 7
ENDMDL
MODEL 9
REMARK VINA RESULT:     -11.3      3.938     11.346
REMARK  Name = 46937052
REMARK  7 active torsions:
REMARK  status: ('A' for Active; 'I' for Inactive)
REMARK    1  A    between atoms: O_1  and  C_3
REMARK    2  A    between atoms: O_1  and  C_17
REMARK    3  A    between atoms: C_4  and  C_11
REMARK    4  A    between atoms: C_17  and  C_18
REMARK    5  A    between atoms: C_18  and  N_19
REMARK    6  A    between atoms: C_18  and  C_23
REMARK    7  A    between atoms: C_23  and  C_25
REMARK                            x       y       z     vdW  Elec       q    Type
REMARK                         _______ _______ _______ _____ _____    ______ ____
ROOT
ATOM      1  O   UNL     1      35.915 -16.788 -22.727  0.00  0.00    -0.476 OA
ENDROOT
BRANCH   1   3
ATOM      2  N   UNL     1      33.980 -15.308 -25.457  0.00  0.00    -0.239 NA
ATOM      3  C   UNL     1      35.141 -15.892 -23.418  0.00  0.00    +0.158 C 
ATOM      4  C   UNL     1      33.946 -13.809 -23.560  0.00  0.00    +0.039 C 
ATOM      5  C   UNL     1      34.732 -14.698 -22.835  0.00  0.00    +0.042 C 
ATOM      6  C   UNL     1      34.742 -16.148 -24.720  0.00  0.00    +0.136 C 
ATOM      7  C   UNL     1      33.601 -14.158 -24.856  0.00  0.00    +0.101 C 
BRANCH   4  11
ATOM      8  N   UNL     1      33.879 -11.425 -23.517  0.00  0.00    -0.264 NA
ATOM      9  N   UNL     1      32.097  -9.229 -21.122  0.00  0.00    -0.150 NA
ATOM     10  N   UNL     1      31.322  -9.809 -20.026  0.00  0.00    -0.147 NA
ATOM     11  C   UNL     1      33.493 -12.523 -22.965  0.00  0.00    +0.078 C 
ATOM     12  C   UNL     1      32.233 -11.489 -21.240  0.00  0.00    +0.040 C 
ATOM     13  C   UNL     1      32.611 -10.216 -21.805  0.00  0.00    +0.107 C 
ATOM     14  C   UNL     1      33.481 -10.114 -23.002  0.00  0.00    +0.173 C 
ATOM     15  C   UNL     1      32.632 -12.641 -21.754  0.00  0.00    +0.022 C 
ATOM     16  C   UNL     1      31.418 -11.105 -20.112  0.00  0.00    +0.123 C 
ENDBRANCH   4  11
ENDBRANCH   1   3
BRANCH   1  17
ATOM     17  C   UNL     1      35.347 -18.067 -22.477  0.00  0.00    +0.184 C 
BRANCH  17  18
ATOM     18  C   UNL     1      35.669 -18.527 -21.049  0.00  0.00    -0.017 C 
BRANCH  18  19
ATOM     19  N   UNL     1      35.672 -17.349 -20.177  0.00  0.00    +0.384 N 
ATOM     20  H   UNL     1      35.728 -17.648 -19.203  0.00  0.00    -0.089 HD
ATOM     21  H   UNL     1      34.813 -16.818 -20.320  0.00  0.00    -0.089 HD
ATOM     22  H   UNL     1      36.476 -16.763 -20.400  0.00  0.00    -0.089 HD
ENDBRANCH  18  19
BRANCH  18  23
ATOM     23  C   UNL     1      34.655 -19.561 -20.501  0.00  0.00    +0.010 C 
BRANCH  23  25
ATOM     24  N   UNL     1      36.783 -21.204 -17.904  0.00  0.00    -0.244 NA
ATOM     25  C   UNL     1      35.131 -20.336 -19.341  0.00  0.00    -0.004 C 
ATOM     26  C   UNL     1      34.532 -21.060 -18.388  0.00  0.00    +0.011 C 
ATOM     27  C   UNL     1      35.538 -21.600 -17.497  0.00  0.00    +0.080 C 
ATOM     28  C   UNL     1      36.544 -20.483 -18.958  0.00  0.00    +0.094 C 
ATOM     29  C   UNL     1      33.128 -21.317 -18.194  0.00  0.00    -0.020 C 
ATOM     30  C   UNL     1      35.192 -22.364 -16.454  0.00  0.00    +0.015 C 
ATOM     31  C   UNL     1      33.739 -22.690 -16.169  0.00  0.00    -0.020 C 
ATOM     32  C   UNL     1      32.755 -22.082 -17.152  0.00  0.00    +0.052 C 
ENDBRANCH  23  25
ENDBRANCH  18  23
ENDBRANCH  17  18
ENDBRANCH   1  17
TORSDOF 7
ENDMDL
