MODEL 1
REMARK VINA RESULT:     -12.7      0.000      0.000
REMARK  Name = 60149
REMARK  5 active torsions:
REMARK  status: ('A' for Active; 'I' for Inactive)
REMARK    1  A    between atoms: N_2  and  C_12
REMARK    2  A    between atoms: C_3  and  C_19
REMARK    3  A    between atoms: N_18  and  C_25
REMARK    4  A    between atoms: C_25  and  C_26
REMARK    5  A    between atoms: C_26  and  N_28
REMARK                            x       y       z     vdW  Elec       q    Type
REMARK                         _______ _______ _______ _____ _____    ______ ____
ROOT
ATOM      1 CL   UNL     1      29.342 -22.618 -16.002  0.00  0.00    -0.082 Cl
ATOM      2  N   UNL     1      35.106 -22.949 -15.103  0.00  0.00    -0.265 N 
ATOM      3  C   UNL     1      34.515 -22.086 -17.055  0.00  0.00    -0.006 C 
ATOM      4  C   UNL     1      33.330 -22.417 -16.345  0.00  0.00    +0.012 C 
ATOM      5  C   UNL     1      35.589 -22.422 -16.271  0.00  0.00    +0.065 C 
ATOM      6  C   UNL     1      33.729 -22.957 -15.121  0.00  0.00    +0.055 C 
ATOM      7  C   UNL     1      31.953 -22.310 -16.624  0.00  0.00    +0.012 C 
ATOM      8  C   UNL     1      32.815 -23.397 -14.157  0.00  0.00    +0.016 C 
ATOM      9  C   UNL     1      31.028 -22.747 -15.669  0.00  0.00    +0.058 C 
ATOM     10  C   UNL     1      31.455 -23.282 -14.455  0.00  0.00    +0.013 C 
ENDROOT
BRANCH   2  12
ATOM     11  F   UNL     1      38.284 -24.739 -10.971  0.00  0.00    -0.204 F 
ATOM     12  C   UNL     1      35.912 -23.403 -14.056  0.00  0.00    +0.056 C 
ATOM     13  C   UNL     1      36.274 -22.526 -13.044  0.00  0.00    +0.017 C 
ATOM     14  C   UNL     1      36.336 -24.724 -14.045  0.00  0.00    +0.017 C 
ATOM     15  C   UNL     1      37.080 -22.978 -11.999  0.00  0.00    +0.031 C 
ATOM     16  C   UNL     1      37.142 -25.176 -12.999  0.00  0.00    +0.031 C 
ATOM     17  C   UNL     1      37.512 -24.304 -11.976  0.00  0.00    +0.140 C 
ENDBRANCH   2  12
BRANCH   3  19
ATOM     18  N   UNL     1      34.782 -19.199 -20.279  0.00  0.00    +0.388 N 
ATOM     19  C   UNL     1      34.590 -21.472 -18.435  0.00  0.00    +0.019 C 
ATOM     20  C   UNL     1      33.395 -20.555 -18.743  0.00  0.00    -0.018 C 
ATOM     21  C   UNL     1      35.905 -20.712 -18.676  0.00  0.00    -0.018 C 
ATOM     22  C   UNL     1      33.517 -19.933 -20.136  0.00  0.00    -0.077 C 
ATOM     23  C   UNL     1      35.935 -20.083 -20.071  0.00  0.00    -0.077 C 
ATOM     24  H   UNL     1      34.808 -18.473 -19.563  0.00  0.00    -0.080 HD
BRANCH  18  25
ATOM     25  C   UNL     1      34.857 -18.563 -21.595  0.00  0.00    -0.055 C 
BRANCH  25  26
ATOM     26  C   UNL     1      35.960 -17.515 -21.614  0.00  0.00    +0.077 C 
BRANCH  26  28
ATOM     27  O   UNL     1      35.314 -15.636 -19.359  0.00  0.00    -0.252 OA
ATOM     28  N   UNL     1      35.415 -16.185 -21.651  0.00  0.00    -0.243 N 
ATOM     29  N   UNL     1      34.654 -14.146 -21.039  0.00  0.00    -0.266 N 
ATOM     30  C   UNL     1      35.151 -15.488 -22.898  0.00  0.00    +0.085 C 
ATOM     31  C   UNL     1      34.532 -14.166 -22.474  0.00  0.00    +0.082 C 
ATOM     32  C   UNL     1      35.149 -15.361 -20.541  0.00  0.00    +0.311 C 
ATOM     33  H   UNL     1      34.419 -13.373 -20.476  0.00  0.00    +0.157 HD
ENDBRANCH  26  28
ENDBRANCH  25  26
ENDBRANCH  18  25
ENDBRANCH   3  19
TORSDOF 5
ENDMDL
MODEL 2
REMARK VINA RESULT:     -11.4      3.065      4.569
REMARK  Name = 60149
REMARK  5 active torsions:
REMARK  status: ('A' for Active; 'I' for Inactive)
REMARK    1  A    between atoms: N_2  and  C_12
REMARK    2  A    between atoms: C_3  and  C_19
REMARK    3  A    between atoms: N_18  and  C_25
REMARK    4  A    between atoms: C_25  and  C_26
REMARK    5  A    between atoms: C_26  and  N_28
REMARK                            x       y       z     vdW  Elec       q    Type
REMARK                         _______ _______ _______ _____ _____    ______ ____
ROOT
ATOM      1 CL   UNL     1      38.580 -22.801 -14.456  0.00  0.00    -0.082 Cl
ATOM      2  N   UNL     1      32.974 -22.703 -16.100  0.00  0.00    -0.265 N 
ATOM      3  C   UNL     1      34.384 -21.783 -17.539  0.00  0.00    -0.006 C 
ATOM      4  C   UNL     1      35.134 -22.250 -16.428  0.00  0.00    +0.012 C 
ATOM      5  C   UNL     1      33.062 -22.074 -17.312  0.00  0.00    +0.065 C 
ATOM      6  C   UNL     1      34.225 -22.825 -15.538  0.00  0.00    +0.055 C 
ATOM      7  C   UNL     1      36.503 -22.241 -16.089  0.00  0.00    +0.012 C 
ATOM      8  C   UNL     1      34.618 -23.395 -14.321  0.00  0.00    +0.016 C 
ATOM      9  C   UNL     1      36.908 -22.806 -14.875  0.00  0.00    +0.058 C 
ATOM     10  C   UNL     1      35.979 -23.374 -14.006  0.00  0.00    +0.013 C 
ENDROOT
BRANCH   2  12
ATOM     11  F   UNL     1      28.255 -24.477 -13.873  0.00  0.00    -0.204 F 
ATOM     12  C   UNL     1      31.778 -23.153 -15.536  0.00  0.00    +0.056 C 
ATOM     13  C   UNL     1      31.791 -24.260 -14.699  0.00  0.00    +0.017 C 
ATOM     14  C   UNL     1      30.596 -22.485 -15.821  0.00  0.00    +0.017 C 
ATOM     15  C   UNL     1      30.596 -24.710 -14.136  0.00  0.00    +0.031 C 
ATOM     16  C   UNL     1      29.401 -22.935 -15.258  0.00  0.00    +0.031 C 
ATOM     17  C   UNL     1      29.401 -24.046 -14.415  0.00  0.00    +0.140 C 
ENDBRANCH   2  12
BRANCH   3  19
ATOM     18  N   UNL     1      35.845 -18.716 -20.233  0.00  0.00    +0.388 N 
ATOM     19  C   UNL     1      34.935 -21.084 -18.762  0.00  0.00    +0.019 C 
ATOM     20  C   UNL     1      33.959 -20.048 -19.344  0.00  0.00    -0.018 C 
ATOM     21  C   UNL     1      36.300 -20.427 -18.506  0.00  0.00    -0.018 C 
ATOM     22  C   UNL     1      34.559 -19.345 -20.564  0.00  0.00    -0.077 C 
ATOM     23  C   UNL     1      36.815 -19.709 -19.756  0.00  0.00    -0.077 C 
ATOM     24  H   UNL     1      35.684 -18.046 -19.482  0.00  0.00    -0.080 HD
BRANCH  18  25
ATOM     25  C   UNL     1      36.376 -18.000 -21.394  0.00  0.00    -0.055 C 
BRANCH  25  26
ATOM     26  C   UNL     1      35.361 -18.004 -22.527  0.00  0.00    +0.077 C 
BRANCH  26  28
ATOM     27  O   UNL     1      34.248 -17.050 -25.151  0.00  0.00    -0.252 OA
ATOM     28  N   UNL     1      35.076 -16.667 -22.975  0.00  0.00    -0.243 N 
ATOM     29  N   UNL     1      34.400 -14.907 -24.222  0.00  0.00    -0.266 N 
ATOM     30  C   UNL     1      35.233 -15.509 -22.113  0.00  0.00    +0.085 C 
ATOM     31  C   UNL     1      34.888 -14.322 -22.999  0.00  0.00    +0.082 C 
ATOM     32  C   UNL     1      34.541 -16.303 -24.226  0.00  0.00    +0.311 C 
ATOM     33  H   UNL     1      34.014 -14.389 -24.966  0.00  0.00    +0.157 HD
ENDBRANCH  26  28
ENDBRANCH  25  26
ENDBRANCH  18  25
ENDBRANCH   3  19
TORSDOF 5
ENDMDL
MODEL 3
REMARK VINA RESULT:     -11.2      6.108     12.789
REMARK  Name = 60149
REMARK  5 active torsions:
REMARK  status: ('A' for Active; 'I' for Inactive)
REMARK    1  A    between atoms: N_2  and  C_12
REMARK    2  A    between atoms: C_3  and  C_19
REMARK    3  A    between atoms: N_18  and  C_25
REMARK    4  A    between atoms: C_25  and  C_26
REMARK    5  A    between atoms: C_26  and  N_28
REMARK                            x       y       z     vdW  Elec       q    Type
REMARK                         _______ _______ _______ _____ _____    ______ ____
ROOT
ATOM      1 CL   UNL     1      30.041 -10.783 -19.239  0.00  0.00    -0.082 Cl
ATOM      2  N   UNL     1      34.301 -10.653 -23.236  0.00  0.00    -0.265 N 
ATOM      3  C   UNL     1      34.038 -12.601 -22.217  0.00  0.00    -0.006 C 
ATOM      4  C   UNL     1      33.079 -11.697 -21.688  0.00  0.00    +0.012 C 
ATOM      5  C   UNL     1      34.774 -11.935 -23.164  0.00  0.00    +0.065 C 
ATOM      6  C   UNL     1      33.265 -10.479 -22.346  0.00  0.00    +0.055 C 
ATOM      7  C   UNL     1      32.067 -11.794 -20.712  0.00  0.00    +0.012 C 
ATOM      8  C   UNL     1      32.485  -9.349 -22.075  0.00  0.00    +0.016 C 
ATOM      9  C   UNL     1      31.281 -10.671 -20.431  0.00  0.00    +0.058 C 
ATOM     10  C   UNL     1      31.488  -9.468 -21.103  0.00  0.00    +0.013 C 
ENDROOT
BRANCH   2  12
ATOM     11  F   UNL     1      36.303  -6.806 -26.637  0.00  0.00    -0.204 F 
ATOM     12  C   UNL     1      34.808  -9.677 -24.098  0.00  0.00    +0.056 C 
ATOM     13  C   UNL     1      34.865  -8.357 -23.677  0.00  0.00    +0.017 C 
ATOM     14  C   UNL     1      35.248 -10.046 -25.362  0.00  0.00    +0.017 C 
ATOM     15  C   UNL     1      35.371  -7.383 -24.539  0.00  0.00    +0.031 C 
ATOM     16  C   UNL     1      35.753  -9.072 -26.223  0.00  0.00    +0.031 C 
ATOM     17  C   UNL     1      35.816  -7.740 -25.811  0.00  0.00    +0.140 C 
ENDBRANCH   2  12
BRANCH   3  19
ATOM     18  N   UNL     1      35.859 -16.354 -21.032  0.00  0.00    +0.388 N 
ATOM     19  C   UNL     1      34.225 -14.046 -21.812  0.00  0.00    +0.019 C 
ATOM     20  C   UNL     1      35.066 -14.842 -22.823  0.00  0.00    -0.018 C 
ATOM     21  C   UNL     1      34.823 -14.196 -20.405  0.00  0.00    -0.018 C 
ATOM     22  C   UNL     1      35.254 -16.292 -22.370  0.00  0.00    -0.077 C 
ATOM     23  C   UNL     1      35.022 -15.670 -20.039  0.00  0.00    -0.077 C 
ATOM     24  H   UNL     1      36.758 -15.875 -21.071  0.00  0.00    -0.080 HD
BRANCH  18  25
ATOM     25  C   UNL     1      36.085 -17.745 -20.638  0.00  0.00    -0.055 C 
BRANCH  25  26
ATOM     26  C   UNL     1      34.860 -18.590 -20.957  0.00  0.00    +0.077 C 
BRANCH  26  28
ATOM     27  O   UNL     1      32.352 -19.878 -19.914  0.00  0.00    -0.252 OA
ATOM     28  N   UNL     1      34.699 -19.654 -20.003  0.00  0.00    -0.243 N 
ATOM     29  N   UNL     1      33.793 -21.236 -18.667  0.00  0.00    -0.266 N 
ATOM     30  C   UNL     1      35.831 -20.356 -19.423  0.00  0.00    +0.085 C 
ATOM     31  C   UNL     1      35.212 -21.337 -18.440  0.00  0.00    +0.082 C 
ATOM     32  C   UNL     1      33.480 -20.211 -19.572  0.00  0.00    +0.311 C 
ATOM     33  H   UNL     1      33.123 -21.818 -18.237  0.00  0.00    +0.157 HD
ENDBRANCH  26  28
ENDBRANCH  25  26
ENDBRANCH  18  25
ENDBRANCH   3  19
TORSDOF 5
ENDMDL
MODEL 4
REMARK VINA RESULT:     -10.6      1.296      1.838
REMARK  Name = 60149
REMARK  5 active torsions:
REMARK  status: ('A' for Active; 'I' for Inactive)
REMARK    1  A    between atoms: N_2  and  C_12
REMARK    2  A    between atoms: C_3  and  C_19
REMARK    3  A    between atoms: N_18  and  C_25
REMARK    4  A    between atoms: C_25  and  C_26
REMARK    5  A    between atoms: C_26  and  N_28
REMARK                            x       y       z     vdW  Elec       q    Type
REMARK                         _______ _______ _______ _____ _____    ______ ____
ROOT
ATOM      1 CL   UNL     1      29.823 -22.637 -15.990  0.00  0.00    -0.082 Cl
ATOM      2  N   UNL     1      35.642 -22.977 -15.588  0.00  0.00    -0.265 N 
ATOM      3  C   UNL     1      34.895 -21.574 -17.129  0.00  0.00    -0.006 C 
ATOM      4  C   UNL     1      33.772 -22.162 -16.491  0.00  0.00    +0.012 C 
ATOM      5  C   UNL     1      36.030 -22.091 -16.557  0.00  0.00    +0.065 C 
ATOM      6  C   UNL     1      34.268 -23.040 -15.526  0.00  0.00    +0.055 C 
ATOM      7  C   UNL     1      32.376 -22.035 -16.639  0.00  0.00    +0.012 C 
ATOM      8  C   UNL     1      33.435 -23.800 -14.696  0.00  0.00    +0.016 C 
ATOM      9  C   UNL     1      31.531 -22.789 -15.817  0.00  0.00    +0.058 C 
ATOM     10  C   UNL     1      32.055 -23.658 -14.861  0.00  0.00    +0.013 C 
ENDROOT
BRANCH   2  12
ATOM     11  F   UNL     1      39.145 -25.830 -12.430  0.00  0.00    -0.204 F 
ATOM     12  C   UNL     1      36.530 -23.700 -14.787  0.00  0.00    +0.056 C 
ATOM     13  C   UNL     1      36.228 -25.010 -14.445  0.00  0.00    +0.017 C 
ATOM     14  C   UNL     1      37.699 -23.096 -14.348  0.00  0.00    +0.017 C 
ATOM     15  C   UNL     1      37.114 -25.732 -13.644  0.00  0.00    +0.031 C 
ATOM     16  C   UNL     1      38.585 -23.818 -13.547  0.00  0.00    +0.031 C 
ATOM     17  C   UNL     1      38.294 -25.136 -13.196  0.00  0.00    +0.140 C 
ENDBRANCH   2  12
BRANCH   3  19
ATOM     18  N   UNL     1      34.969 -19.765 -21.070  0.00  0.00    +0.388 N 
ATOM     19  C   UNL     1      34.859 -20.556 -18.247  0.00  0.00    +0.019 C 
ATOM     20  C   UNL     1      36.177 -20.492 -19.036  0.00  0.00    -0.018 C 
ATOM     21  C   UNL     1      33.684 -20.777 -19.213  0.00  0.00    -0.018 C 
ATOM     22  C   UNL     1      36.095 -19.470 -20.172  0.00  0.00    -0.077 C 
ATOM     23  C   UNL     1      33.693 -19.745 -20.344  0.00  0.00    -0.077 C 
ATOM     24  H   UNL     1      35.104 -20.703 -21.445  0.00  0.00    -0.080 HD
BRANCH  18  25
ATOM     25  C   UNL     1      34.940 -18.814 -22.182  0.00  0.00    -0.055 C 
BRANCH  25  26
ATOM     26  C   UNL     1      36.050 -17.784 -22.025  0.00  0.00    +0.077 C 
BRANCH  26  28
ATOM     27  O   UNL     1      35.282 -15.661 -24.009  0.00  0.00    -0.252 OA
ATOM     28  N   UNL     1      35.512 -16.469 -21.804  0.00  0.00    -0.243 N 
ATOM     29  N   UNL     1      34.656 -14.403 -22.137  0.00  0.00    -0.266 N 
ATOM     30  C   UNL     1      35.171 -15.981 -20.479  0.00  0.00    +0.085 C 
ATOM     31  C   UNL     1      34.707 -14.551 -20.705  0.00  0.00    +0.082 C 
ATOM     32  C   UNL     1      35.167 -15.532 -22.797  0.00  0.00    +0.311 C 
ATOM     33  H   UNL     1      34.305 -13.606 -22.597  0.00  0.00    +0.157 HD
ENDBRANCH  26  28
ENDBRANCH  25  26
ENDBRANCH  18  25
ENDBRANCH   3  19
TORSDOF 5
ENDMDL
MODEL 5
REMARK VINA RESULT:     -10.6      7.061     13.160
REMARK  Name = 60149
REMARK  5 active torsions:
REMARK  status: ('A' for Active; 'I' for Inactive)
REMARK    1  A    between atoms: N_2  and  C_12
REMARK    2  A    between atoms: C_3  and  C_19
REMARK    3  A    between atoms: N_18  and  C_25
REMARK    4  A    between atoms: C_25  and  C_26
REMARK    5  A    between atoms: C_26  and  N_28
REMARK                            x       y       z     vdW  Elec       q    Type
REMARK                         _______ _______ _______ _____ _____    ______ ____
ROOT
ATOM      1 CL   UNL     1      31.316 -11.140 -16.934  0.00  0.00    -0.082 Cl
ATOM      2  N   UNL     1      32.910  -9.486 -22.306  0.00  0.00    -0.265 N 
ATOM      3  C   UNL     1      33.194 -11.638 -21.871  0.00  0.00    -0.006 C 
ATOM      4  C   UNL     1      32.652 -11.025 -20.711  0.00  0.00    +0.012 C 
ATOM      5  C   UNL     1      33.343 -10.672 -22.834  0.00  0.00    +0.065 C 
ATOM      6  C   UNL     1      32.481  -9.672 -21.011  0.00  0.00    +0.055 C 
ATOM      7  C   UNL     1      32.286 -11.488 -19.431  0.00  0.00    +0.012 C 
ATOM      8  C   UNL     1      31.961  -8.754 -20.090  0.00  0.00    +0.016 C 
ATOM      9  C   UNL     1      31.766 -10.581 -18.501  0.00  0.00    +0.058 C 
ATOM     10  C   UNL     1      31.607  -9.236 -18.827  0.00  0.00    +0.013 C 
ENDROOT
BRANCH   2  12
ATOM     11  F   UNL     1      32.904  -4.704 -25.047  0.00  0.00    -0.204 F 
ATOM     12  C   UNL     1      32.908  -8.273 -23.001  0.00  0.00    +0.056 C 
ATOM     13  C   UNL     1      34.108  -7.746 -23.456  0.00  0.00    +0.017 C 
ATOM     14  C   UNL     1      31.707  -7.617 -23.225  0.00  0.00    +0.017 C 
ATOM     15  C   UNL     1      34.107  -6.535 -24.149  0.00  0.00    +0.031 C 
ATOM     16  C   UNL     1      31.706  -6.406 -23.917  0.00  0.00    +0.031 C 
ATOM     17  C   UNL     1      32.905  -5.865 -24.380  0.00  0.00    +0.140 C 
ENDBRANCH   2  12
BRANCH   3  19
ATOM     18  N   UNL     1      35.414 -15.289 -22.610  0.00  0.00    +0.388 N 
ATOM     19  C   UNL     1      33.551 -13.100 -22.027  0.00  0.00    +0.019 C 
ATOM     20  C   UNL     1      33.987 -13.455 -23.458  0.00  0.00    -0.018 C 
ATOM     21  C   UNL     1      34.625 -13.558 -21.028  0.00  0.00    -0.018 C 
ATOM     22  C   UNL     1      34.363 -14.934 -23.573  0.00  0.00    -0.077 C 
ATOM     23  C   UNL     1      34.979 -15.034 -21.231  0.00  0.00    -0.077 C 
ATOM     24  H   UNL     1      36.226 -14.701 -22.798  0.00  0.00    -0.080 HD
BRANCH  18  25
ATOM     25  C   UNL     1      35.803 -16.691 -22.772  0.00  0.00    -0.055 C 
BRANCH  25  26
ATOM     26  C   UNL     1      34.763 -17.604 -22.140  0.00  0.00    +0.077 C 
BRANCH  26  28
ATOM     27  O   UNL     1      33.471 -19.624 -20.328  0.00  0.00    -0.252 OA
ATOM     28  N   UNL     1      35.342 -18.410 -21.100  0.00  0.00    -0.243 N 
ATOM     29  N   UNL     1      35.617 -19.922 -19.441  0.00  0.00    -0.266 N 
ATOM     30  C   UNL     1      36.766 -18.406 -20.814  0.00  0.00    +0.085 C 
ATOM     31  C   UNL     1      36.921 -19.337 -19.622  0.00  0.00    +0.082 C 
ATOM     32  C   UNL     1      34.664 -19.348 -20.297  0.00  0.00    +0.311 C 
ATOM     33  H   UNL     1      35.418 -20.638 -18.795  0.00  0.00    +0.157 HD
ENDBRANCH  26  28
ENDBRANCH  25  26
ENDBRANCH  18  25
ENDBRANCH   3  19
TORSDOF 5
ENDMDL
MODEL 6
REMARK VINA RESULT:     -10.3      8.549     12.618
REMARK  Name = 60149
REMARK  5 active torsions:
REMARK  status: ('A' for Active; 'I' for Inactive)
REMARK    1  A    between atoms: N_2  and  C_12
REMARK    2  A    between atoms: C_3  and  C_19
REMARK    3  A    between atoms: N_18  and  C_25
REMARK    4  A    between atoms: C_25  and  C_26
REMARK    5  A    between atoms: C_26  and  N_28
REMARK                            x       y       z     vdW  Elec       q    Type
REMARK                         _______ _______ _______ _____ _____    ______ ____
ROOT
ATOM      1 CL   UNL     1      30.726 -10.327 -18.495  0.00  0.00    -0.082 Cl
ATOM      2  N   UNL     1      34.021 -13.149 -22.408  0.00  0.00    -0.265 N 
ATOM      3  C   UNL     1      33.595 -11.033 -22.902  0.00  0.00    -0.006 C 
ATOM      4  C   UNL     1      32.959 -11.331 -21.667  0.00  0.00    +0.012 C 
ATOM      5  C   UNL     1      34.239 -12.165 -23.334  0.00  0.00    +0.065 C 
ATOM      6  C   UNL     1      33.243 -12.668 -21.379  0.00  0.00    +0.055 C 
ATOM      7  C   UNL     1      32.169 -10.595 -20.763  0.00  0.00    +0.012 C 
ATOM      8  C   UNL     1      32.774 -13.307 -20.226  0.00  0.00    +0.016 C 
ATOM      9  C   UNL     1      31.692 -11.222 -19.606  0.00  0.00    +0.058 C 
ATOM     10  C   UNL     1      31.991 -12.557 -19.344  0.00  0.00    +0.013 C 
ENDROOT
BRANCH   2  12
ATOM     11  F   UNL     1      36.019 -18.269 -22.813  0.00  0.00    -0.204 F 
ATOM     12  C   UNL     1      34.528 -14.447 -22.511  0.00  0.00    +0.056 C 
ATOM     13  C   UNL     1      35.053 -15.066 -21.386  0.00  0.00    +0.017 C 
ATOM     14  C   UNL     1      34.497 -15.096 -23.737  0.00  0.00    +0.017 C 
ATOM     15  C   UNL     1      35.560 -16.362 -21.489  0.00  0.00    +0.031 C 
ATOM     16  C   UNL     1      35.004 -16.392 -23.840  0.00  0.00    +0.031 C 
ATOM     17  C   UNL     1      35.534 -17.025 -22.715  0.00  0.00    +0.140 C 
ENDBRANCH   2  12
BRANCH   3  19
ATOM     18  N   UNL     1      33.627  -6.772 -23.707  0.00  0.00    +0.388 N 
ATOM     19  C   UNL     1      33.570  -9.704 -23.623  0.00  0.00    +0.019 C 
ATOM     20  C   UNL     1      32.355  -8.843 -23.241  0.00  0.00    -0.018 C 
ATOM     21  C   UNL     1      34.863  -8.897 -23.424  0.00  0.00    -0.018 C 
ATOM     22  C   UNL     1      32.377  -7.497 -23.970  0.00  0.00    -0.077 C 
ATOM     23  C   UNL     1      34.794  -7.548 -24.146  0.00  0.00    -0.077 C 
ATOM     24  H   UNL     1      33.703  -6.631 -22.700  0.00  0.00    -0.080 HD
BRANCH  18  25
ATOM     25  C   UNL     1      33.607  -5.464 -24.364  0.00  0.00    -0.055 C 
BRANCH  25  26
ATOM     26  C   UNL     1      32.195  -4.898 -24.370  0.00  0.00    +0.077 C 
BRANCH  26  28
ATOM     27  O   UNL     1      31.968  -5.184 -21.386  0.00  0.00    -0.252 OA
ATOM     28  N   UNL     1      32.034  -3.889 -23.358  0.00  0.00    -0.243 N 
ATOM     29  N   UNL     1      31.827  -2.848 -21.362  0.00  0.00    -0.266 N 
ATOM     30  C   UNL     1      32.034  -2.470 -23.668  0.00  0.00    +0.085 C 
ATOM     31  C   UNL     1      31.778  -1.786 -22.335  0.00  0.00    +0.082 C 
ATOM     32  C   UNL     1      31.946  -4.107 -21.969  0.00  0.00    +0.311 C 
ATOM     33  H   UNL     1      31.782  -2.706 -20.388  0.00  0.00    +0.157 HD
ENDBRANCH  26  28
ENDBRANCH  25  26
ENDBRANCH  18  25
ENDBRANCH   3  19
TORSDOF 5
ENDMDL
MODEL 7
REMARK VINA RESULT:     -10.1      7.723     14.088
REMARK  Name = 60149
REMARK  5 active torsions:
REMARK  status: ('A' for Active; 'I' for Inactive)
REMARK    1  A    between atoms: N_2  and  C_12
REMARK    2  A    between atoms: C_3  and  C_19
REMARK    3  A    between atoms: N_18  and  C_25
REMARK    4  A    between atoms: C_25  and  C_26
REMARK    5  A    between atoms: C_26  and  N_28
REMARK                            x       y       z     vdW  Elec       q    Type
REMARK                         _______ _______ _______ _____ _____    ______ ____
ROOT
ATOM      1 CL   UNL     1      36.673  -8.960 -26.828  0.00  0.00    -0.082 Cl
ATOM      2  N   UNL     1      33.190  -8.434 -22.166  0.00  0.00    -0.265 N 
ATOM      3  C   UNL     1      33.555 -10.516 -22.827  0.00  0.00    -0.006 C 
ATOM      4  C   UNL     1      34.267  -9.649 -23.698  0.00  0.00    +0.012 C 
ATOM      5  C   UNL     1      32.904  -9.745 -21.897  0.00  0.00    +0.065 C 
ATOM      6  C   UNL     1      34.022  -8.346 -23.260  0.00  0.00    +0.055 C 
ATOM      7  C   UNL     1      35.099  -9.843 -24.818  0.00  0.00    +0.012 C 
ATOM      8  C   UNL     1      34.570  -7.222 -23.890  0.00  0.00    +0.016 C 
ATOM      9  C   UNL     1      35.653  -8.729 -25.458  0.00  0.00    +0.058 C 
ATOM     10  C   UNL     1      35.391  -7.439 -25.000  0.00  0.00    +0.013 C 
ENDROOT
BRANCH   2  12
ATOM     11  F   UNL     1      31.263  -4.186 -19.231  0.00  0.00    -0.204 F 
ATOM     12  C   UNL     1      32.702  -7.357 -21.422  0.00  0.00    +0.056 C 
ATOM     13  C   UNL     1      31.763  -6.507 -21.988  0.00  0.00    +0.017 C 
ATOM     14  C   UNL     1      33.164  -7.156 -20.129  0.00  0.00    +0.017 C 
ATOM     15  C   UNL     1      31.276  -5.430 -21.245  0.00  0.00    +0.031 C 
ATOM     16  C   UNL     1      32.677  -6.080 -19.387  0.00  0.00    +0.031 C 
ATOM     17  C   UNL     1      31.732  -5.217 -19.944  0.00  0.00    +0.140 C 
ENDBRANCH   2  12
BRANCH   3  19
ATOM     18  N   UNL     1      34.674 -14.645 -23.535  0.00  0.00    +0.388 N 
ATOM     19  C   UNL     1      33.514 -12.026 -22.904  0.00  0.00    +0.019 C 
ATOM     20  C   UNL     1      33.634 -12.551 -24.344  0.00  0.00    -0.018 C 
ATOM     21  C   UNL     1      34.576 -12.694 -22.016  0.00  0.00    -0.018 C 
ATOM     22  C   UNL     1      33.613 -14.080 -24.381  0.00  0.00    -0.077 C 
ATOM     23  C   UNL     1      34.522 -14.220 -22.138  0.00  0.00    -0.077 C 
ATOM     24  H   UNL     1      35.568 -14.294 -23.876  0.00  0.00    -0.080 HD
BRANCH  18  25
ATOM     25  C   UNL     1      34.677 -16.106 -23.627  0.00  0.00    -0.055 C 
BRANCH  25  26
ATOM     26  C   UNL     1      35.850 -16.681 -22.848  0.00  0.00    +0.077 C 
BRANCH  26  28
ATOM     27  O   UNL     1      35.699 -16.487 -19.852  0.00  0.00    -0.252 OA
ATOM     28  N   UNL     1      35.408 -17.652 -21.884  0.00  0.00    -0.243 N 
ATOM     29  N   UNL     1      34.838 -18.661 -19.942  0.00  0.00    -0.266 N 
ATOM     30  C   UNL     1      34.859 -18.940 -22.272  0.00  0.00    +0.085 C 
ATOM     31  C   UNL     1      34.589 -19.654 -20.957  0.00  0.00    +0.082 C 
ATOM     32  C   UNL     1      35.359 -17.477 -20.487  0.00  0.00    +0.311 C 
ATOM     33  H   UNL     1      34.663 -18.798 -18.983  0.00  0.00    +0.157 HD
ENDBRANCH  26  28
ENDBRANCH  25  26
ENDBRANCH  18  25
ENDBRANCH   3  19
TORSDOF 5
ENDMDL
MODEL 8
REMARK VINA RESULT:      -9.9      9.433     16.402
REMARK  Name = 60149
REMARK  5 active torsions:
REMARK  status: ('A' for Active; 'I' for Inactive)
REMARK    1  A    between atoms: N_2  and  C_12
REMARK    2  A    between atoms: C_3  and  C_19
REMARK    3  A    between atoms: N_18  and  C_25
REMARK    4  A    between atoms: C_25  and  C_26
REMARK    5  A    between atoms: C_26  and  N_28
REMARK                            x       y       z     vdW  Elec       q    Type
REMARK                         _______ _______ _______ _____ _____    ______ ____
ROOT
ATOM      1 CL   UNL     1      32.258  -5.627 -17.830  0.00  0.00    -0.082 Cl
ATOM      2  N   UNL     1      32.798  -5.676 -23.647  0.00  0.00    -0.265 N 
ATOM      3  C   UNL     1      33.180  -7.621 -22.660  0.00  0.00    -0.006 C 
ATOM      4  C   UNL     1      32.859  -6.673 -21.652  0.00  0.00    +0.012 C 
ATOM      5  C   UNL     1      33.136  -6.983 -23.874  0.00  0.00    +0.065 C 
ATOM      6  C   UNL     1      32.623  -5.458 -22.299  0.00  0.00    +0.055 C 
ATOM      7  C   UNL     1      32.746  -6.727 -20.248  0.00  0.00    +0.012 C 
ATOM      8  C   UNL     1      32.277  -4.290 -21.610  0.00  0.00    +0.016 C 
ATOM      9  C   UNL     1      32.401  -5.567 -19.547  0.00  0.00    +0.058 C 
ATOM     10  C   UNL     1      32.170  -4.368 -20.219  0.00  0.00    +0.013 C 
ENDROOT
BRANCH   2  12
ATOM     11  F   UNL     1      32.232  -1.899 -27.621  0.00  0.00    -0.204 F 
ATOM     12  C   UNL     1      32.655  -4.718 -24.655  0.00  0.00    +0.056 C 
ATOM     13  C   UNL     1      33.529  -4.725 -25.733  0.00  0.00    +0.017 C 
ATOM     14  C   UNL     1      31.641  -3.776 -24.561  0.00  0.00    +0.017 C 
ATOM     15  C   UNL     1      33.386  -3.768 -26.738  0.00  0.00    +0.031 C 
ATOM     16  C   UNL     1      31.498  -2.819 -25.566  0.00  0.00    +0.031 C 
ATOM     17  C   UNL     1      32.370  -2.816 -26.656  0.00  0.00    +0.140 C 
ENDBRANCH   2  12
BRANCH   3  19
ATOM     18  N   UNL     1      33.153 -11.948 -22.936  0.00  0.00    +0.388 N 
ATOM     19  C   UNL     1      33.515  -9.079 -22.443  0.00  0.00    +0.019 C 
ATOM     20  C   UNL     1      32.342  -9.877 -21.852  0.00  0.00    -0.018 C 
ATOM     21  C   UNL     1      34.023  -9.768 -23.719  0.00  0.00    -0.018 C 
ATOM     22  C   UNL     1      32.709 -11.351 -21.669  0.00  0.00    -0.077 C 
ATOM     23  C   UNL     1      34.328 -11.247 -23.469  0.00  0.00    -0.077 C 
ATOM     24  H   UNL     1      32.395 -11.852 -23.611  0.00  0.00    -0.080 HD
BRANCH  18  25
ATOM     25  C   UNL     1      33.445 -13.371 -22.756  0.00  0.00    -0.055 C 
BRANCH  25  26
ATOM     26  C   UNL     1      34.580 -13.555 -21.760  0.00  0.00    +0.077 C 
BRANCH  26  28
ATOM     27  O   UNL     1      35.188 -15.293 -19.384  0.00  0.00    -0.252 OA
ATOM     28  N   UNL     1      35.009 -14.927 -21.708  0.00  0.00    -0.243 N 
ATOM     29  N   UNL     1      35.628 -16.968 -20.959  0.00  0.00    -0.266 N 
ATOM     30  C   UNL     1      35.146 -15.744 -22.901  0.00  0.00    +0.085 C 
ATOM     31  C   UNL     1      35.673 -17.077 -22.394  0.00  0.00    +0.082 C 
ATOM     32  C   UNL     1      35.265 -15.677 -20.544  0.00  0.00    +0.311 C 
ATOM     33  H   UNL     1      35.827 -17.711 -20.343  0.00  0.00    +0.157 HD
ENDBRANCH  26  28
ENDBRANCH  25  26
ENDBRANCH  18  25
ENDBRANCH   3  19
TORSDOF 5
ENDMDL
