MODEL 1
REMARK VINA RESULT:     -11.9      0.000      0.000
REMARK  Name = 3168
REMARK  6 active torsions:
REMARK  status: ('A' for Active; 'I' for Inactive)
REMARK    1  A    between atoms: N_1  and  C_19
REMARK    2  A    between atoms: C_5  and  N_9
REMARK    3  A    between atoms: C_19  and  C_20
REMARK    4  A    between atoms: C_20  and  C_21
REMARK    5  A    between atoms: C_21  and  C_23
REMARK    6  A    between atoms: C_23  and  C_25
REMARK                            x       y       z     vdW  Elec       q    Type
REMARK                         _______ _______ _______ _____ _____    ______ ____
ROOT
ATOM      1  N   UNL     1      34.332 -15.654 -23.614  0.00  0.00    +0.390 N 
ATOM      2  C   UNL     1      35.372 -14.893 -22.911  0.00  0.00    -0.071 C 
ATOM      3  C   UNL     1      34.759 -13.663 -22.224  0.00  0.00    +0.021 C 
ATOM      4  C   UNL     1      33.725 -14.846 -24.685  0.00  0.00    -0.049 C 
ATOM      5  C   UNL     1      33.809 -12.914 -23.117  0.00  0.00    +0.037 C 
ATOM      6  C   UNL     1      33.349 -13.455 -24.255  0.00  0.00    -0.036 C 
ATOM      7  H   UNL     1      33.605 -15.888 -22.938  0.00  0.00    -0.079 HD
ENDROOT
BRANCH   5   9
ATOM      8  O   UNL     1      34.472 -10.300 -24.413  0.00  0.00    -0.246 OA
ATOM      9  N   UNL     1      33.450 -11.656 -22.728  0.00  0.00    -0.263 N 
ATOM     10  N   UNL     1      33.211  -9.391 -22.636  0.00  0.00    -0.305 N 
ATOM     11  C   UNL     1      32.670 -11.331 -21.602  0.00  0.00    +0.083 A 
ATOM     12  C   UNL     1      33.803 -10.438 -23.397  0.00  0.00    +0.332 A 
ATOM     13  C   UNL     1      32.530  -9.945 -21.555  0.00  0.00    +0.076 A 
ATOM     14  C   UNL     1      32.092 -12.139 -20.644  0.00  0.00    +0.019 C 
ATOM     15  C   UNL     1      31.817  -9.304 -20.566  0.00  0.00    +0.019 C 
ATOM     16  C   UNL     1      31.363 -11.512 -19.628  0.00  0.00    +0.002 C 
ATOM     17  C   UNL     1      31.227 -10.109 -19.590  0.00  0.00    +0.002 C 
ATOM     18  H   UNL     1      33.272  -8.429 -22.841  0.00  0.00    +0.170 HD
ENDBRANCH   5   9
BRANCH   1  19
ATOM     19  C   UNL     1      34.867 -16.905 -24.150  0.00  0.00    -0.076 C 
BRANCH  19  20
ATOM     20  C   UNL     1      34.610 -18.052 -23.171  0.00  0.00    -0.015 C 
BRANCH  20  21
ATOM     21  C   UNL     1      35.815 -18.326 -22.267  0.00  0.00    +0.067 C 
BRANCH  21  23
ATOM     22  O   UNL     1      35.590 -17.105 -20.196  0.00  0.00    -0.291 OA
ATOM     23  C   UNL     1      35.502 -18.181 -20.784  0.00  0.00    +0.173 C 
BRANCH  23  25
ATOM     24  F   UNL     1      33.827 -22.688 -17.946  0.00  0.00    -0.204 F 
ATOM     25  C   UNL     1      35.056 -19.385 -20.027  0.00  0.00    +0.035 C 
ATOM     26  C   UNL     1      33.709 -19.668 -19.970  0.00  0.00    +0.005 C 
ATOM     27  C   UNL     1      36.005 -20.169 -19.412  0.00  0.00    +0.005 C 
ATOM     28  C   UNL     1      33.290 -20.793 -19.261  0.00  0.00    +0.030 C 
ATOM     29  C   UNL     1      35.587 -21.295 -18.702  0.00  0.00    +0.030 C 
ATOM     30  C   UNL     1      34.229 -21.607 -18.626  0.00  0.00    +0.140 C 
ENDBRANCH  23  25
ENDBRANCH  21  23
ENDBRANCH  20  21
ENDBRANCH  19  20
ENDBRANCH   1  19
TORSDOF 6
ENDMDL
MODEL 2
REMARK VINA RESULT:     -11.7      1.518      2.943
REMARK  Name = 3168
REMARK  6 active torsions:
REMARK  status: ('A' for Active; 'I' for Inactive)
REMARK    1  A    between atoms: N_1  and  C_19
REMARK    2  A    between atoms: C_5  and  N_9
REMARK    3  A    between atoms: C_19  and  C_20
REMARK    4  A    between atoms: C_20  and  C_21
REMARK    5  A    between atoms: C_21  and  C_23
REMARK    6  A    between atoms: C_23  and  C_25
REMARK                            x       y       z     vdW  Elec       q    Type
REMARK                         _______ _______ _______ _____ _____    ______ ____
ROOT
ATOM      1  N   UNL     1      34.759 -14.874 -23.862  0.00  0.00    +0.390 N 
ATOM      2  C   UNL     1      33.515 -14.371 -24.457  0.00  0.00    -0.071 C 
ATOM      3  C   UNL     1      33.511 -12.834 -24.463  0.00  0.00    +0.021 C 
ATOM      4  C   UNL     1      34.873 -14.458 -22.454  0.00  0.00    -0.049 C 
ATOM      5  C   UNL     1      33.962 -12.249 -23.154  0.00  0.00    +0.037 C 
ATOM      6  C   UNL     1      34.574 -13.002 -22.227  0.00  0.00    -0.036 C 
ATOM      7  H   UNL     1      35.539 -14.469 -24.380  0.00  0.00    -0.079 HD
ENDROOT
BRANCH   5   9
ATOM      8  O   UNL     1      31.954 -11.003 -21.320  0.00  0.00    -0.246 OA
ATOM      9  N   UNL     1      33.708 -10.924 -22.943  0.00  0.00    -0.263 N 
ATOM     10  N   UNL     1      32.823  -8.975 -22.160  0.00  0.00    -0.305 N 
ATOM     11  C   UNL     1      34.365  -9.848 -23.570  0.00  0.00    +0.083 A 
ATOM     12  C   UNL     1      32.726 -10.390 -22.045  0.00  0.00    +0.332 A 
ATOM     13  C   UNL     1      33.817  -8.663 -23.085  0.00  0.00    +0.076 A 
ATOM     14  C   UNL     1      35.378  -9.835 -24.507  0.00  0.00    +0.019 C 
ATOM     15  C   UNL     1      34.244  -7.421 -23.502  0.00  0.00    +0.019 C 
ATOM     16  C   UNL     1      35.830  -8.586 -24.948  0.00  0.00    +0.002 C 
ATOM     17  C   UNL     1      35.269  -7.392 -24.451  0.00  0.00    +0.002 C 
ATOM     18  H   UNL     1      32.276  -8.322 -21.666  0.00  0.00    +0.170 HD
ENDBRANCH   5   9
BRANCH   1  19
ATOM     19  C   UNL     1      34.848 -16.329 -23.981  0.00  0.00    -0.076 C 
BRANCH  19  20
ATOM     20  C   UNL     1      35.745 -16.895 -22.879  0.00  0.00    -0.015 C 
BRANCH  20  21
ATOM     21  C   UNL     1      35.148 -18.147 -22.230  0.00  0.00    +0.067 C 
BRANCH  21  23
ATOM     22  O   UNL     1      35.766 -17.230 -20.084  0.00  0.00    -0.291 OA
ATOM     23  C   UNL     1      35.320 -18.184 -20.718  0.00  0.00    +0.173 C 
BRANCH  23  25
ATOM     24  F   UNL     1      33.806 -22.802 -17.969  0.00  0.00    -0.204 F 
ATOM     25  C   UNL     1      34.915 -19.416 -19.983  0.00  0.00    +0.035 C 
ATOM     26  C   UNL     1      35.895 -20.198 -19.414  0.00  0.00    +0.005 C 
ATOM     27  C   UNL     1      33.577 -19.728 -19.901  0.00  0.00    +0.005 C 
ATOM     28  C   UNL     1      35.517 -21.353 -18.728  0.00  0.00    +0.030 C 
ATOM     29  C   UNL     1      33.198 -20.882 -19.215  0.00  0.00    +0.030 C 
ATOM     30  C   UNL     1      34.169 -21.694 -18.628  0.00  0.00    +0.140 C 
ENDBRANCH  23  25
ENDBRANCH  21  23
ENDBRANCH  20  21
ENDBRANCH  19  20
ENDBRANCH   1  19
TORSDOF 6
ENDMDL
MODEL 3
REMARK VINA RESULT:     -11.3      3.617      6.656
REMARK  Name = 3168
REMARK  6 active torsions:
REMARK  status: ('A' for Active; 'I' for Inactive)
REMARK    1  A    between atoms: N_1  and  C_19
REMARK    2  A    between atoms: C_5  and  N_9
REMARK    3  A    between atoms: C_19  and  C_20
REMARK    4  A    between atoms: C_20  and  C_21
REMARK    5  A    between atoms: C_21  and  C_23
REMARK    6  A    between atoms: C_23  and  C_25
REMARK                            x       y       z     vdW  Elec       q    Type
REMARK                         _______ _______ _______ _____ _____    ______ ____
ROOT
ATOM      1  N   UNL     1      35.595 -20.483 -18.482  0.00  0.00    +0.390 N 
ATOM      2  C   UNL     1      36.728 -20.355 -19.407  0.00  0.00    -0.071 C 
ATOM      3  C   UNL     1      36.664 -19.008 -20.144  0.00  0.00    +0.021 C 
ATOM      4  C   UNL     1      34.318 -20.476 -19.214  0.00  0.00    -0.049 C 
ATOM      5  C   UNL     1      35.287 -18.694 -20.657  0.00  0.00    +0.037 C 
ATOM      6  C   UNL     1      34.213 -19.381 -20.239  0.00  0.00    -0.036 C 
ATOM      7  H   UNL     1      35.611 -19.678 -17.857  0.00  0.00    -0.079 HD
ENDROOT
BRANCH   5   9
ATOM      8  O   UNL     1      35.210 -18.900 -23.641  0.00  0.00    -0.246 OA
ATOM      9  N   UNL     1      35.179 -17.691 -21.578  0.00  0.00    -0.263 N 
ATOM     10  N   UNL     1      35.026 -16.549 -23.544  0.00  0.00    -0.305 N 
ATOM     11  C   UNL     1      35.078 -16.316 -21.292  0.00  0.00    +0.083 A 
ATOM     12  C   UNL     1      35.148 -17.859 -23.001  0.00  0.00    +0.332 A 
ATOM     13  C   UNL     1      34.986 -15.628 -22.500  0.00  0.00    +0.076 A 
ATOM     14  C   UNL     1      35.063 -15.646 -20.086  0.00  0.00    +0.019 C 
ATOM     15  C   UNL     1      34.875 -14.256 -22.566  0.00  0.00    +0.019 C 
ATOM     16  C   UNL     1      34.951 -14.252 -20.126  0.00  0.00    +0.002 C 
ATOM     17  C   UNL     1      34.858 -13.564 -21.354  0.00  0.00    +0.002 C 
ATOM     18  H   UNL     1      34.979 -16.329 -24.503  0.00  0.00    +0.170 HD
ENDBRANCH   5   9
BRANCH   1  19
ATOM     19  C   UNL     1      35.718 -21.690 -17.666  0.00  0.00    -0.076 C 
BRANCH  19  20
ATOM     20  C   UNL     1      36.652 -21.434 -16.482  0.00  0.00    -0.015 C 
BRANCH  20  21
ATOM     21  C   UNL     1      35.996 -21.775 -15.140  0.00  0.00    +0.067 C 
BRANCH  21  23
ATOM     22  O   UNL     1      35.503 -24.121 -15.422  0.00  0.00    -0.291 OA
ATOM     23  C   UNL     1      35.079 -22.988 -15.207  0.00  0.00    +0.173 C 
BRANCH  23  25
ATOM     24  F   UNL     1      29.608 -22.246 -14.376  0.00  0.00    -0.204 F 
ATOM     25  C   UNL     1      33.618 -22.791 -14.984  0.00  0.00    +0.035 C 
ATOM     26  C   UNL     1      32.798 -22.636 -16.080  0.00  0.00    +0.005 C 
ATOM     27  C   UNL     1      33.143 -22.770 -13.693  0.00  0.00    +0.005 C 
ATOM     28  C   UNL     1      31.431 -22.450 -15.872  0.00  0.00    +0.030 C 
ATOM     29  C   UNL     1      31.776 -22.584 -13.484  0.00  0.00    +0.030 C 
ATOM     30  C   UNL     1      30.920 -22.424 -14.575  0.00  0.00    +0.140 C 
ENDBRANCH  23  25
ENDBRANCH  21  23
ENDBRANCH  20  21
ENDBRANCH  19  20
ENDBRANCH   1  19
TORSDOF 6
ENDMDL
MODEL 4
REMARK VINA RESULT:     -11.3      4.592      7.169
REMARK  Name = 3168
REMARK  6 active torsions:
REMARK  status: ('A' for Active; 'I' for Inactive)
REMARK    1  A    between atoms: N_1  and  C_19
REMARK    2  A    between atoms: C_5  and  N_9
REMARK    3  A    between atoms: C_19  and  C_20
REMARK    4  A    between atoms: C_20  and  C_21
REMARK    5  A    between atoms: C_21  and  C_23
REMARK    6  A    between atoms: C_23  and  C_25
REMARK                            x       y       z     vdW  Elec       q    Type
REMARK                         _______ _______ _______ _____ _____    ______ ____
ROOT
ATOM      1  N   UNL     1      35.685 -20.274 -18.702  0.00  0.00    +0.390 N 
ATOM      2  C   UNL     1      36.819 -20.071 -19.611  0.00  0.00    -0.071 C 
ATOM      3  C   UNL     1      36.700 -18.710 -20.316  0.00  0.00    +0.021 C 
ATOM      4  C   UNL     1      34.416 -20.308 -19.447  0.00  0.00    -0.049 C 
ATOM      5  C   UNL     1      35.314 -18.447 -20.836  0.00  0.00    +0.037 C 
ATOM      6  C   UNL     1      34.270 -19.194 -20.446  0.00  0.00    -0.036 C 
ATOM      7  H   UNL     1      35.657 -19.485 -18.057  0.00  0.00    -0.079 HD
ENDROOT
BRANCH   5   9
ATOM      8  O   UNL     1      35.181 -18.594 -23.821  0.00  0.00    -0.246 OA
ATOM      9  N   UNL     1      35.169 -17.429 -21.733  0.00  0.00    -0.263 N 
ATOM     10  N   UNL     1      34.955 -16.249 -23.672  0.00  0.00    -0.305 N 
ATOM     11  C   UNL     1      35.048 -16.062 -21.417  0.00  0.00    +0.083 A 
ATOM     12  C   UNL     1      35.112 -17.567 -23.159  0.00  0.00    +0.332 A 
ATOM     13  C   UNL     1      34.918 -15.350 -22.608  0.00  0.00    +0.076 A 
ATOM     14  C   UNL     1      35.044 -15.417 -20.197  0.00  0.00    +0.019 C 
ATOM     15  C   UNL     1      34.779 -13.980 -22.643  0.00  0.00    +0.019 C 
ATOM     16  C   UNL     1      34.905 -14.025 -20.205  0.00  0.00    +0.002 C 
ATOM     17  C   UNL     1      34.774 -13.314 -21.416  0.00  0.00    +0.002 C 
ATOM     18  H   UNL     1      34.883 -16.011 -24.625  0.00  0.00    +0.170 HD
ENDBRANCH   5   9
BRANCH   1  19
ATOM     19  C   UNL     1      35.856 -21.494 -17.914  0.00  0.00    -0.076 C 
BRANCH  19  20
ATOM     20  C   UNL     1      36.844 -21.250 -16.772  0.00  0.00    -0.015 C 
BRANCH  20  21
ATOM     21  C   UNL     1      36.274 -21.666 -15.412  0.00  0.00    +0.067 C 
BRANCH  21  23
ATOM     22  O   UNL     1      38.421 -22.651 -14.913  0.00  0.00    -0.291 OA
ATOM     23  C   UNL     1      37.280 -22.397 -14.534  0.00  0.00    +0.173 C 
BRANCH  23  25
ATOM     24  F   UNL     1      35.740 -23.910  -9.384  0.00  0.00    -0.204 F 
ATOM     25  C   UNL     1      36.867 -22.800 -13.159  0.00  0.00    +0.035 C 
ATOM     26  C   UNL     1      37.762 -22.631 -12.125  0.00  0.00    +0.005 C 
ATOM     27  C   UNL     1      35.609 -23.326 -12.973  0.00  0.00    +0.005 C 
ATOM     28  C   UNL     1      37.378 -23.010 -10.839  0.00  0.00    +0.030 C 
ATOM     29  C   UNL     1      35.225 -23.706 -11.687  0.00  0.00    +0.030 C 
ATOM     30  C   UNL     1      36.109 -23.547 -10.619  0.00  0.00    +0.140 C 
ENDBRANCH  23  25
ENDBRANCH  21  23
ENDBRANCH  20  21
ENDBRANCH  19  20
ENDBRANCH   1  19
TORSDOF 6
ENDMDL
MODEL 5
REMARK VINA RESULT:     -11.2      4.456      7.311
REMARK  Name = 3168
REMARK  6 active torsions:
REMARK  status: ('A' for Active; 'I' for Inactive)
REMARK    1  A    between atoms: N_1  and  C_19
REMARK    2  A    between atoms: C_5  and  N_9
REMARK    3  A    between atoms: C_19  and  C_20
REMARK    4  A    between atoms: C_20  and  C_21
REMARK    5  A    between atoms: C_21  and  C_23
REMARK    6  A    between atoms: C_23  and  C_25
REMARK                            x       y       z     vdW  Elec       q    Type
REMARK                         _______ _______ _______ _____ _____    ______ ____
ROOT
ATOM      1  N   UNL     1      35.487 -20.480 -18.432  0.00  0.00    +0.390 N 
ATOM      2  C   UNL     1      36.633 -20.372 -19.343  0.00  0.00    -0.071 C 
ATOM      3  C   UNL     1      36.583 -19.039 -20.107  0.00  0.00    +0.021 C 
ATOM      4  C   UNL     1      34.220 -20.483 -19.182  0.00  0.00    -0.049 C 
ATOM      5  C   UNL     1      35.214 -18.731 -20.645  0.00  0.00    +0.037 C 
ATOM      6  C   UNL     1      34.133 -19.407 -20.229  0.00  0.00    -0.036 C 
ATOM      7  H   UNL     1      35.496 -19.663 -17.822  0.00  0.00    -0.079 HD
ENDROOT
BRANCH   5   9
ATOM      8  O   UNL     1      35.139 -18.996 -23.624  0.00  0.00    -0.246 OA
ATOM      9  N   UNL     1      35.122 -17.746 -21.586  0.00  0.00    -0.263 N 
ATOM     10  N   UNL     1      34.989 -16.641 -23.575  0.00  0.00    -0.305 N 
ATOM     11  C   UNL     1      35.041 -16.364 -21.328  0.00  0.00    +0.083 A 
ATOM     12  C   UNL     1      35.091 -17.941 -23.006  0.00  0.00    +0.332 A 
ATOM     13  C   UNL     1      34.961 -15.698 -22.550  0.00  0.00    +0.076 A 
ATOM     14  C   UNL     1      35.034 -15.669 -20.135  0.00  0.00    +0.019 C 
ATOM     15  C   UNL     1      34.869 -14.327 -22.643  0.00  0.00    +0.019 C 
ATOM     16  C   UNL     1      34.942 -14.275 -20.204  0.00  0.00    +0.002 C 
ATOM     17  C   UNL     1      34.861 -13.611 -21.445  0.00  0.00    +0.002 C 
ATOM     18  H   UNL     1      34.946 -16.440 -24.538  0.00  0.00    +0.170 HD
ENDBRANCH   5   9
BRANCH   1  19
ATOM     19  C   UNL     1      35.595 -21.671 -17.592  0.00  0.00    -0.076 C 
BRANCH  19  20
ATOM     20  C   UNL     1      36.680 -21.474 -16.532  0.00  0.00    -0.015 C 
BRANCH  20  21
ATOM     21  C   UNL     1      36.217 -21.905 -15.138  0.00  0.00    +0.067 C 
BRANCH  21  23
ATOM     22  O   UNL     1      35.233 -24.109 -15.095  0.00  0.00    -0.291 OA
ATOM     23  C   UNL     1      36.234 -23.413 -14.935  0.00  0.00    +0.173 C 
BRANCH  23  25
ATOM     24  F   UNL     1      41.038 -25.864 -13.489  0.00  0.00    -0.204 F 
ATOM     25  C   UNL     1      37.516 -24.068 -14.547  0.00  0.00    +0.035 C 
ATOM     26  C   UNL     1      38.699 -23.433 -14.851  0.00  0.00    +0.005 C 
ATOM     27  C   UNL     1      37.470 -25.282 -13.901  0.00  0.00    +0.005 C 
ATOM     28  C   UNL     1      39.900 -24.045 -14.491  0.00  0.00    +0.030 C 
ATOM     29  C   UNL     1      38.670 -25.895 -13.541  0.00  0.00    +0.030 C 
ATOM     30  C   UNL     1      39.886 -25.276 -13.835  0.00  0.00    +0.140 C 
ENDBRANCH  23  25
ENDBRANCH  21  23
ENDBRANCH  20  21
ENDBRANCH  19  20
ENDBRANCH   1  19
TORSDOF 6
ENDMDL
MODEL 6
REMARK VINA RESULT:     -11.2      6.129     12.005
REMARK  Name = 3168
REMARK  6 active torsions:
REMARK  status: ('A' for Active; 'I' for Inactive)
REMARK    1  A    between atoms: N_1  and  C_19
REMARK    2  A    between atoms: C_5  and  N_9
REMARK    3  A    between atoms: C_19  and  C_20
REMARK    4  A    between atoms: C_20  and  C_21
REMARK    5  A    between atoms: C_21  and  C_23
REMARK    6  A    between atoms: C_23  and  C_25
REMARK                            x       y       z     vdW  Elec       q    Type
REMARK                         _______ _______ _______ _____ _____    ______ ____
ROOT
ATOM      1  N   UNL     1      34.381 -22.116 -17.696  0.00  0.00    +0.390 N 
ATOM      2  C   UNL     1      35.422 -21.364 -16.985  0.00  0.00    -0.071 C 
ATOM      3  C   UNL     1      36.055 -22.236 -15.889  0.00  0.00    +0.021 C 
ATOM      4  C   UNL     1      33.287 -22.487 -16.783  0.00  0.00    -0.049 C 
ATOM      5  C   UNL     1      35.032 -22.977 -15.076  0.00  0.00    +0.037 C 
ATOM      6  C   UNL     1      33.757 -23.077 -15.482  0.00  0.00    -0.036 C 
ATOM      7  H   UNL     1      34.804 -22.973 -18.053  0.00  0.00    -0.079 HD
ENDROOT
BRANCH   5   9
ATOM      8  O   UNL     1      33.558 -23.183 -12.480  0.00  0.00    -0.246 OA
ATOM      9  N   UNL     1      35.451 -23.529 -13.900  0.00  0.00    -0.263 N 
ATOM     10  N   UNL     1      35.529 -24.251 -11.739  0.00  0.00    -0.305 N 
ATOM     11  C   UNL     1      36.704 -24.130 -13.671  0.00  0.00    +0.083 A 
ATOM     12  C   UNL     1      34.692 -23.595 -12.686  0.00  0.00    +0.332 A 
ATOM     13  C   UNL     1      36.741 -24.568 -12.349  0.00  0.00    +0.076 A 
ATOM     14  C   UNL     1      37.781 -24.316 -14.514  0.00  0.00    +0.019 C 
ATOM     15  C   UNL     1      37.837 -25.203 -11.807  0.00  0.00    +0.019 C 
ATOM     16  C   UNL     1      38.907 -24.958 -13.988  0.00  0.00    +0.002 C 
ATOM     17  C   UNL     1      38.934 -25.397 -12.648  0.00  0.00    +0.002 C 
ATOM     18  H   UNL     1      35.290 -24.448 -10.804  0.00  0.00    +0.170 HD
ENDBRANCH   5   9
BRANCH   1  19
ATOM     19  C   UNL     1      33.870 -21.357 -18.836  0.00  0.00    -0.076 C 
BRANCH  19  20
ATOM     20  C   UNL     1      34.992 -20.530 -19.466  0.00  0.00    -0.015 C 
BRANCH  20  21
ATOM     21  C   UNL     1      34.457 -19.333 -20.258  0.00  0.00    +0.067 C 
BRANCH  21  23
ATOM     22  O   UNL     1      36.696 -18.446 -20.423  0.00  0.00    -0.291 OA
ATOM     23  C   UNL     1      35.555 -18.480 -20.878  0.00  0.00    +0.173 C 
BRANCH  23  25
ATOM     24  F   UNL     1      34.349 -15.459 -25.416  0.00  0.00    -0.204 F 
ATOM     25  C   UNL     1      35.234 -17.674 -22.091  0.00  0.00    +0.035 C 
ATOM     26  C   UNL     1      35.500 -16.323 -22.075  0.00  0.00    +0.005 C 
ATOM     27  C   UNL     1      34.682 -18.309 -23.180  0.00  0.00    +0.005 C 
ATOM     28  C   UNL     1      35.199 -15.568 -23.208  0.00  0.00    +0.030 C 
ATOM     29  C   UNL     1      34.380 -17.555 -24.314  0.00  0.00    +0.030 C 
ATOM     30  C   UNL     1      34.639 -16.184 -24.328  0.00  0.00    +0.140 C 
ENDBRANCH  23  25
ENDBRANCH  21  23
ENDBRANCH  20  21
ENDBRANCH  19  20
ENDBRANCH   1  19
TORSDOF 6
ENDMDL
MODEL 7
REMARK VINA RESULT:     -11.1      4.219      9.522
REMARK  Name = 3168
REMARK  6 active torsions:
REMARK  status: ('A' for Active; 'I' for Inactive)
REMARK    1  A    between atoms: N_1  and  C_19
REMARK    2  A    between atoms: C_5  and  N_9
REMARK    3  A    between atoms: C_19  and  C_20
REMARK    4  A    between atoms: C_20  and  C_21
REMARK    5  A    between atoms: C_21  and  C_23
REMARK    6  A    between atoms: C_23  and  C_25
REMARK                            x       y       z     vdW  Elec       q    Type
REMARK                         _______ _______ _______ _____ _____    ______ ____
ROOT
ATOM      1  N   UNL     1      34.897 -15.865 -24.079  0.00  0.00    +0.390 N 
ATOM      2  C   UNL     1      34.738 -15.385 -22.701  0.00  0.00    -0.071 C 
ATOM      3  C   UNL     1      35.565 -16.251 -21.737  0.00  0.00    +0.021 C 
ATOM      4  C   UNL     1      34.384 -17.238 -24.219  0.00  0.00    -0.049 C 
ATOM      5  C   UNL     1      35.408 -17.722 -22.002  0.00  0.00    +0.037 C 
ATOM      6  C   UNL     1      34.851 -18.171 -23.136  0.00  0.00    -0.036 C 
ATOM      7  H   UNL     1      35.894 -15.872 -24.294  0.00  0.00    -0.079 HD
ENDROOT
BRANCH   5   9
ATOM      8  O   UNL     1      38.206 -18.216 -21.062  0.00  0.00    -0.246 OA
ATOM      9  N   UNL     1      35.842 -18.579 -21.031  0.00  0.00    -0.263 N 
ATOM     10  N   UNL     1      37.171 -19.748 -19.594  0.00  0.00    -0.305 N 
ATOM     11  C   UNL     1      35.029 -19.426 -20.255  0.00  0.00    +0.083 A 
ATOM     12  C   UNL     1      37.205 -18.769 -20.626  0.00  0.00    +0.332 A 
ATOM     13  C   UNL     1      35.850 -20.136 -19.381  0.00  0.00    +0.076 A 
ATOM     14  C   UNL     1      33.661 -19.614 -20.260  0.00  0.00    +0.019 C 
ATOM     15  C   UNL     1      35.357 -21.055 -18.481  0.00  0.00    +0.019 C 
ATOM     16  C   UNL     1      33.136 -20.543 -19.355  0.00  0.00    +0.002 C 
ATOM     17  C   UNL     1      33.976 -21.256 -18.475  0.00  0.00    +0.002 C 
ATOM     18  H   UNL     1      37.954 -20.095 -19.109  0.00  0.00    +0.170 HD
ENDBRANCH   5   9
BRANCH   1  19
ATOM     19  C   UNL     1      34.238 -14.968 -25.027  0.00  0.00    -0.076 C 
BRANCH  19  20
ATOM     20  C   UNL     1      33.481 -13.871 -24.277  0.00  0.00    -0.015 C 
BRANCH  20  21
ATOM     21  C   UNL     1      33.853 -12.468 -24.767  0.00  0.00    +0.067 C 
BRANCH  21  23
ATOM     22  O   UNL     1      33.810 -11.746 -22.464  0.00  0.00    -0.291 OA
ATOM     23  C   UNL     1      34.032 -11.462 -23.639  0.00  0.00    +0.173 C 
BRANCH  23  25
ATOM     24  F   UNL     1      35.833  -6.328 -24.894  0.00  0.00    -0.204 F 
ATOM     25  C   UNL     1      34.511 -10.091 -23.974  0.00  0.00    +0.035 C 
ATOM     26  C   UNL     1      35.309  -9.923 -25.084  0.00  0.00    +0.005 C 
ATOM     27  C   UNL     1      34.141  -9.043 -23.162  0.00  0.00    +0.005 C 
ATOM     28  C   UNL     1      35.760  -8.641 -25.397  0.00  0.00    +0.030 C 
ATOM     29  C   UNL     1      34.591  -7.760 -23.474  0.00  0.00    +0.030 C 
ATOM     30  C   UNL     1      35.401  -7.559 -24.593  0.00  0.00    +0.140 C 
ENDBRANCH  23  25
ENDBRANCH  21  23
ENDBRANCH  20  21
ENDBRANCH  19  20
ENDBRANCH   1  19
TORSDOF 6
ENDMDL
MODEL 8
REMARK VINA RESULT:     -11.0      5.314     10.846
REMARK  Name = 3168
REMARK  6 active torsions:
REMARK  status: ('A' for Active; 'I' for Inactive)
REMARK    1  A    between atoms: N_1  and  C_19
REMARK    2  A    between atoms: C_5  and  N_9
REMARK    3  A    between atoms: C_19  and  C_20
REMARK    4  A    between atoms: C_20  and  C_21
REMARK    5  A    between atoms: C_21  and  C_23
REMARK    6  A    between atoms: C_23  and  C_25
REMARK                            x       y       z     vdW  Elec       q    Type
REMARK                         _______ _______ _______ _____ _____    ______ ____
ROOT
ATOM      1  N   UNL     1      35.252 -20.513 -18.683  0.00  0.00    +0.390 N 
ATOM      2  C   UNL     1      34.377 -21.657 -18.967  0.00  0.00    -0.071 C 
ATOM      3  C   UNL     1      33.739 -22.176 -17.669  0.00  0.00    +0.021 C 
ATOM      4  C   UNL     1      36.368 -20.912 -17.809  0.00  0.00    -0.049 C 
ATOM      5  C   UNL     1      34.731 -22.300 -16.547  0.00  0.00    +0.037 C 
ATOM      6  C   UNL     1      35.943 -21.731 -16.621  0.00  0.00    -0.036 C 
ATOM      7  H   UNL     1      34.698 -19.810 -18.194  0.00  0.00    -0.079 HD
ENDROOT
BRANCH   5   9
ATOM      8  O   UNL     1      36.354 -24.223 -14.928  0.00  0.00    -0.246 OA
ATOM      9  N   UNL     1      34.350 -23.030 -15.457  0.00  0.00    -0.263 N 
ATOM     10  N   UNL     1      34.363 -24.460 -13.683  0.00  0.00    -0.305 N 
ATOM     11  C   UNL     1      33.074 -23.019 -14.862  0.00  0.00    +0.083 A 
ATOM     12  C   UNL     1      35.182 -23.938 -14.723  0.00  0.00    +0.332 A 
ATOM     13  C   UNL     1      33.093 -23.897 -13.779  0.00  0.00    +0.076 A 
ATOM     14  C   UNL     1      31.933 -22.317 -15.192  0.00  0.00    +0.019 C 
ATOM     15  C   UNL     1      31.991 -24.115 -12.982  0.00  0.00    +0.019 C 
ATOM     16  C   UNL     1      30.799 -22.523 -14.397  0.00  0.00    +0.002 C 
ATOM     17  C   UNL     1      30.829 -23.412 -13.304  0.00  0.00    +0.002 C 
ATOM     18  H   UNL     1      34.648 -25.115 -13.004  0.00  0.00    +0.170 HD
ENDBRANCH   5   9
BRANCH   1  19
ATOM     19  C   UNL     1      35.752 -19.913 -19.919  0.00  0.00    -0.076 C 
BRANCH  19  20
ATOM     20  C   UNL     1      34.660 -19.065 -20.573  0.00  0.00    -0.015 C 
BRANCH  20  21
ATOM     21  C   UNL     1      34.939 -18.801 -22.056  0.00  0.00    +0.067 C 
BRANCH  21  23
ATOM     22  O   UNL     1      37.036 -17.605 -22.067  0.00  0.00    -0.291 OA
ATOM     23  C   UNL     1      35.829 -17.590 -22.297  0.00  0.00    +0.173 C 
BRANCH  23  25
ATOM     24  F   UNL     1      33.517 -12.945 -24.358  0.00  0.00    -0.204 F 
ATOM     25  C   UNL     1      35.213 -16.349 -22.848  0.00  0.00    +0.035 C 
ATOM     26  C   UNL     1      35.162 -15.227 -22.052  0.00  0.00    +0.005 C 
ATOM     27  C   UNL     1      34.715 -16.372 -24.132  0.00  0.00    +0.005 C 
ATOM     28  C   UNL     1      34.584 -14.066 -22.567  0.00  0.00    +0.030 C 
ATOM     29  C   UNL     1      34.137 -15.212 -24.647  0.00  0.00    +0.030 C 
ATOM     30  C   UNL     1      34.071 -14.059 -23.864  0.00  0.00    +0.140 C 
ENDBRANCH  23  25
ENDBRANCH  21  23
ENDBRANCH  20  21
ENDBRANCH  19  20
ENDBRANCH   1  19
TORSDOF 6
ENDMDL
MODEL 9
REMARK VINA RESULT:     -10.8      3.272      5.518
REMARK  Name = 3168
REMARK  6 active torsions:
REMARK  status: ('A' for Active; 'I' for Inactive)
REMARK    1  A    between atoms: N_1  and  C_19
REMARK    2  A    between atoms: C_5  and  N_9
REMARK    3  A    between atoms: C_19  and  C_20
REMARK    4  A    between atoms: C_20  and  C_21
REMARK    5  A    between atoms: C_21  and  C_23
REMARK    6  A    between atoms: C_23  and  C_25
REMARK                            x       y       z     vdW  Elec       q    Type
REMARK                         _______ _______ _______ _____ _____    ______ ____
ROOT
ATOM      1  N   UNL     1      36.125 -19.531 -20.572  0.00  0.00    +0.390 N 
ATOM      2  C   UNL     1      34.704 -19.176 -20.473  0.00  0.00    -0.071 C 
ATOM      3  C   UNL     1      34.238 -18.479 -21.761  0.00  0.00    +0.021 C 
ATOM      4  C   UNL     1      36.958 -18.324 -20.709  0.00  0.00    -0.049 C 
ATOM      5  C   UNL     1      35.204 -17.427 -22.231  0.00  0.00    +0.037 C 
ATOM      6  C   UNL     1      36.447 -17.349 -21.733  0.00  0.00    -0.036 C 
ATOM      7  H   UNL     1      36.247 -20.101 -21.409  0.00  0.00    -0.079 HD
ENDROOT
BRANCH   5   9
ATOM      8  O   UNL     1      34.348 -17.974 -25.045  0.00  0.00    -0.246 OA
ATOM      9  N   UNL     1      34.754 -16.545 -23.171  0.00  0.00    -0.263 N 
ATOM     10  N   UNL     1      33.967 -15.646 -25.112  0.00  0.00    -0.305 N 
ATOM     11  C   UNL     1      34.600 -15.157 -22.994  0.00  0.00    +0.083 A 
ATOM     12  C   UNL     1      34.358 -16.874 -24.509  0.00  0.00    +0.332 A 
ATOM     13  C   UNL     1      34.119 -14.617 -24.185  0.00  0.00    +0.076 A 
ATOM     14  C   UNL     1      34.844 -14.357 -21.896  0.00  0.00    +0.019 C 
ATOM     15  C   UNL     1      33.861 -13.273 -24.341  0.00  0.00    +0.019 C 
ATOM     16  C   UNL     1      34.590 -12.987 -22.028  0.00  0.00    +0.002 C 
ATOM     17  C   UNL     1      34.103 -12.452 -23.238  0.00  0.00    +0.002 C 
ATOM     18  H   UNL     1      33.642 -15.540 -26.036  0.00  0.00    +0.170 HD
ENDBRANCH   5   9
BRANCH   1  19
ATOM     19  C   UNL     1      36.550 -20.325 -19.420  0.00  0.00    -0.076 C 
BRANCH  19  20
ATOM     20  C   UNL     1      35.553 -21.457 -19.163  0.00  0.00    -0.015 C 
BRANCH  20  21
ATOM     21  C   UNL     1      35.154 -21.555 -17.688  0.00  0.00    +0.067 C 
BRANCH  21  23
ATOM     22  O   UNL     1      32.833 -21.718 -18.333  0.00  0.00    -0.291 OA
ATOM     23  C   UNL     1      33.693 -21.931 -17.481  0.00  0.00    +0.173 C 
BRANCH  23  25
ATOM     24  F   UNL     1      32.221 -24.425 -12.707  0.00  0.00    -0.204 F 
ATOM     25  C   UNL     1      33.301 -22.599 -16.207  0.00  0.00    +0.035 C 
ATOM     26  C   UNL     1      31.962 -22.723 -15.912  0.00  0.00    +0.005 C 
ATOM     27  C   UNL     1      34.291 -23.064 -15.372  0.00  0.00    +0.005 C 
ATOM     28  C   UNL     1      31.594 -23.346 -14.719  0.00  0.00    +0.030 C 
ATOM     29  C   UNL     1      33.924 -23.686 -14.178  0.00  0.00    +0.030 C 
ATOM     30  C   UNL     1      32.574 -23.827 -13.852  0.00  0.00    +0.140 C 
ENDBRANCH  23  25
ENDBRANCH  21  23
ENDBRANCH  20  21
ENDBRANCH  19  20
ENDBRANCH   1  19
TORSDOF 6
ENDMDL
