MODEL 1
REMARK VINA RESULT:     -12.8      0.000      0.000
REMARK  Name = 448407
REMARK  4 active torsions:
REMARK  status: ('A' for Active; 'I' for Inactive)
REMARK    1  A    between atoms: C_1  and  N_8
REMARK    2  A    between atoms: C_2  and  C_23
REMARK    3  A    between atoms: N_22  and  C_25
REMARK    4  A    between atoms: C_25  and  C_28
REMARK                            x       y       z     vdW  Elec       q    Type
REMARK                         _______ _______ _______ _____ _____    ______ ____
ROOT
ATOM      1  C   UNL     1      35.901 -18.365 -20.818  0.00  0.00    +0.090 C 
ATOM      2  C   UNL     1      34.882 -20.144 -19.506  0.00  0.00    +0.055 C 
ATOM      3  C   UNL     1      34.763 -19.067 -20.383  0.00  0.00    +0.023 C 
ATOM      4  C   UNL     1      37.161 -18.775 -20.350  0.00  0.00    +0.018 C 
ATOM      5  C   UNL     1      36.140 -20.537 -19.051  0.00  0.00    +0.005 C 
ATOM      6  C   UNL     1      37.280 -19.853 -19.473  0.00  0.00    +0.002 C 
ENDROOT
BRANCH   1   8
ATOM      7  O   UNL     1      34.656 -13.328 -21.090  0.00  0.00    -0.207 OA
ATOM      8  N   UNL     1      35.783 -17.292 -21.694  0.00  0.00    -0.137 N 
ATOM      9  N   UNL     1      35.335 -17.383 -22.974  0.00  0.00    -0.215 N 
ATOM     10  N   UNL     1      35.550 -16.026 -21.162  0.00  0.00    -0.143 NA
ATOM     11  N   UNL     1      34.235 -15.671 -24.355  0.00  0.00    -0.309 NA
ATOM     12  N   UNL     1      33.911 -13.537 -23.275  0.00  0.00    -0.251 NA
ATOM     13  N   UNL     1      33.206 -13.859 -25.454  0.00  0.00    -0.283 N 
ATOM     14  C   UNL     1      34.796 -16.190 -23.326  0.00  0.00    +0.243 C 
ATOM     15  C   UNL     1      34.969 -15.369 -22.117  0.00  0.00    +0.241 C 
ATOM     16  C   UNL     1      34.496 -13.978 -22.113  0.00  0.00    +0.239 C 
ATOM     17  C   UNL     1      33.798 -14.345 -24.311  0.00  0.00    +0.208 C 
ATOM     18  H   UNL     1      35.391 -18.181 -23.549  0.00  0.00    +0.175 HD
ATOM     19  H   UNL     1      33.108 -14.440 -26.244  0.00  0.00    +0.156 HD
ATOM     20  H   UNL     1      32.879 -12.931 -25.482  0.00  0.00    +0.156 HD
ENDBRANCH   1   8
BRANCH   2  23
ATOM     21  O   UNL     1      32.687 -20.918 -19.796  0.00  0.00    -0.270 OA
ATOM     22  N   UNL     1      33.755 -21.485 -17.816  0.00  0.00    -0.297 N 
ATOM     23  C   UNL     1      33.694 -20.860 -19.067  0.00  0.00    +0.246 C 
ATOM     24  H   UNL     1      34.583 -21.398 -17.292  0.00  0.00    +0.150 HD
BRANCH  22  25
ATOM     25  C   UNL     1      32.666 -22.251 -17.254  0.00  0.00    +0.117 C 
BRANCH  25  28
ATOM     26 CL   UNL     1      36.116 -23.030 -13.441  0.00  0.00    -0.082 Cl
ATOM     27 CL   UNL     1      30.845 -23.890 -12.667  0.00  0.00    -0.082 Cl
ATOM     28  C   UNL     1      32.941 -22.660 -15.835  0.00  0.00    -0.001 C 
ATOM     29  C   UNL     1      31.887 -23.039 -15.011  0.00  0.00    +0.009 C 
ATOM     30  C   UNL     1      34.247 -22.655 -15.359  0.00  0.00    +0.009 C 
ATOM     31  C   UNL     1      34.503 -23.034 -14.041  0.00  0.00    +0.058 C 
ATOM     32  C   UNL     1      32.142 -23.418 -13.694  0.00  0.00    +0.058 C 
ATOM     33  C   UNL     1      33.450 -23.415 -13.208  0.00  0.00    +0.023 C 
ENDBRANCH  25  28
ENDBRANCH  22  25
ENDBRANCH   2  23
TORSDOF 4
ENDMDL
MODEL 2
REMARK VINA RESULT:     -12.7      4.767     10.376
REMARK  Name = 448407
REMARK  4 active torsions:
REMARK  status: ('A' for Active; 'I' for Inactive)
REMARK    1  A    between atoms: C_1  and  N_8
REMARK    2  A    between atoms: C_2  and  C_23
REMARK    3  A    between atoms: N_22  and  C_25
REMARK    4  A    between atoms: C_25  and  C_28
REMARK                            x       y       z     vdW  Elec       q    Type
REMARK                         _______ _______ _______ _____ _____    ______ ____
ROOT
ATOM      1  C   UNL     1      35.005 -21.753 -17.195  0.00  0.00    +0.090 C 
ATOM      2  C   UNL     1      35.202 -20.341 -19.168  0.00  0.00    +0.055 C 
ATOM      3  C   UNL     1      35.786 -20.990 -18.080  0.00  0.00    +0.023 C 
ATOM      4  C   UNL     1      33.622 -21.848 -17.431  0.00  0.00    +0.018 C 
ATOM      5  C   UNL     1      33.829 -20.445 -19.387  0.00  0.00    +0.005 C 
ATOM      6  C   UNL     1      33.039 -21.199 -18.519  0.00  0.00    +0.002 C 
ENDROOT
BRANCH   1   8
ATOM      7  O   UNL     1      34.025 -23.646 -12.456  0.00  0.00    -0.207 OA
ATOM      8  N   UNL     1      35.587 -22.401 -16.111  0.00  0.00    -0.137 N 
ATOM      9  N   UNL     1      36.853 -22.184 -15.669  0.00  0.00    -0.215 N 
ATOM     10  N   UNL     1      34.758 -22.849 -15.085  0.00  0.00    -0.143 NA
ATOM     11  N   UNL     1      37.774 -22.478 -13.407  0.00  0.00    -0.309 NA
ATOM     12  N   UNL     1      36.200 -23.261 -11.754  0.00  0.00    -0.251 NA
ATOM     13  N   UNL     1      38.397 -22.844 -11.165  0.00  0.00    -0.283 N 
ATOM     14  C   UNL     1      36.902 -22.479 -14.346  0.00  0.00    +0.243 C 
ATOM     15  C   UNL     1      35.525 -22.899 -14.040  0.00  0.00    +0.241 C 
ATOM     16  C   UNL     1      35.179 -23.306 -12.672  0.00  0.00    +0.239 C 
ATOM     17  C   UNL     1      37.406 -22.871 -12.118  0.00  0.00    +0.208 C 
ATOM     18  H   UNL     1      37.608 -21.866 -16.215  0.00  0.00    +0.175 HD
ATOM     19  H   UNL     1      39.307 -22.556 -11.408  0.00  0.00    +0.156 HD
ATOM     20  H   UNL     1      38.197 -23.110 -10.238  0.00  0.00    +0.156 HD
ENDBRANCH   1   8
BRANCH   2  23
ATOM     21  O   UNL     1      37.227 -19.356 -19.822  0.00  0.00    -0.270 OA
ATOM     22  N   UNL     1      35.409 -19.073 -21.235  0.00  0.00    -0.297 N 
ATOM     23  C   UNL     1      36.025 -19.557 -20.075  0.00  0.00    +0.246 C 
ATOM     24  H   UNL     1      34.455 -19.270 -21.371  0.00  0.00    +0.150 HD
BRANCH  22  25
ATOM     25  C   UNL     1      36.099 -18.300 -22.241  0.00  0.00    +0.117 C 
BRANCH  25  28
ATOM     26 CL   UNL     1      34.794 -13.760 -20.068  0.00  0.00    -0.082 Cl
ATOM     27 CL   UNL     1      33.940 -14.701 -25.312  0.00  0.00    -0.082 Cl
ATOM     28  C   UNL     1      35.514 -16.925 -22.393  0.00  0.00    -0.001 C 
ATOM     29  C   UNL     1      35.055 -16.506 -23.637  0.00  0.00    +0.009 C 
ATOM     30  C   UNL     1      35.436 -16.085 -21.288  0.00  0.00    +0.009 C 
ATOM     31  C   UNL     1      34.893 -14.808 -21.429  0.00  0.00    +0.058 C 
ATOM     32  C   UNL     1      34.511 -15.230 -23.778  0.00  0.00    +0.058 C 
ATOM     33  C   UNL     1      34.431 -14.380 -22.674  0.00  0.00    +0.023 C 
ENDBRANCH  25  28
ENDBRANCH  22  25
ENDBRANCH   2  23
TORSDOF 4
ENDMDL
MODEL 3
REMARK VINA RESULT:     -12.6      4.770     10.398
REMARK  Name = 448407
REMARK  4 active torsions:
REMARK  status: ('A' for Active; 'I' for Inactive)
REMARK    1  A    between atoms: C_1  and  N_8
REMARK    2  A    between atoms: C_2  and  C_23
REMARK    3  A    between atoms: N_22  and  C_25
REMARK    4  A    between atoms: C_25  and  C_28
REMARK                            x       y       z     vdW  Elec       q    Type
REMARK                         _______ _______ _______ _____ _____    ______ ____
ROOT
ATOM      1  C   UNL     1      35.020 -21.691 -17.292  0.00  0.00    +0.090 C 
ATOM      2  C   UNL     1      35.280 -20.266 -19.248  0.00  0.00    +0.055 C 
ATOM      3  C   UNL     1      35.829 -20.920 -18.145  0.00  0.00    +0.023 C 
ATOM      4  C   UNL     1      33.647 -21.789 -17.576  0.00  0.00    +0.018 C 
ATOM      5  C   UNL     1      33.916 -20.374 -19.516  0.00  0.00    +0.005 C 
ATOM      6  C   UNL     1      33.099 -21.136 -18.680  0.00  0.00    +0.002 C 
ENDROOT
BRANCH   1   8
ATOM      7  O   UNL     1      33.896 -23.575 -12.582  0.00  0.00    -0.207 OA
ATOM      8  N   UNL     1      35.567 -22.344 -16.193  0.00  0.00    -0.137 N 
ATOM      9  N   UNL     1      36.823 -22.136 -15.716  0.00  0.00    -0.215 N 
ATOM     10  N   UNL     1      34.708 -22.785 -15.190  0.00  0.00    -0.143 NA
ATOM     11  N   UNL     1      37.679 -22.438 -13.430  0.00  0.00    -0.309 NA
ATOM     12  N   UNL     1      36.054 -23.208 -11.820  0.00  0.00    -0.251 NA
ATOM     13  N   UNL     1      38.238 -22.807 -11.171  0.00  0.00    -0.283 N 
ATOM     14  C   UNL     1      36.833 -22.432 -14.392  0.00  0.00    +0.243 C 
ATOM     15  C   UNL     1      35.445 -22.841 -14.125  0.00  0.00    +0.241 C 
ATOM     16  C   UNL     1      35.058 -23.244 -12.766  0.00  0.00    +0.239 C 
ATOM     17  C   UNL     1      37.272 -22.827 -12.152  0.00  0.00    +0.208 C 
ATOM     18  H   UNL     1      37.595 -21.824 -16.241  0.00  0.00    +0.175 HD
ATOM     19  H   UNL     1      39.156 -22.527 -11.389  0.00  0.00    +0.156 HD
ATOM     20  H   UNL     1      38.010 -23.072 -10.251  0.00  0.00    +0.156 HD
ENDBRANCH   1   8
BRANCH   2  23
ATOM     21  O   UNL     1      37.358 -19.417 -19.925  0.00  0.00    -0.270 OA
ATOM     22  N   UNL     1      35.508 -18.811 -21.186  0.00  0.00    -0.297 N 
ATOM     23  C   UNL     1      36.131 -19.473 -20.122  0.00  0.00    +0.246 C 
ATOM     24  H   UNL     1      34.533 -18.899 -21.282  0.00  0.00    +0.150 HD
BRANCH  22  25
ATOM     25  C   UNL     1      36.220 -18.005 -22.151  0.00  0.00    +0.117 C 
BRANCH  25  28
ATOM     26 CL   UNL     1      33.884 -14.728 -25.444  0.00  0.00    -0.082 Cl
ATOM     27 CL   UNL     1      34.572 -13.457 -20.245  0.00  0.00    -0.082 Cl
ATOM     28  C   UNL     1      35.547 -16.683 -22.385  0.00  0.00    -0.001 C 
ATOM     29  C   UNL     1      35.392 -15.793 -21.328  0.00  0.00    +0.009 C 
ATOM     30  C   UNL     1      35.086 -16.363 -23.656  0.00  0.00    +0.009 C 
ATOM     31  C   UNL     1      34.460 -15.135 -23.875  0.00  0.00    +0.058 C 
ATOM     32  C   UNL     1      34.768 -14.566 -21.546  0.00  0.00    +0.058 C 
ATOM     33  C   UNL     1      34.301 -14.236 -22.819  0.00  0.00    +0.023 C 
ENDBRANCH  25  28
ENDBRANCH  22  25
ENDBRANCH   2  23
TORSDOF 4
ENDMDL
MODEL 4
REMARK VINA RESULT:     -12.5      5.522     10.268
REMARK  Name = 448407
REMARK  4 active torsions:
REMARK  status: ('A' for Active; 'I' for Inactive)
REMARK    1  A    between atoms: C_1  and  N_8
REMARK    2  A    between atoms: C_2  and  C_23
REMARK    3  A    between atoms: N_22  and  C_25
REMARK    4  A    between atoms: C_25  and  C_28
REMARK                            x       y       z     vdW  Elec       q    Type
REMARK                         _______ _______ _______ _____ _____    ______ ____
ROOT
ATOM      1  C   UNL     1      33.179 -23.835 -13.395  0.00  0.00    +0.090 C 
ATOM      2  C   UNL     1      31.683 -22.817 -15.023  0.00  0.00    +0.055 C 
ATOM      3  C   UNL     1      32.969 -23.175 -14.618  0.00  0.00    +0.023 C 
ATOM      4  C   UNL     1      32.065 -24.127 -12.590  0.00  0.00    +0.018 C 
ATOM      5  C   UNL     1      30.588 -23.115 -14.211  0.00  0.00    +0.005 C 
ATOM      6  C   UNL     1      30.780 -23.770 -12.995  0.00  0.00    +0.002 C 
ENDROOT
BRANCH   1   8
ATOM      7  O   UNL     1      37.207 -22.317 -10.486  0.00  0.00    -0.207 OA
ATOM      8  N   UNL     1      34.461 -24.193 -12.992  0.00  0.00    -0.137 N 
ATOM      9  N   UNL     1      35.376 -24.812 -13.784  0.00  0.00    -0.215 N 
ATOM     10  N   UNL     1      35.076 -23.440 -11.995  0.00  0.00    -0.143 NA
ATOM     11  N   UNL     1      37.831 -24.749 -13.651  0.00  0.00    -0.309 NA
ATOM     12  N   UNL     1      38.727 -23.396 -11.864  0.00  0.00    -0.251 NA
ATOM     13  N   UNL     1      40.150 -24.517 -13.302  0.00  0.00    -0.283 N 
ATOM     14  C   UNL     1      36.616 -24.490 -13.338  0.00  0.00    +0.243 C 
ATOM     15  C   UNL     1      36.347 -23.609 -12.191  0.00  0.00    +0.241 C 
ATOM     16  C   UNL     1      37.470 -23.046 -11.431  0.00  0.00    +0.239 C 
ATOM     17  C   UNL     1      38.873 -24.193 -12.904  0.00  0.00    +0.208 C 
ATOM     18  H   UNL     1      35.174 -25.395 -14.551  0.00  0.00    +0.175 HD
ATOM     19  H   UNL     1      40.290 -25.110 -14.076  0.00  0.00    +0.156 HD
ATOM     20  H   UNL     1      40.924 -24.155 -12.813  0.00  0.00    +0.156 HD
ENDBRANCH   1   8
BRANCH   2  23
ATOM     21  O   UNL     1      30.350 -21.745 -16.626  0.00  0.00    -0.270 OA
ATOM     22  N   UNL     1      32.615 -21.930 -17.088  0.00  0.00    -0.297 N 
ATOM     23  C   UNL     1      31.482 -22.136 -16.292  0.00  0.00    +0.246 C 
ATOM     24  H   UNL     1      33.480 -22.267 -16.763  0.00  0.00    +0.150 HD
BRANCH  22  25
ATOM     25  C   UNL     1      32.581 -21.250 -18.363  0.00  0.00    +0.117 C 
BRANCH  25  28
ATOM     26 CL   UNL     1      35.513 -18.520 -21.678  0.00  0.00    -0.082 Cl
ATOM     27 CL   UNL     1      37.721 -21.236 -17.571  0.00  0.00    -0.082 Cl
ATOM     28  C   UNL     1      33.945 -20.787 -18.789  0.00  0.00    -0.001 C 
ATOM     29  C   UNL     1      35.063 -21.182 -18.064  0.00  0.00    +0.009 C 
ATOM     30  C   UNL     1      34.075 -19.967 -19.904  0.00  0.00    +0.009 C 
ATOM     31  C   UNL     1      35.341 -19.536 -20.300  0.00  0.00    +0.058 C 
ATOM     32  C   UNL     1      36.329 -20.752 -18.460  0.00  0.00    +0.058 C 
ATOM     33  C   UNL     1      36.469 -19.928 -19.578  0.00  0.00    +0.023 C 
ENDBRANCH  25  28
ENDBRANCH  22  25
ENDBRANCH   2  23
TORSDOF 4
ENDMDL
MODEL 5
REMARK VINA RESULT:     -12.4      4.137      9.810
REMARK  Name = 448407
REMARK  4 active torsions:
REMARK  status: ('A' for Active; 'I' for Inactive)
REMARK    1  A    between atoms: C_1  and  N_8
REMARK    2  A    between atoms: C_2  and  C_23
REMARK    3  A    between atoms: N_22  and  C_25
REMARK    4  A    between atoms: C_25  and  C_28
REMARK                            x       y       z     vdW  Elec       q    Type
REMARK                         _______ _______ _______ _____ _____    ______ ____
ROOT
ATOM      1  C   UNL     1      34.544 -21.480 -17.962  0.00  0.00    +0.090 C 
ATOM      2  C   UNL     1      35.056 -20.048 -19.863  0.00  0.00    +0.055 C 
ATOM      3  C   UNL     1      34.151 -20.827 -19.144  0.00  0.00    +0.023 C 
ATOM      4  C   UNL     1      35.871 -21.328 -17.522  0.00  0.00    +0.018 C 
ATOM      5  C   UNL     1      36.368 -19.908 -19.412  0.00  0.00    +0.005 C 
ATOM      6  C   UNL     1      36.775 -20.548 -18.241  0.00  0.00    +0.002 C 
ENDROOT
BRANCH   1   8
ATOM      7  O   UNL     1      29.559 -21.829 -16.543  0.00  0.00    -0.207 OA
ATOM      8  N   UNL     1      33.642 -22.256 -17.244  0.00  0.00    -0.137 N 
ATOM      9  N   UNL     1      33.928 -22.900 -16.083  0.00  0.00    -0.215 N 
ATOM     10  N   UNL     1      32.286 -21.949 -17.336  0.00  0.00    -0.143 NA
ATOM     11  N   UNL     1      32.414 -23.540 -14.253  0.00  0.00    -0.309 NA
ATOM     12  N   UNL     1      30.101 -22.932 -14.578  0.00  0.00    -0.251 NA
ATOM     13  N   UNL     1      30.756 -24.035 -12.654  0.00  0.00    -0.283 N 
ATOM     14  C   UNL     1      32.779 -23.039 -15.375  0.00  0.00    +0.243 C 
ATOM     15  C   UNL     1      31.769 -22.408 -16.238  0.00  0.00    +0.241 C 
ATOM     16  C   UNL     1      30.368 -22.363 -15.800  0.00  0.00    +0.239 C 
ATOM     17  C   UNL     1      31.072 -23.476 -13.871  0.00  0.00    +0.208 C 
ATOM     18  H   UNL     1      34.818 -23.213 -15.802  0.00  0.00    +0.175 HD
ATOM     19  H   UNL     1      31.461 -24.449 -12.104  0.00  0.00    +0.156 HD
ATOM     20  H   UNL     1      29.826 -24.020 -12.332  0.00  0.00    +0.156 HD
ENDBRANCH   1   8
BRANCH   2  23
ATOM     21  O   UNL     1      33.423 -19.272 -21.356  0.00  0.00    -0.270 OA
ATOM     22  N   UNL     1      35.638 -18.854 -21.903  0.00  0.00    -0.297 N 
ATOM     23  C   UNL     1      34.632 -19.379 -21.083  0.00  0.00    +0.246 C 
ATOM     24  H   UNL     1      36.574 -18.976 -21.626  0.00  0.00    +0.150 HD
BRANCH  22  25
ATOM     25  C   UNL     1      35.375 -18.143 -23.133  0.00  0.00    +0.117 C 
BRANCH  25  28
ATOM     26 CL   UNL     1      33.718 -13.582 -25.001  0.00  0.00    -0.082 Cl
ATOM     27 CL   UNL     1      35.131 -14.140 -19.823  0.00  0.00    -0.082 Cl
ATOM     28  C   UNL     1      35.054 -16.697 -22.889  0.00  0.00    -0.001 C 
ATOM     29  C   UNL     1      35.222 -16.159 -21.618  0.00  0.00    +0.009 C 
ATOM     30  C   UNL     1      34.591 -15.909 -23.937  0.00  0.00    +0.009 C 
ATOM     31  C   UNL     1      34.292 -14.566 -23.711  0.00  0.00    +0.058 C 
ATOM     32  C   UNL     1      34.925 -14.816 -21.392  0.00  0.00    +0.058 C 
ATOM     33  C   UNL     1      34.459 -14.018 -22.439  0.00  0.00    +0.023 C 
ENDBRANCH  25  28
ENDBRANCH  22  25
ENDBRANCH   2  23
TORSDOF 4
ENDMDL
MODEL 6
REMARK VINA RESULT:     -12.2      4.929     10.498
REMARK  Name = 448407
REMARK  4 active torsions:
REMARK  status: ('A' for Active; 'I' for Inactive)
REMARK    1  A    between atoms: C_1  and  N_8
REMARK    2  A    between atoms: C_2  and  C_23
REMARK    3  A    between atoms: N_22  and  C_25
REMARK    4  A    between atoms: C_25  and  C_28
REMARK                            x       y       z     vdW  Elec       q    Type
REMARK                         _______ _______ _______ _____ _____    ______ ____
ROOT
ATOM      1  C   UNL     1      35.238 -21.639 -17.046  0.00  0.00    +0.090 C 
ATOM      2  C   UNL     1      35.435 -20.397 -19.131  0.00  0.00    +0.055 C 
ATOM      3  C   UNL     1      36.000 -20.875 -17.948  0.00  0.00    +0.023 C 
ATOM      4  C   UNL     1      33.896 -21.911 -17.364  0.00  0.00    +0.018 C 
ATOM      5  C   UNL     1      34.102 -20.676 -19.430  0.00  0.00    +0.005 C 
ATOM      6  C   UNL     1      33.333 -21.433 -18.547  0.00  0.00    +0.002 C 
ENDROOT
BRANCH   1   8
ATOM      7  O   UNL     1      39.673 -23.333 -14.935  0.00  0.00    -0.207 OA
ATOM      8  N   UNL     1      35.801 -22.116 -15.868  0.00  0.00    -0.137 N 
ATOM      9  N   UNL     1      35.168 -22.933 -14.984  0.00  0.00    -0.215 N 
ATOM     10  N   UNL     1      37.183 -22.279 -15.813  0.00  0.00    -0.143 NA
ATOM     11  N   UNL     1      36.137 -24.552 -13.407  0.00  0.00    -0.309 NA
ATOM     12  N   UNL     1      38.545 -24.704 -13.444  0.00  0.00    -0.251 NA
ATOM     13  N   UNL     1      37.317 -26.025 -11.996  0.00  0.00    -0.283 N 
ATOM     14  C   UNL     1      36.105 -23.655 -14.322  0.00  0.00    +0.243 C 
ATOM     15  C   UNL     1      37.372 -23.184 -14.903  0.00  0.00    +0.241 C 
ATOM     16  C   UNL     1      38.642 -23.749 -14.427  0.00  0.00    +0.239 C 
ATOM     17  C   UNL     1      37.365 -25.065 -12.982  0.00  0.00    +0.208 C 
ATOM     18  H   UNL     1      34.195 -22.991 -14.848  0.00  0.00    +0.175 HD
ATOM     19  H   UNL     1      36.449 -26.315 -11.632  0.00  0.00    +0.156 HD
ATOM     20  H   UNL     1      38.151 -26.423 -11.656  0.00  0.00    +0.156 HD
ENDBRANCH   1   8
BRANCH   2  23
ATOM     21  O   UNL     1      37.459 -19.466 -19.864  0.00  0.00    -0.270 OA
ATOM     22  N   UNL     1      35.577 -19.052 -21.155  0.00  0.00    -0.297 N 
ATOM     23  C   UNL     1      36.238 -19.609 -20.053  0.00  0.00    +0.246 C 
ATOM     24  H   UNL     1      34.609 -19.204 -21.242  0.00  0.00    +0.150 HD
BRANCH  22  25
ATOM     25  C   UNL     1      36.240 -18.265 -22.169  0.00  0.00    +0.117 C 
BRANCH  25  28
ATOM     26 CL   UNL     1      34.765 -13.747 -20.060  0.00  0.00    -0.082 Cl
ATOM     27 CL   UNL     1      33.943 -14.797 -25.289  0.00  0.00    -0.082 Cl
ATOM     28  C   UNL     1      35.603 -16.916 -22.340  0.00  0.00    -0.001 C 
ATOM     29  C   UNL     1      35.128 -16.533 -23.589  0.00  0.00    +0.009 C 
ATOM     30  C   UNL     1      35.495 -16.064 -21.247  0.00  0.00    +0.009 C 
ATOM     31  C   UNL     1      34.903 -14.810 -21.405  0.00  0.00    +0.058 C 
ATOM     32  C   UNL     1      34.535 -15.281 -23.747  0.00  0.00    +0.058 C 
ATOM     33  C   UNL     1      34.423 -14.418 -22.656  0.00  0.00    +0.023 C 
ENDBRANCH  25  28
ENDBRANCH  22  25
ENDBRANCH   2  23
TORSDOF 4
ENDMDL
MODEL 7
REMARK VINA RESULT:     -12.1      5.402      9.929
REMARK  Name = 448407
REMARK  4 active torsions:
REMARK  status: ('A' for Active; 'I' for Inactive)
REMARK    1  A    between atoms: C_1  and  N_8
REMARK    2  A    between atoms: C_2  and  C_23
REMARK    3  A    between atoms: N_22  and  C_25
REMARK    4  A    between atoms: C_25  and  C_28
REMARK                            x       y       z     vdW  Elec       q    Type
REMARK                         _______ _______ _______ _____ _____    ______ ____
ROOT
ATOM      1  C   UNL     1      33.842 -23.570 -13.794  0.00  0.00    +0.090 C 
ATOM      2  C   UNL     1      32.028 -22.806 -15.226  0.00  0.00    +0.055 C 
ATOM      3  C   UNL     1      33.391 -22.900 -14.945  0.00  0.00    +0.023 C 
ATOM      4  C   UNL     1      32.889 -24.145 -12.935  0.00  0.00    +0.018 C 
ATOM      5  C   UNL     1      31.096 -23.381 -14.363  0.00  0.00    +0.005 C 
ATOM      6  C   UNL     1      31.527 -24.051 -13.218  0.00  0.00    +0.002 C 
ENDROOT
BRANCH   1   8
ATOM      7  O   UNL     1      38.542 -22.035 -15.391  0.00  0.00    -0.207 OA
ATOM      8  N   UNL     1      35.200 -23.665 -13.514  0.00  0.00    -0.137 N 
ATOM      9  N   UNL     1      35.818 -24.783 -13.048  0.00  0.00    -0.215 N 
ATOM     10  N   UNL     1      36.082 -22.855 -14.226  0.00  0.00    -0.143 NA
ATOM     11  N   UNL     1      38.163 -25.478 -13.310  0.00  0.00    -0.309 NA
ATOM     12  N   UNL     1      39.548 -23.957 -14.572  0.00  0.00    -0.251 NA
ATOM     13  N   UNL     1      40.445 -25.906 -13.708  0.00  0.00    -0.283 N 
ATOM     14  C   UNL     1      37.118 -24.747 -13.435  0.00  0.00    +0.243 C 
ATOM     15  C   UNL     1      37.215 -23.485 -14.185  0.00  0.00    +0.241 C 
ATOM     16  C   UNL     1      38.501 -23.090 -14.774  0.00  0.00    +0.239 C 
ATOM     17  C   UNL     1      39.368 -25.068 -13.886  0.00  0.00    +0.208 C 
ATOM     18  H   UNL     1      35.395 -25.497 -12.520  0.00  0.00    +0.175 HD
ATOM     19  H   UNL     1      40.340 -26.743 -13.200  0.00  0.00    +0.156 HD
ATOM     20  H   UNL     1      41.321 -25.669 -14.091  0.00  0.00    +0.156 HD
ENDBRANCH   1   8
BRANCH   2  23
ATOM     21  O   UNL     1      30.367 -21.906 -16.615  0.00  0.00    -0.270 OA
ATOM     22  N   UNL     1      32.567 -21.671 -17.311  0.00  0.00    -0.297 N 
ATOM     23  C   UNL     1      31.579 -22.110 -16.421  0.00  0.00    +0.246 C 
ATOM     24  H   UNL     1      33.506 -21.867 -17.096  0.00  0.00    +0.150 HD
BRANCH  22  25
ATOM     25  C   UNL     1      32.280 -20.947 -18.528  0.00  0.00    +0.117 C 
BRANCH  25  28
ATOM     26 CL   UNL     1      37.476 -20.867 -18.721  0.00  0.00    -0.082 Cl
ATOM     27 CL   UNL     1      34.498 -18.218 -22.358  0.00  0.00    -0.082 Cl
ATOM     28  C   UNL     1      33.532 -20.472 -19.208  0.00  0.00    -0.001 C 
ATOM     29  C   UNL     1      33.439 -19.662 -20.334  0.00  0.00    +0.009 C 
ATOM     30  C   UNL     1      34.772 -20.847 -18.704  0.00  0.00    +0.009 C 
ATOM     31  C   UNL     1      35.936 -20.407 -19.335  0.00  0.00    +0.058 C 
ATOM     32  C   UNL     1      34.601 -19.221 -20.965  0.00  0.00    +0.058 C 
ATOM     33  C   UNL     1      35.851 -19.594 -20.466  0.00  0.00    +0.023 C 
ENDBRANCH  25  28
ENDBRANCH  22  25
ENDBRANCH   2  23
TORSDOF 4
ENDMDL
MODEL 8
REMARK VINA RESULT:     -11.9      4.786     10.225
REMARK  Name = 448407
REMARK  4 active torsions:
REMARK  status: ('A' for Active; 'I' for Inactive)
REMARK    1  A    between atoms: C_1  and  N_8
REMARK    2  A    between atoms: C_2  and  C_23
REMARK    3  A    between atoms: N_22  and  C_25
REMARK    4  A    between atoms: C_25  and  C_28
REMARK                            x       y       z     vdW  Elec       q    Type
REMARK                         _______ _______ _______ _____ _____    ______ ____
ROOT
ATOM      1  C   UNL     1      34.332 -23.424 -14.858  0.00  0.00    +0.090 C 
ATOM      2  C   UNL     1      33.284 -22.434 -16.820  0.00  0.00    +0.055 C 
ATOM      3  C   UNL     1      34.378 -23.050 -16.213  0.00  0.00    +0.023 C 
ATOM      4  C   UNL     1      33.158 -23.163 -14.130  0.00  0.00    +0.018 C 
ATOM      5  C   UNL     1      32.127 -22.183 -16.083  0.00  0.00    +0.005 C 
ATOM      6  C   UNL     1      32.064 -22.547 -14.738  0.00  0.00    +0.002 C 
ENDROOT
BRANCH   1   8
ATOM      7  O   UNL     1      38.422 -22.557 -11.774  0.00  0.00    -0.207 OA
ATOM      8  N   UNL     1      35.422 -24.039 -14.253  0.00  0.00    -0.137 N 
ATOM      9  N   UNL     1      36.166 -25.025 -14.819  0.00  0.00    -0.215 N 
ATOM     10  N   UNL     1      36.162 -23.311 -13.325  0.00  0.00    -0.143 NA
ATOM     11  N   UNL     1      38.517 -25.619 -14.408  0.00  0.00    -0.309 NA
ATOM     12  N   UNL     1      39.647 -24.254 -12.769  0.00  0.00    -0.251 NA
ATOM     13  N   UNL     1      40.773 -25.976 -13.827  0.00  0.00    -0.283 N 
ATOM     14  C   UNL     1      37.413 -24.980 -14.287  0.00  0.00    +0.243 C 
ATOM     15  C   UNL     1      37.337 -23.859 -13.338  0.00  0.00    +0.241 C 
ATOM     16  C   UNL     1      38.523 -23.495 -12.551  0.00  0.00    +0.239 C 
ATOM     17  C   UNL     1      39.623 -25.242 -13.642  0.00  0.00    +0.208 C 
ATOM     18  H   UNL     1      35.855 -25.663 -15.501  0.00  0.00    +0.175 HD
ATOM     19  H   UNL     1      40.784 -26.719 -14.472  0.00  0.00    +0.156 HD
ATOM     20  H   UNL     1      41.584 -25.756 -13.314  0.00  0.00    +0.156 HD
ENDBRANCH   1   8
BRANCH   2  23
ATOM     21  O   UNL     1      33.847 -22.827 -19.062  0.00  0.00    -0.270 OA
ATOM     22  N   UNL     1      32.806 -20.813 -18.571  0.00  0.00    -0.297 N 
ATOM     23  C   UNL     1      33.348 -22.056 -18.223  0.00  0.00    +0.246 C 
ATOM     24  H   UNL     1      32.428 -20.254 -17.856  0.00  0.00    +0.150 HD
BRANCH  22  25
ATOM     25  C   UNL     1      32.775 -20.308 -19.924  0.00  0.00    +0.117 C 
BRANCH  25  28
ATOM     26 CL   UNL     1      35.303 -17.031 -23.073  0.00  0.00    -0.082 Cl
ATOM     27 CL   UNL     1      37.818 -19.475 -18.972  0.00  0.00    -0.082 Cl
ATOM     28  C   UNL     1      34.054 -19.614 -20.295  0.00  0.00    -0.001 C 
ATOM     29  C   UNL     1      35.203 -19.842 -19.547  0.00  0.00    +0.009 C 
ATOM     30  C   UNL     1      34.076 -18.750 -21.384  0.00  0.00    +0.009 C 
ATOM     31  C   UNL     1      35.264 -18.104 -21.728  0.00  0.00    +0.058 C 
ATOM     32  C   UNL     1      36.391 -19.199 -19.891  0.00  0.00    +0.058 C 
ATOM     33  C   UNL     1      36.422 -18.328 -20.982  0.00  0.00    +0.023 C 
ENDBRANCH  25  28
ENDBRANCH  22  25
ENDBRANCH   2  23
TORSDOF 4
ENDMDL
MODEL 9
REMARK VINA RESULT:     -11.8      4.956     10.774
REMARK  Name = 448407
REMARK  4 active torsions:
REMARK  status: ('A' for Active; 'I' for Inactive)
REMARK    1  A    between atoms: C_1  and  N_8
REMARK    2  A    between atoms: C_2  and  C_23
REMARK    3  A    between atoms: N_22  and  C_25
REMARK    4  A    between atoms: C_25  and  C_28
REMARK                            x       y       z     vdW  Elec       q    Type
REMARK                         _______ _______ _______ _____ _____    ______ ____
ROOT
ATOM      1  C   UNL     1      35.352 -21.939 -16.461  0.00  0.00    +0.090 C 
ATOM      2  C   UNL     1      35.635 -20.924 -18.656  0.00  0.00    +0.055 C 
ATOM      3  C   UNL     1      36.152 -21.278 -17.410  0.00  0.00    +0.023 C 
ATOM      4  C   UNL     1      34.020 -22.237 -16.798  0.00  0.00    +0.018 C 
ATOM      5  C   UNL     1      34.312 -21.227 -18.973  0.00  0.00    +0.005 C 
ATOM      6  C   UNL     1      33.504 -21.883 -18.044  0.00  0.00    +0.002 C 
ENDROOT
BRANCH   1   8
ATOM      7  O   UNL     1      37.604 -25.817 -13.837  0.00  0.00    -0.207 OA
ATOM      8  N   UNL     1      35.868 -22.293 -15.220  0.00  0.00    -0.137 N 
ATOM      9  N   UNL     1      35.348 -21.901 -14.026  0.00  0.00    -0.215 N 
ATOM     10  N   UNL     1      36.551 -23.501 -15.106  0.00  0.00    -0.143 NA
ATOM     11  N   UNL     1      35.477 -23.022 -11.840  0.00  0.00    -0.309 NA
ATOM     12  N   UNL     1      36.698 -25.103 -11.826  0.00  0.00    -0.251 NA
ATOM     13  N   UNL     1      35.750 -24.295  -9.877  0.00  0.00    -0.283 N 
ATOM     14  C   UNL     1      35.668 -22.832 -13.093  0.00  0.00    +0.243 C 
ATOM     15  C   UNL     1      36.439 -23.827 -13.855  0.00  0.00    +0.241 C 
ATOM     16  C   UNL     1      36.970 -25.012 -13.170  0.00  0.00    +0.239 C 
ATOM     17  C   UNL     1      35.997 -24.162 -11.224  0.00  0.00    +0.208 C 
ATOM     18  H   UNL     1      34.826 -21.082 -13.866  0.00  0.00    +0.175 HD
ATOM     19  H   UNL     1      35.229 -23.608  -9.401  0.00  0.00    +0.156 HD
ATOM     20  H   UNL     1      36.092 -25.079  -9.389  0.00  0.00    +0.156 HD
ENDBRANCH   1   8
BRANCH   2  23
ATOM     21  O   UNL     1      37.355 -20.866 -20.248  0.00  0.00    -0.270 OA
ATOM     22  N   UNL     1      36.234 -18.879 -19.831  0.00  0.00    -0.297 N 
ATOM     23  C   UNL     1      36.477 -20.242 -19.626  0.00  0.00    +0.246 C 
ATOM     24  H   UNL     1      35.524 -18.449 -19.304  0.00  0.00    +0.150 HD
BRANCH  22  25
ATOM     25  C   UNL     1      36.970 -18.071 -20.776  0.00  0.00    +0.117 C 
BRANCH  25  28
ATOM     26 CL   UNL     1      33.778 -18.465 -24.862  0.00  0.00    -0.082 Cl
ATOM     27 CL   UNL     1      34.793 -13.695 -22.552  0.00  0.00    -0.082 Cl
ATOM     28  C   UNL     1      36.063 -17.398 -21.766  0.00  0.00    -0.001 C 
ATOM     29  C   UNL     1      35.874 -16.022 -21.702  0.00  0.00    +0.009 C 
ATOM     30  C   UNL     1      35.421 -18.158 -22.737  0.00  0.00    +0.009 C 
ATOM     31  C   UNL     1      34.578 -17.534 -23.657  0.00  0.00    +0.058 C 
ATOM     32  C   UNL     1      35.033 -15.397 -22.622  0.00  0.00    +0.058 C 
ATOM     33  C   UNL     1      34.384 -16.153 -23.599  0.00  0.00    +0.023 C 
ENDBRANCH  25  28
ENDBRANCH  22  25
ENDBRANCH   2  23
TORSDOF 4
ENDMDL
