MODEL 1
REMARK VINA RESULT:     -12.9      0.000      0.000
REMARK  Name = 49831257
REMARK  4 active torsions:
REMARK  status: ('A' for Active; 'I' for Inactive)
REMARK    1  A    between atoms: C_1  and  C_23
REMARK    2  A    between atoms: C_4  and  C_14
REMARK    3  A    between atoms: C_12  and  C_20
REMARK    4  A    between atoms: C_23  and  N_27
REMARK                            x       y       z     vdW  Elec       q    Type
REMARK                         _______ _______ _______ _____ _____    ______ ____
ROOT
ATOM      1  C   UNL     1      35.744 -19.316 -20.475  0.00  0.00    -0.043 C 
ATOM      2  C   UNL     1      34.358 -19.384 -20.342  0.00  0.00    -0.006 C 
ATOM      3  C   UNL     1      36.565 -20.022 -19.595  0.00  0.00    -0.006 C 
ATOM      4  C   UNL     1      34.612 -20.861 -18.447  0.00  0.00    +0.016 C 
ATOM      5  C   UNL     1      33.792 -20.156 -19.327  0.00  0.00    +0.001 C 
ATOM      6  C   UNL     1      36.000 -20.794 -18.580  0.00  0.00    +0.001 C 
ENDROOT
BRANCH   4  14
ATOM      7  O   UNL     1      37.101 -24.830 -12.853  0.00  0.00    -0.274 OA
ATOM      8  N   UNL     1      37.579 -23.435 -14.694  0.00  0.00    -0.217 N 
ATOM      9  N   UNL     1      34.808 -22.340 -16.417  0.00  0.00    -0.152 N 
ATOM     10  N   UNL     1      36.161 -22.348 -16.281  0.00  0.00    -0.092 NA
ATOM     11  N   UNL     1      35.214 -23.628 -14.645  0.00  0.00    -0.319 NA
ATOM     12  C   UNL     1      37.886 -24.239 -13.581  0.00  0.00    +0.234 C 
ATOM     13  C   UNL     1      36.341 -23.129 -15.218  0.00  0.00    +0.167 C 
ATOM     14  C   UNL     1      34.015 -21.675 -17.375  0.00  0.00    +0.077 C 
ATOM     15  C   UNL     1      34.258 -23.130 -15.397  0.00  0.00    +0.219 C 
ATOM     16  C   UNL     1      32.673 -21.809 -17.301  0.00  0.00    +0.017 C 
ATOM     17  C   UNL     1      32.844 -23.254 -15.340  0.00  0.00    +0.051 C 
ATOM     18  C   UNL     1      32.084 -22.622 -16.251  0.00  0.00    +0.005 C 
ATOM     19  H   UNL     1      38.350 -23.038 -15.161  0.00  0.00    +0.167 HD
BRANCH  12  20
ATOM     20  C   UNL     1      39.350 -24.357 -13.291  0.00  0.00    +0.077 C 
ATOM     21  C   UNL     1      40.325 -24.313 -14.431  0.00  0.00    +0.010 C 
ATOM     22  C   UNL     1      40.079 -25.603 -13.704  0.00  0.00    +0.010 C 
ENDBRANCH  12  20
ENDBRANCH   4  14
BRANCH   1  23
ATOM     23  C   UNL     1      36.356 -18.484 -21.571  0.00  0.00    -0.050 C 
BRANCH  23  27
ATOM     24  S   UNL     1      34.203 -16.011 -24.676  0.00  0.00    -0.014 S 
ATOM     25  O   UNL     1      32.912 -15.460 -25.032  0.00  0.00    -0.173 OA
ATOM     26  O   UNL     1      35.368 -15.791 -25.511  0.00  0.00    -0.173 OA
ATOM     27  N   UNL     1      35.338 -17.753 -22.332  0.00  0.00    +0.392 N 
ATOM     28  C   UNL     1      35.183 -18.355 -23.668  0.00  0.00    -0.051 C 
ATOM     29  C   UNL     1      35.702 -16.329 -22.412  0.00  0.00    -0.051 C 
ATOM     30  C   UNL     1      34.591 -15.483 -23.024  0.00  0.00    +0.128 C 
ATOM     31  C   UNL     1      34.008 -17.761 -24.435  0.00  0.00    +0.128 C 
ATOM     32  H   UNL     1      34.438 -17.818 -21.857  0.00  0.00    -0.079 HD
ENDBRANCH  23  27
ENDBRANCH   1  23
TORSDOF 4
ENDMDL
MODEL 2
REMARK VINA RESULT:     -11.8      4.516     10.957
REMARK  Name = 49831257
REMARK  4 active torsions:
REMARK  status: ('A' for Active; 'I' for Inactive)
REMARK    1  A    between atoms: C_1  and  C_23
REMARK    2  A    between atoms: C_4  and  C_14
REMARK    3  A    between atoms: C_12  and  C_20
REMARK    4  A    between atoms: C_23  and  N_27
REMARK                            x       y       z     vdW  Elec       q    Type
REMARK                         _______ _______ _______ _____ _____    ______ ____
ROOT
ATOM      1  C   UNL     1      36.243 -18.198 -20.769  0.00  0.00    -0.043 C 
ATOM      2  C   UNL     1      35.751 -17.008 -20.234  0.00  0.00    -0.006 C 
ATOM      3  C   UNL     1      36.202 -18.413 -22.147  0.00  0.00    -0.006 C 
ATOM      4  C   UNL     1      35.176 -16.248 -22.454  0.00  0.00    +0.016 C 
ATOM      5  C   UNL     1      35.217 -16.033 -21.076  0.00  0.00    +0.001 C 
ATOM      6  C   UNL     1      35.668 -17.438 -22.990  0.00  0.00    +0.001 C 
ENDROOT
BRANCH   4  14
ATOM      7  O   UNL     1      31.720  -9.880 -21.593  0.00  0.00    -0.274 OA
ATOM      8  N   UNL     1      32.764 -11.747 -20.600  0.00  0.00    -0.217 N 
ATOM      9  N   UNL     1      33.983 -14.062 -22.837  0.00  0.00    -0.152 N 
ATOM     10  N   UNL     1      33.805 -13.680 -21.543  0.00  0.00    -0.092 NA
ATOM     11  N   UNL     1      32.910 -12.112 -22.940  0.00  0.00    -0.319 NA
ATOM     12  C   UNL     1      32.089 -10.513 -20.614  0.00  0.00    +0.234 C 
ATOM     13  C   UNL     1      33.163 -12.521 -21.669  0.00  0.00    +0.167 C 
ATOM     14  C   UNL     1      34.610 -15.219 -23.343  0.00  0.00    +0.077 C 
ATOM     15  C   UNL     1      33.427 -13.078 -23.666  0.00  0.00    +0.219 C 
ATOM     16  C   UNL     1      34.676 -15.378 -24.683  0.00  0.00    +0.017 C 
ATOM     17  C   UNL     1      33.510 -13.268 -25.072  0.00  0.00    +0.051 C 
ATOM     18  C   UNL     1      34.108 -14.369 -25.560  0.00  0.00    +0.005 C 
ATOM     19  H   UNL     1      32.981 -12.106 -19.709  0.00  0.00    +0.167 HD
BRANCH  12  20
ATOM     20  C   UNL     1      31.809  -9.948 -19.256  0.00  0.00    +0.077 C 
ATOM     21  C   UNL     1      31.683 -10.882 -18.089  0.00  0.00    +0.010 C 
ATOM     22  C   UNL     1      30.467 -10.185 -18.627  0.00  0.00    +0.010 C 
ENDBRANCH  12  20
ENDBRANCH   4  14
BRANCH   1  23
ATOM     23  C   UNL     1      36.822 -19.251 -19.861  0.00  0.00    -0.050 C 
BRANCH  23  27
ATOM     24  S   UNL     1      33.835 -22.080 -18.001  0.00  0.00    -0.014 S 
ATOM     25  O   UNL     1      32.866 -22.210 -16.931  0.00  0.00    -0.173 OA
ATOM     26  O   UNL     1      34.074 -23.167 -18.930  0.00  0.00    -0.173 OA
ATOM     27  N   UNL     1      35.797 -19.853 -19.003  0.00  0.00    +0.392 N 
ATOM     28  C   UNL     1      36.343 -21.045 -18.332  0.00  0.00    -0.051 C 
ATOM     29  C   UNL     1      34.602 -20.172 -19.803  0.00  0.00    -0.051 C 
ATOM     30  C   UNL     1      33.432 -20.623 -18.935  0.00  0.00    +0.128 C 
ATOM     31  C   UNL     1      35.388 -21.604 -17.283  0.00  0.00    +0.128 C 
ATOM     32  H   UNL     1      35.518 -19.190 -18.280  0.00  0.00    -0.079 HD
ENDBRANCH  23  27
ENDBRANCH   1  23
TORSDOF 4
ENDMDL
MODEL 3
REMARK VINA RESULT:     -11.8      1.759      2.290
REMARK  Name = 49831257
REMARK  4 active torsions:
REMARK  status: ('A' for Active; 'I' for Inactive)
REMARK    1  A    between atoms: C_1  and  C_23
REMARK    2  A    between atoms: C_4  and  C_14
REMARK    3  A    between atoms: C_12  and  C_20
REMARK    4  A    between atoms: C_23  and  N_27
REMARK                            x       y       z     vdW  Elec       q    Type
REMARK                         _______ _______ _______ _____ _____    ______ ____
ROOT
ATOM      1  C   UNL     1      35.104 -20.320 -19.560  0.00  0.00    -0.043 C 
ATOM      2  C   UNL     1      35.770 -21.007 -18.545  0.00  0.00    -0.006 C 
ATOM      3  C   UNL     1      33.711 -20.249 -19.556  0.00  0.00    -0.006 C 
ATOM      4  C   UNL     1      33.650 -21.554 -17.524  0.00  0.00    +0.016 C 
ATOM      5  C   UNL     1      35.043 -21.625 -17.528  0.00  0.00    +0.001 C 
ATOM      6  C   UNL     1      32.983 -20.866 -18.539  0.00  0.00    +0.001 C 
ENDROOT
BRANCH   4  14
ATOM      7  O   UNL     1      35.139 -24.366 -10.959  0.00  0.00    -0.274 OA
ATOM      8  N   UNL     1      35.921 -23.279 -12.901  0.00  0.00    -0.217 N 
ATOM      9  N   UNL     1      33.496 -22.653 -15.263  0.00  0.00    -0.152 N 
ATOM     10  N   UNL     1      34.800 -22.560 -14.885  0.00  0.00    -0.092 NA
ATOM     11  N   UNL     1      33.594 -23.597 -13.247  0.00  0.00    -0.319 NA
ATOM     12  C   UNL     1      36.033 -23.863 -11.626  0.00  0.00    +0.234 C 
ATOM     13  C   UNL     1      34.796 -23.138 -13.686  0.00  0.00    +0.167 C 
ATOM     14  C   UNL     1      32.882 -22.208 -16.451  0.00  0.00    +0.077 C 
ATOM     15  C   UNL     1      32.785 -23.289 -14.235  0.00  0.00    +0.219 C 
ATOM     16  C   UNL     1      31.554 -22.404 -16.599  0.00  0.00    +0.017 C 
ATOM     17  C   UNL     1      31.388 -23.483 -14.414  0.00  0.00    +0.051 C 
ATOM     18  C   UNL     1      30.798 -23.059 -15.545  0.00  0.00    +0.005 C 
ATOM     19  H   UNL     1      36.756 -22.923 -13.283  0.00  0.00    +0.167 HD
BRANCH  12  20
ATOM     20  C   UNL     1      37.418 -23.846 -11.059  0.00  0.00    +0.077 C 
ATOM     21  C   UNL     1      38.364 -22.758 -11.477  0.00  0.00    +0.010 C 
ATOM     22  C   UNL     1      38.579 -24.164 -11.956  0.00  0.00    +0.010 C 
ENDBRANCH  12  20
ENDBRANCH   4  14
BRANCH   1  23
ATOM     23  C   UNL     1      35.889 -19.651 -20.657  0.00  0.00    -0.050 C 
BRANCH  23  27
ATOM     24  S   UNL     1      35.037 -15.616 -22.497  0.00  0.00    -0.014 S 
ATOM     25  O   UNL     1      33.984 -14.653 -22.752  0.00  0.00    -0.173 OA
ATOM     26  O   UNL     1      36.401 -15.364 -22.919  0.00  0.00    -0.173 OA
ATOM     27  N   UNL     1      35.232 -18.428 -21.129  0.00  0.00    +0.392 N 
ATOM     28  C   UNL     1      35.350 -18.330 -22.594  0.00  0.00    -0.051 C 
ATOM     29  C   UNL     1      35.814 -17.257 -20.452  0.00  0.00    -0.051 C 
ATOM     30  C   UNL     1      35.046 -15.975 -20.757  0.00  0.00    +0.128 C 
ATOM     31  C   UNL     1      34.524 -17.182 -23.163  0.00  0.00    +0.128 C 
ATOM     32  H   UNL     1      34.239 -18.458 -20.899  0.00  0.00    -0.079 HD
ENDBRANCH  23  27
ENDBRANCH   1  23
TORSDOF 4
ENDMDL
MODEL 4
REMARK VINA RESULT:     -11.4      1.660      2.006
REMARK  Name = 49831257
REMARK  4 active torsions:
REMARK  status: ('A' for Active; 'I' for Inactive)
REMARK    1  A    between atoms: C_1  and  C_23
REMARK    2  A    between atoms: C_4  and  C_14
REMARK    3  A    between atoms: C_12  and  C_20
REMARK    4  A    between atoms: C_23  and  N_27
REMARK                            x       y       z     vdW  Elec       q    Type
REMARK                         _______ _______ _______ _____ _____    ______ ____
ROOT
ATOM      1  C   UNL     1      35.166 -19.401 -20.681  0.00  0.00    -0.043 C 
ATOM      2  C   UNL     1      33.797 -19.521 -20.441  0.00  0.00    -0.006 C 
ATOM      3  C   UNL     1      36.081 -20.025 -19.833  0.00  0.00    -0.006 C 
ATOM      4  C   UNL     1      34.258 -20.890 -18.504  0.00  0.00    +0.016 C 
ATOM      5  C   UNL     1      33.343 -20.265 -19.352  0.00  0.00    +0.001 C 
ATOM      6  C   UNL     1      35.627 -20.770 -18.744  0.00  0.00    +0.001 C 
ENDROOT
BRANCH   4  14
ATOM      7  O   UNL     1      37.333 -24.540 -12.986  0.00  0.00    -0.274 OA
ATOM      8  N   UNL     1      37.610 -23.212 -14.915  0.00  0.00    -0.217 N 
ATOM      9  N   UNL     1      34.670 -22.274 -16.440  0.00  0.00    -0.152 N 
ATOM     10  N   UNL     1      36.030 -22.236 -16.419  0.00  0.00    -0.092 NA
ATOM     11  N   UNL     1      35.265 -23.472 -14.658  0.00  0.00    -0.319 NA
ATOM     12  C   UNL     1      38.035 -23.958 -13.801  0.00  0.00    +0.234 C 
ATOM     13  C   UNL     1      36.323 -22.966 -15.344  0.00  0.00    +0.167 C 
ATOM     14  C   UNL     1      33.779 -21.675 -17.353  0.00  0.00    +0.077 C 
ATOM     15  C   UNL     1      34.234 -23.035 -15.346  0.00  0.00    +0.219 C 
ATOM     16  C   UNL     1      32.453 -21.844 -17.161  0.00  0.00    +0.017 C 
ATOM     17  C   UNL     1      32.834 -23.198 -15.165  0.00  0.00    +0.051 C 
ATOM     18  C   UNL     1      31.980 -22.628 -16.033  0.00  0.00    +0.005 C 
ATOM     19  H   UNL     1      38.326 -22.813 -15.461  0.00  0.00    +0.167 HD
BRANCH  12  20
ATOM     20  C   UNL     1      39.521 -24.021 -13.631  0.00  0.00    +0.077 C 
ATOM     21  C   UNL     1      40.367 -24.490 -14.778  0.00  0.00    +0.010 C 
ATOM     22  C   UNL     1      40.194 -25.361 -13.569  0.00  0.00    +0.010 C 
ENDBRANCH  12  20
ENDBRANCH   4  14
BRANCH   1  23
ATOM     23  C   UNL     1      35.656 -18.599 -21.858  0.00  0.00    -0.050 C 
BRANCH  23  27
ATOM     24  S   UNL     1      34.661 -14.278 -21.003  0.00  0.00    -0.014 S 
ATOM     25  O   UNL     1      35.246 -12.991 -20.685  0.00  0.00    -0.173 OA
ATOM     26  O   UNL     1      33.227 -14.435 -21.140  0.00  0.00    -0.173 OA
ATOM     27  N   UNL     1      35.741 -17.169 -21.545  0.00  0.00    +0.392 N 
ATOM     28  C   UNL     1      35.030 -16.890 -20.285  0.00  0.00    -0.051 C 
ATOM     29  C   UNL     1      35.201 -16.381 -22.666  0.00  0.00    -0.051 C 
ATOM     30  C   UNL     1      35.435 -14.885 -22.483  0.00  0.00    +0.128 C 
ATOM     31  C   UNL     1      35.243 -15.458 -19.808  0.00  0.00    +0.128 C 
ATOM     32  H   UNL     1      36.716 -16.900 -21.417  0.00  0.00    -0.079 HD
ENDBRANCH  23  27
ENDBRANCH   1  23
TORSDOF 4
ENDMDL
MODEL 5
REMARK VINA RESULT:     -11.1      2.529      4.956
REMARK  Name = 49831257
REMARK  4 active torsions:
REMARK  status: ('A' for Active; 'I' for Inactive)
REMARK    1  A    between atoms: C_1  and  C_23
REMARK    2  A    between atoms: C_4  and  C_14
REMARK    3  A    between atoms: C_12  and  C_20
REMARK    4  A    between atoms: C_23  and  N_27
REMARK                            x       y       z     vdW  Elec       q    Type
REMARK                         _______ _______ _______ _____ _____    ______ ____
ROOT
ATOM      1  C   UNL     1      35.321 -19.236 -20.813  0.00  0.00    -0.043 C 
ATOM      2  C   UNL     1      34.185 -19.795 -20.229  0.00  0.00    -0.006 C 
ATOM      3  C   UNL     1      36.570 -19.412 -20.218  0.00  0.00    -0.006 C 
ATOM      4  C   UNL     1      35.546 -20.706 -18.453  0.00  0.00    +0.016 C 
ATOM      5  C   UNL     1      34.297 -20.529 -19.049  0.00  0.00    +0.001 C 
ATOM      6  C   UNL     1      36.683 -20.147 -19.037  0.00  0.00    +0.001 C 
ENDROOT
BRANCH   4  14
ATOM      7  O   UNL     1      30.982 -24.323 -14.058  0.00  0.00    -0.274 OA
ATOM      8  N   UNL     1      31.292 -23.043 -16.015  0.00  0.00    -0.217 N 
ATOM      9  N   UNL     1      34.543 -22.071 -16.588  0.00  0.00    -0.152 N 
ATOM     10  N   UNL     1      33.243 -22.069 -16.991  0.00  0.00    -0.092 NA
ATOM     11  N   UNL     1      33.447 -23.241 -15.042  0.00  0.00    -0.319 NA
ATOM     12  C   UNL     1      30.556 -23.776 -15.065  0.00  0.00    +0.234 C 
ATOM     13  C   UNL     1      32.644 -22.775 -16.033  0.00  0.00    +0.167 C 
ATOM     14  C   UNL     1      35.665 -21.480 -17.206  0.00  0.00    +0.077 C 
ATOM     15  C   UNL     1      34.634 -22.800 -15.395  0.00  0.00    +0.219 C 
ATOM     16  C   UNL     1      36.872 -21.627 -16.618  0.00  0.00    +0.017 C 
ATOM     17  C   UNL     1      35.915 -22.941 -14.796  0.00  0.00    +0.051 C 
ATOM     18  C   UNL     1      36.987 -22.380 -15.382  0.00  0.00    +0.005 C 
ATOM     19  H   UNL     1      30.772 -22.674 -16.766  0.00  0.00    +0.167 HD
BRANCH  12  20
ATOM     20  C   UNL     1      29.091 -23.870 -15.359  0.00  0.00    +0.077 C 
ATOM     21  C   UNL     1      28.530 -23.104 -16.520  0.00  0.00    +0.010 C 
ATOM     22  C   UNL     1      28.218 -22.673 -15.116  0.00  0.00    +0.010 C 
ENDBRANCH  12  20
ENDBRANCH   4  14
BRANCH   1  23
ATOM     23  C   UNL     1      35.200 -18.445 -22.089  0.00  0.00    -0.050 C 
BRANCH  23  27
ATOM     24  S   UNL     1      34.620 -14.007 -21.492  0.00  0.00    -0.014 S 
ATOM     25  O   UNL     1      35.325 -12.763 -21.256  0.00  0.00    -0.173 OA
ATOM     26  O   UNL     1      33.175 -14.037 -21.610  0.00  0.00    -0.173 OA
ATOM     27  N   UNL     1      35.420 -17.013 -21.864  0.00  0.00    +0.392 N 
ATOM     28  C   UNL     1      34.753 -16.594 -20.619  0.00  0.00    -0.051 C 
ATOM     29  C   UNL     1      34.943 -16.246 -23.027  0.00  0.00    -0.051 C 
ATOM     30  C   UNL     1      35.317 -14.770 -22.937  0.00  0.00    +0.128 C 
ATOM     31  C   UNL     1      35.104 -15.162 -20.231  0.00  0.00    +0.128 C 
ATOM     32  H   UNL     1      36.418 -16.829 -21.758  0.00  0.00    -0.079 HD
ENDBRANCH  23  27
ENDBRANCH   1  23
TORSDOF 4
ENDMDL
MODEL 6
REMARK VINA RESULT:     -10.7      2.722      5.278
REMARK  Name = 49831257
REMARK  4 active torsions:
REMARK  status: ('A' for Active; 'I' for Inactive)
REMARK    1  A    between atoms: C_1  and  C_23
REMARK    2  A    between atoms: C_4  and  C_14
REMARK    3  A    between atoms: C_12  and  C_20
REMARK    4  A    between atoms: C_23  and  N_27
REMARK                            x       y       z     vdW  Elec       q    Type
REMARK                         _______ _______ _______ _____ _____    ______ ____
ROOT
ATOM      1  C   UNL     1      35.625 -19.789 -20.431  0.00  0.00    -0.043 C 
ATOM      2  C   UNL     1      34.325 -20.091 -20.027  0.00  0.00    -0.006 C 
ATOM      3  C   UNL     1      36.708 -20.166 -19.636  0.00  0.00    -0.006 C 
ATOM      4  C   UNL     1      35.190 -21.147 -18.034  0.00  0.00    +0.016 C 
ATOM      5  C   UNL     1      34.107 -20.769 -18.828  0.00  0.00    +0.001 C 
ATOM      6  C   UNL     1      36.491 -20.845 -18.438  0.00  0.00    +0.001 C 
ENDROOT
BRANCH   4  14
ATOM      7  O   UNL     1      29.381 -23.568 -14.343  0.00  0.00    -0.274 OA
ATOM      8  N   UNL     1      30.234 -22.479 -16.253  0.00  0.00    -0.217 N 
ATOM      9  N   UNL     1      33.663 -22.190 -16.323  0.00  0.00    -0.152 N 
ATOM     10  N   UNL     1      32.466 -21.957 -16.927  0.00  0.00    -0.092 NA
ATOM     11  N   UNL     1      32.133 -23.041 -14.945  0.00  0.00    -0.319 NA
ATOM     12  C   UNL     1      29.231 -23.002 -15.417  0.00  0.00    +0.234 C 
ATOM     13  C   UNL     1      31.600 -22.480 -16.062  0.00  0.00    +0.167 C 
ATOM     14  C   UNL     1      34.961 -21.862 -16.766  0.00  0.00    +0.077 C 
ATOM     15  C   UNL     1      33.424 -22.859 -15.114  0.00  0.00    +0.219 C 
ATOM     16  C   UNL     1      36.011 -22.210 -15.991  0.00  0.00    +0.017 C 
ATOM     17  C   UNL     1      34.545 -23.215 -14.317  0.00  0.00    +0.051 C 
ATOM     18  C   UNL     1      35.784 -22.905 -14.736  0.00  0.00    +0.005 C 
ATOM     19  H   UNL     1      29.919 -22.055 -17.085  0.00  0.00    +0.167 HD
BRANCH  12  20
ATOM     20  C   UNL     1      27.839 -22.825 -15.937  0.00  0.00    +0.077 C 
ATOM     21  C   UNL     1      27.522 -21.621 -16.775  0.00  0.00    +0.010 C 
ATOM     22  C   UNL     1      26.983 -21.726 -15.377  0.00  0.00    +0.010 C 
ENDBRANCH  12  20
ENDBRANCH   4  14
BRANCH   1  23
ATOM     23  C   UNL     1      35.860 -19.057 -21.726  0.00  0.00    -0.050 C 
BRANCH  23  27
ATOM     24  S   UNL     1      34.648 -14.758 -22.381  0.00  0.00    -0.014 S 
ATOM     25  O   UNL     1      33.549 -13.824 -22.237  0.00  0.00    -0.173 OA
ATOM     26  O   UNL     1      35.923 -14.333 -22.924  0.00  0.00    -0.173 OA
ATOM     27  N   UNL     1      35.112 -17.798 -21.784  0.00  0.00    +0.392 N 
ATOM     28  C   UNL     1      34.998 -17.348 -23.182  0.00  0.00    -0.051 C 
ATOM     29  C   UNL     1      35.768 -16.789 -20.935  0.00  0.00    -0.051 C 
ATOM     30  C   UNL     1      34.936 -15.519 -20.802  0.00  0.00    +0.128 C 
ATOM     31  C   UNL     1      34.070 -16.147 -23.327  0.00  0.00    +0.128 C 
ATOM     32  H   UNL     1      34.169 -17.939 -21.425  0.00  0.00    -0.079 HD
ENDBRANCH  23  27
ENDBRANCH   1  23
TORSDOF 4
ENDMDL
