MODEL 1
REMARK VINA RESULT:     -12.4      0.000      0.000
REMARK  Name = 10224714
REMARK  8 active torsions:
REMARK  status: ('A' for Active; 'I' for Inactive)
REMARK    1  A    between atoms: N_1  and  C_12
REMARK    2  A    between atoms: N_2  and  CA_30
REMARK    3  A    between atoms: N_15  and  C_17
REMARK    4  A    between atoms: C_17  and  C_18
REMARK    5  A    between atoms: C_21  and  C_25
REMARK    6  A    between atoms: CA_30  and  C_31
REMARK    7  A    between atoms: CA_30  and  C_33
REMARK    8  A    between atoms: C_33  and  O_34
REMARK                            x       y       z     vdW  Elec       q    Type
REMARK                         _______ _______ _______ _____ _____    ______ ____
ROOT
ATOM      1  N   UNL     1      31.641 -23.530 -14.677  0.00  0.00    -0.262 N 
ATOM      2  N   UNL     1      36.319 -23.492 -13.855  0.00  0.00    -0.258 N 
ATOM      3  N   UNL     1      33.993 -23.610 -14.076  0.00  0.00    -0.311 NA
ATOM      4  N   UNL     1      31.783 -22.495 -16.646  0.00  0.00    -0.240 NA
ATOM      5  N   UNL     1      35.382 -22.579 -15.798  0.00  0.00    -0.311 NA
ATOM      6  C   UNL     1      32.970 -23.291 -14.883  0.00  0.00    +0.220 C 
ATOM      7  C   UNL     1      33.036 -22.649 -16.109  0.00  0.00    +0.167 C 
ATOM      8  C   UNL     1      34.302 -22.289 -16.562  0.00  0.00    +0.215 C 
ATOM      9  C   UNL     1      35.191 -23.218 -14.603  0.00  0.00    +0.202 C 
ATOM     10  C   UNL     1      30.969 -23.034 -15.762  0.00  0.00    +0.222 C 
ATOM     11  H   UNL     1      37.194 -23.221 -14.215  0.00  0.00    +0.160 HD
ATOM     12  N   UNL     1      34.464 -21.633 -17.794  0.00  0.00    -0.302 N 
ATOM     13  H   UNL     1      33.661 -21.435 -18.330  0.00  0.00    +0.150 HD
ENDROOT
BRANCH   1  14
ATOM     14  C   UNL     1      31.046 -24.181 -13.534  0.00  0.00    +0.077 C 
ATOM     15  C   UNL     1      30.828 -23.211 -12.371  0.00  0.00    +0.022 C 
ATOM     16  C   UNL     1      29.758 -24.919 -13.902  0.00  0.00    +0.022 C 
ENDBRANCH   1  14
BRANCH  12  17
ATOM     17  C   UNL     1      35.742 -21.240 -18.309  0.00  0.00    +0.116 C 
BRANCH  17  18
ATOM     18  C   UNL     1      35.581 -20.188 -19.372  0.00  0.00    -0.003 C 
ATOM     19  C   UNL     1      34.337 -19.986 -19.953  0.00  0.00    -0.003 C 
ATOM     20  C   UNL     1      36.681 -19.434 -19.760  0.00  0.00    -0.003 C 
ATOM     21  C   UNL     1      35.286 -18.248 -21.337  0.00  0.00    +0.018 C 
ATOM     22  C   UNL     1      34.189 -19.012 -20.940  0.00  0.00    +0.001 C 
ATOM     23  C   UNL     1      36.532 -18.459 -20.747  0.00  0.00    +0.001 C 
BRANCH  21  25
ATOM     24  N   UNL     1      35.436 -15.981 -21.968  0.00  0.00    -0.244 NA
ATOM     25  C   UNL     1      35.132 -17.237 -22.360  0.00  0.00    +0.081 C 
ATOM     26  C   UNL     1      34.700 -17.574 -23.631  0.00  0.00    +0.019 C 
ATOM     27  C   UNL     1      34.574 -16.552 -24.565  0.00  0.00    +0.003 C 
ATOM     28  C   UNL     1      35.302 -15.014 -22.902  0.00  0.00    +0.099 C 
ATOM     29  C   UNL     1      34.878 -15.244 -24.202  0.00  0.00    +0.021 C 
ENDBRANCH  21  25
ENDBRANCH  17  18
ENDBRANCH  12  17
BRANCH   2  30
ATOM     30  CA  UNL     1      36.285 -24.159 -12.567  0.00  0.00    +0.109 C 
BRANCH  30  31
ATOM     31  C   UNL     1      36.368 -23.122 -11.441  0.00  0.00    +0.023 C 
ATOM     32  C   UNL     1      37.786 -22.617 -11.209  0.00  0.00    +0.002 C 
ENDBRANCH  30  31
BRANCH  30  33
ATOM     33  C   UNL     1      37.454 -25.141 -12.491  0.00  0.00    +0.157 C 
BRANCH  33  34
ATOM     34  O   UNL     1      37.194 -26.107 -11.477  0.00  0.00    -0.380 OA
ATOM     35  H   UNL     1      38.031 -26.502 -11.185  0.00  0.00    +0.211 HD
ENDBRANCH  33  34
ENDBRANCH  30  33
ENDBRANCH   2  30
TORSDOF 8
ENDMDL
MODEL 2
REMARK VINA RESULT:     -10.8      1.635      4.282
REMARK  Name = 10224714
REMARK  8 active torsions:
REMARK  status: ('A' for Active; 'I' for Inactive)
REMARK    1  A    between atoms: N_1  and  C_12
REMARK    2  A    between atoms: N_2  and  CA_30
REMARK    3  A    between atoms: N_15  and  C_17
REMARK    4  A    between atoms: C_17  and  C_18
REMARK    5  A    between atoms: C_21  and  C_25
REMARK    6  A    between atoms: CA_30  and  C_31
REMARK    7  A    between atoms: CA_30  and  C_33
REMARK    8  A    between atoms: C_33  and  O_34
REMARK                            x       y       z     vdW  Elec       q    Type
REMARK                         _______ _______ _______ _____ _____    ______ ____
ROOT
ATOM      1  N   UNL     1      36.601 -22.757 -13.292  0.00  0.00    -0.262 N 
ATOM      2  N   UNL     1      32.225 -23.469 -14.997  0.00  0.00    -0.258 N 
ATOM      3  N   UNL     1      34.308 -23.181 -13.971  0.00  0.00    -0.311 NA
ATOM      4  N   UNL     1      37.451 -22.059 -15.232  0.00  0.00    -0.240 NA
ATOM      5  N   UNL     1      33.978 -22.684 -16.338  0.00  0.00    -0.311 NA
ATOM      6  C   UNL     1      35.575 -22.801 -14.193  0.00  0.00    +0.220 C 
ATOM      7  C   UNL     1      36.123 -22.365 -15.388  0.00  0.00    +0.167 C 
ATOM      8  C   UNL     1      35.272 -22.314 -16.488  0.00  0.00    +0.215 C 
ATOM      9  C   UNL     1      33.551 -23.098 -15.105  0.00  0.00    +0.202 C 
ATOM     10  C   UNL     1      37.707 -22.306 -13.963  0.00  0.00    +0.222 C 
ATOM     11  H   UNL     1      31.659 -23.415 -15.801  0.00  0.00    +0.160 HD
ATOM     12  N   UNL     1      35.743 -21.886 -17.741  0.00  0.00    -0.302 N 
ATOM     13  H   UNL     1      36.689 -21.621 -17.822  0.00  0.00    +0.150 HD
ENDROOT
BRANCH   1  14
ATOM     14  C   UNL     1      36.542 -23.115 -11.896  0.00  0.00    +0.077 C 
ATOM     15  C   UNL     1      36.747 -24.616 -11.681  0.00  0.00    +0.022 C 
ATOM     16  C   UNL     1      37.511 -22.288 -11.050  0.00  0.00    +0.022 C 
ENDBRANCH   1  14
BRANCH  12  17
ATOM     17  C   UNL     1      34.912 -21.814 -18.906  0.00  0.00    +0.116 C 
BRANCH  17  18
ATOM     18  C   UNL     1      34.949 -20.430 -19.495  0.00  0.00    -0.003 C 
ATOM     19  C   UNL     1      33.764 -19.814 -19.875  0.00  0.00    -0.003 C 
ATOM     20  C   UNL     1      36.169 -19.787 -19.653  0.00  0.00    -0.003 C 
ATOM     21  C   UNL     1      35.020 -17.877 -20.585  0.00  0.00    +0.018 C 
ATOM     22  C   UNL     1      33.800 -18.532 -20.422  0.00  0.00    +0.001 C 
ATOM     23  C   UNL     1      36.205 -18.503 -20.201  0.00  0.00    +0.001 C 
BRANCH  21  25
ATOM     24  N   UNL     1      35.272 -16.503 -22.484  0.00  0.00    -0.244 NA
ATOM     25  C   UNL     1      35.056 -16.546 -21.152  0.00  0.00    +0.081 C 
ATOM     26  C   UNL     1      34.880 -15.429 -20.353  0.00  0.00    +0.019 C 
ATOM     27  C   UNL     1      34.926 -14.182 -20.964  0.00  0.00    +0.003 C 
ATOM     28  C   UNL     1      35.311 -15.272 -23.043  0.00  0.00    +0.099 C 
ATOM     29  C   UNL     1      35.145 -14.092 -22.335  0.00  0.00    +0.021 C 
ENDBRANCH  21  25
ENDBRANCH  17  18
ENDBRANCH  12  17
BRANCH   2  30
ATOM     30  CA  UNL     1      31.620 -23.932 -13.762  0.00  0.00    +0.109 C 
BRANCH  30  31
ATOM     31  C   UNL     1      30.413 -24.825 -14.076  0.00  0.00    +0.023 C 
ATOM     32  C   UNL     1      29.307 -24.081 -14.814  0.00  0.00    +0.002 C 
ENDBRANCH  30  31
BRANCH  30  33
ATOM     33  C   UNL     1      31.199 -22.718 -12.935  0.00  0.00    +0.157 C 
BRANCH  33  34
ATOM     34  O   UNL     1      32.274 -22.329 -12.086  0.00  0.00    -0.380 OA
ATOM     35  H   UNL     1      32.729 -23.120 -11.757  0.00  0.00    +0.211 HD
ENDBRANCH  33  34
ENDBRANCH  30  33
ENDBRANCH   2  30
TORSDOF 8
ENDMDL
