MODEL 1
REMARK VINA RESULT:     -13.7      0.000      0.000
REMARK  Name = 24941249
REMARK  6 active torsions:
REMARK  status: ('A' for Active; 'I' for Inactive)
REMARK    1  A    between atoms: N_1  and  C_13
REMARK    2  A    between atoms: N_2  and  C_26
REMARK    3  A    between atoms: C_14  and  C_19
REMARK    4  A    between atoms: C_19  and  C_20
REMARK    5  A    between atoms: C_20  and  C_23
REMARK    6  A    between atoms: C_26  and  C_28
REMARK                            x       y       z     vdW  Elec       q    Type
REMARK                         _______ _______ _______ _____ _____    ______ ____
ROOT
ATOM      1  N   UNL     1      34.243 -23.611 -13.130  0.00  0.00    -0.230 N 
ATOM      2  N   UNL     1      34.838 -21.750 -17.609  0.00  0.00    -0.316 N 
ATOM      3  N   UNL     1      33.171 -24.031 -12.436  0.00  0.00    -0.169 NA
ATOM      4  N   UNL     1      32.726 -22.388 -16.718  0.00  0.00    -0.229 NA
ATOM      5  C   UNL     1      33.953 -23.151 -14.385  0.00  0.00    +0.088 A 
ATOM      6  C   UNL     1      32.576 -23.285 -14.515  0.00  0.00    +0.052 A 
ATOM      7  C   UNL     1      32.159 -23.831 -13.283  0.00  0.00    +0.082 A 
ATOM      8  C   UNL     1      34.759 -22.640 -15.396  0.00  0.00    +0.053 C 
ATOM      9  C   UNL     1      34.066 -22.279 -16.541  0.00  0.00    +0.130 C 
ATOM     10  C   UNL     1      31.972 -22.891 -15.709  0.00  0.00    +0.103 C 
ATOM     11  C   UNL     1      30.788 -24.179 -12.871  0.00  0.00    +0.054 C 
ATOM     12  H   UNL     1      35.812 -21.665 -17.491  0.00  0.00    +0.148 HD
ENDROOT
BRANCH   1  13
ATOM     13  C   UNL     1      35.509 -23.675 -12.546  0.00  0.00    +0.082 C 
ATOM     14  C   UNL     1      37.706 -24.671 -12.417  0.00  0.00    -0.020 C 
ATOM     15  C   UNL     1      36.441 -24.608 -13.001  0.00  0.00    +0.015 C 
ATOM     16  C   UNL     1      35.842 -22.805 -11.508  0.00  0.00    +0.019 C 
ATOM     17  C   UNL     1      38.040 -23.801 -11.379  0.00  0.00    -0.004 C 
ATOM     18  C   UNL     1      37.108 -22.868 -10.925  0.00  0.00    +0.001 C 
BRANCH  14  19
ATOM     19  C   UNL     1      38.702 -25.669 -12.902  0.00  0.00    +0.036 C 
BRANCH  19  20
ATOM     20  C   UNL     1      40.046 -25.023 -13.257  0.00  0.00    +0.089 C 
BRANCH  20  23
ATOM     21  O   UNL     1      40.900 -25.454 -15.487  0.00  0.00    -0.275 OA
ATOM     22  N   UNL     1      39.472 -23.679 -15.169  0.00  0.00    -0.329 N 
ATOM     23  C   UNL     1      40.203 -24.769 -14.745  0.00  0.00    +0.220 C 
ATOM     24  H   UNL     1      39.492 -23.413 -16.116  0.00  0.00    +0.145 HD
ATOM     25  H   UNL     1      38.932 -23.168 -14.524  0.00  0.00    +0.145 HD
ENDBRANCH  20  23
ENDBRANCH  19  20
ENDBRANCH  14  19
ENDBRANCH   1  13
BRANCH   2  26
ATOM     26  C   UNL     1      34.260 -21.338 -18.844  0.00  0.00    +0.093 C 
ATOM     27  C   UNL     1      32.822 -20.879 -18.603  0.00  0.00    +0.026 C 
BRANCH  26  28
ATOM     28  C   UNL     1      35.118 -20.276 -19.495  0.00  0.00    -0.005 C 
ATOM     29  C   UNL     1      34.532 -19.308 -20.312  0.00  0.00    -0.003 C 
ATOM     30  C   UNL     1      36.496 -20.263 -19.279  0.00  0.00    -0.003 C 
ATOM     31  C   UNL     1      35.324 -18.330 -20.913  0.00  0.00    -0.000 C 
ATOM     32  C   UNL     1      37.287 -19.285 -19.880  0.00  0.00    -0.000 C 
ATOM     33  C   UNL     1      36.701 -18.317 -20.696  0.00  0.00    -0.000 C 
ENDBRANCH  26  28
ENDBRANCH   2  26
TORSDOF 6
ENDMDL
MODEL 2
REMARK VINA RESULT:     -12.9      3.852      8.721
REMARK  Name = 24941249
REMARK  6 active torsions:
REMARK  status: ('A' for Active; 'I' for Inactive)
REMARK    1  A    between atoms: N_1  and  C_13
REMARK    2  A    between atoms: N_2  and  C_26
REMARK    3  A    between atoms: C_14  and  C_19
REMARK    4  A    between atoms: C_19  and  C_20
REMARK    5  A    between atoms: C_20  and  C_23
REMARK    6  A    between atoms: C_26  and  C_28
REMARK                            x       y       z     vdW  Elec       q    Type
REMARK                         _______ _______ _______ _____ _____    ______ ____
ROOT
ATOM      1  N   UNL     1      32.563 -22.561 -16.289  0.00  0.00    -0.230 N 
ATOM      2  N   UNL     1      35.850 -22.905 -12.689  0.00  0.00    -0.316 N 
ATOM      3  N   UNL     1      32.637 -22.187 -17.578  0.00  0.00    -0.169 NA
ATOM      4  N   UNL     1      36.382 -22.184 -14.893  0.00  0.00    -0.229 NA
ATOM      5  C   UNL     1      33.756 -22.508 -15.621  0.00  0.00    +0.088 A 
ATOM      6  C   UNL     1      34.680 -22.062 -16.557  0.00  0.00    +0.052 A 
ATOM      7  C   UNL     1      33.927 -21.884 -17.737  0.00  0.00    +0.082 A 
ATOM      8  C   UNL     1      34.098 -22.805 -14.307  0.00  0.00    +0.053 C 
ATOM      9  C   UNL     1      35.441 -22.616 -14.018  0.00  0.00    +0.130 C 
ATOM     10  C   UNL     1      36.010 -21.904 -16.167  0.00  0.00    +0.103 C 
ATOM     11  C   UNL     1      34.408 -21.423 -19.051  0.00  0.00    +0.054 C 
ATOM     12  H   UNL     1      35.175 -23.218 -12.044  0.00  0.00    +0.148 HD
ENDROOT
BRANCH   1  13
ATOM     13  C   UNL     1      31.336 -22.956 -15.756  0.00  0.00    +0.082 C 
ATOM     14  C   UNL     1      28.967 -22.584 -15.456  0.00  0.00    -0.020 C 
ATOM     15  C   UNL     1      30.194 -22.188 -15.989  0.00  0.00    +0.015 C 
ATOM     16  C   UNL     1      31.250 -24.119 -14.991  0.00  0.00    +0.019 C 
ATOM     17  C   UNL     1      28.881 -23.747 -14.692  0.00  0.00    -0.004 C 
ATOM     18  C   UNL     1      30.022 -24.515 -14.459  0.00  0.00    +0.001 C 
BRANCH  14  19
ATOM     19  C   UNL     1      27.747 -21.763 -15.704  0.00  0.00    +0.036 C 
BRANCH  19  20
ATOM     20  C   UNL     1      27.117 -22.057 -17.071  0.00  0.00    +0.089 C 
BRANCH  20  23
ATOM     21  O   UNL     1      26.292 -19.775 -17.091  0.00  0.00    -0.275 OA
ATOM     22  N   UNL     1      25.669 -21.197 -18.789  0.00  0.00    -0.329 N 
ATOM     23  C   UNL     1      26.333 -20.881 -17.622  0.00  0.00    +0.220 C 
ATOM     24  H   UNL     1      25.124 -20.515 -19.243  0.00  0.00    +0.145 HD
ATOM     25  H   UNL     1      25.740 -22.103 -19.165  0.00  0.00    +0.145 HD
ENDBRANCH  20  23
ENDBRANCH  19  20
ENDBRANCH  14  19
ENDBRANCH   1  13
BRANCH   2  26
ATOM     26  C   UNL     1      37.198 -22.758 -12.252  0.00  0.00    +0.093 C 
ATOM     27  C   UNL     1      37.227 -22.629 -10.729  0.00  0.00    +0.026 C 
BRANCH  26  28
ATOM     28  C   UNL     1      38.041 -23.906 -12.763  0.00  0.00    -0.005 C 
ATOM     29  C   UNL     1      39.426 -23.767 -12.856  0.00  0.00    -0.003 C 
ATOM     30  C   UNL     1      37.434 -25.103 -13.142  0.00  0.00    -0.003 C 
ATOM     31  C   UNL     1      40.203 -24.824 -13.328  0.00  0.00    -0.000 C 
ATOM     32  C   UNL     1      38.211 -26.160 -13.614  0.00  0.00    -0.000 C 
ATOM     33  C   UNL     1      39.596 -26.021 -13.707  0.00  0.00    -0.000 C 
ENDBRANCH  26  28
ENDBRANCH   2  26
TORSDOF 6
ENDMDL
MODEL 3
REMARK VINA RESULT:     -12.0      8.120     13.366
REMARK  Name = 24941249
REMARK  6 active torsions:
REMARK  status: ('A' for Active; 'I' for Inactive)
REMARK    1  A    between atoms: N_1  and  C_13
REMARK    2  A    between atoms: N_2  and  C_26
REMARK    3  A    between atoms: C_14  and  C_19
REMARK    4  A    between atoms: C_19  and  C_20
REMARK    5  A    between atoms: C_20  and  C_23
REMARK    6  A    between atoms: C_26  and  C_28
REMARK                            x       y       z     vdW  Elec       q    Type
REMARK                         _______ _______ _______ _____ _____    ______ ____
ROOT
ATOM      1  N   UNL     1      33.348 -12.794 -22.503  0.00  0.00    -0.230 N 
ATOM      2  N   UNL     1      35.366 -16.962 -20.943  0.00  0.00    -0.316 N 
ATOM      3  N   UNL     1      33.204 -12.231 -23.716  0.00  0.00    -0.169 NA
ATOM      4  N   UNL     1      35.307 -16.302 -23.228  0.00  0.00    -0.229 NA
ATOM      5  C   UNL     1      33.992 -14.000 -22.519  0.00  0.00    +0.088 A 
ATOM      6  C   UNL     1      34.290 -14.240 -23.854  0.00  0.00    +0.052 A 
ATOM      7  C   UNL     1      33.778 -13.115 -24.535  0.00  0.00    +0.082 A 
ATOM      8  C   UNL     1      34.332 -14.884 -21.501  0.00  0.00    +0.053 C 
ATOM      9  C   UNL     1      34.993 -16.021 -21.940  0.00  0.00    +0.130 C 
ATOM     10  C   UNL     1      34.959 -15.415 -24.194  0.00  0.00    +0.103 C 
ATOM     11  C   UNL     1      33.818 -12.844 -25.982  0.00  0.00    +0.054 C 
ATOM     12  H   UNL     1      35.145 -16.767 -20.004  0.00  0.00    +0.148 HD
ENDROOT
BRANCH   1  13
ATOM     13  C   UNL     1      32.853 -12.136 -21.376  0.00  0.00    +0.082 C 
ATOM     14  C   UNL     1      32.186 -10.095 -20.269  0.00  0.00    -0.020 C 
ATOM     15  C   UNL     1      32.681 -10.752 -21.396  0.00  0.00    +0.015 C 
ATOM     16  C   UNL     1      32.529 -12.863 -20.231  0.00  0.00    +0.019 C 
ATOM     17  C   UNL     1      31.862 -10.822 -19.124  0.00  0.00    -0.004 C 
ATOM     18  C   UNL     1      32.033 -12.206 -19.105  0.00  0.00    +0.001 C 
BRANCH  14  19
ATOM     19  C   UNL     1      32.004  -8.615 -20.289  0.00  0.00    +0.036 C 
BRANCH  19  20
ATOM     20  C   UNL     1      32.687  -7.930 -19.100  0.00  0.00    +0.089 C 
BRANCH  20  23
ATOM     21  O   UNL     1      32.961  -5.660 -18.287  0.00  0.00    -0.275 OA
ATOM     22  N   UNL     1      32.357  -5.989 -20.482  0.00  0.00    -0.329 N 
ATOM     23  C   UNL     1      32.692  -6.417 -19.215  0.00  0.00    +0.220 C 
ATOM     24  H   UNL     1      32.326  -5.026 -20.682  0.00  0.00    +0.145 HD
ATOM     25  H   UNL     1      32.150  -6.646 -21.185  0.00  0.00    +0.145 HD
ENDBRANCH  20  23
ENDBRANCH  19  20
ENDBRANCH  14  19
ENDBRANCH   1  13
BRANCH   2  26
ATOM     26  C   UNL     1      36.049 -18.174 -21.249  0.00  0.00    +0.093 C 
ATOM     27  C   UNL     1      37.556 -17.921 -21.254  0.00  0.00    +0.026 C 
BRANCH  26  28
ATOM     28  C   UNL     1      35.636 -19.265 -20.284  0.00  0.00    -0.005 C 
ATOM     29  C   UNL     1      34.285 -19.574 -20.117  0.00  0.00    -0.003 C 
ATOM     30  C   UNL     1      36.604 -19.961 -19.563  0.00  0.00    -0.003 C 
ATOM     31  C   UNL     1      33.905 -20.578 -19.228  0.00  0.00    -0.000 C 
ATOM     32  C   UNL     1      36.224 -20.966 -18.673  0.00  0.00    -0.000 C 
ATOM     33  C   UNL     1      34.874 -21.275 -18.506  0.00  0.00    -0.000 C 
ENDBRANCH  26  28
ENDBRANCH   2  26
TORSDOF 6
ENDMDL
MODEL 4
REMARK VINA RESULT:     -11.7      3.118      8.324
REMARK  Name = 24941249
REMARK  6 active torsions:
REMARK  status: ('A' for Active; 'I' for Inactive)
REMARK    1  A    between atoms: N_1  and  C_13
REMARK    2  A    between atoms: N_2  and  C_26
REMARK    3  A    between atoms: C_14  and  C_19
REMARK    4  A    between atoms: C_19  and  C_20
REMARK    5  A    between atoms: C_20  and  C_23
REMARK    6  A    between atoms: C_26  and  C_28
REMARK                            x       y       z     vdW  Elec       q    Type
REMARK                         _______ _______ _______ _____ _____    ______ ____
ROOT
ATOM      1  N   UNL     1      33.641 -21.652 -17.511  0.00  0.00    -0.230 N 
ATOM      2  N   UNL     1      36.675 -24.061 -14.531  0.00  0.00    -0.316 N 
ATOM      3  N   UNL     1      32.306 -21.506 -17.553  0.00  0.00    -0.169 NA
ATOM      4  N   UNL     1      34.309 -24.045 -14.271  0.00  0.00    -0.229 NA
ATOM      5  C   UNL     1      34.087 -22.433 -16.480  0.00  0.00    +0.088 A 
ATOM      6  C   UNL     1      32.944 -22.826 -15.797  0.00  0.00    +0.052 A 
ATOM      7  C   UNL     1      31.885 -22.223 -16.508  0.00  0.00    +0.082 A 
ATOM      8  C   UNL     1      35.366 -22.821 -16.095  0.00  0.00    +0.053 C 
ATOM      9  C   UNL     1      35.394 -23.633 -14.972  0.00  0.00    +0.130 C 
ATOM     10  C   UNL     1      33.078 -23.646 -14.676  0.00  0.00    +0.103 C 
ATOM     11  C   UNL     1      30.443 -22.307 -16.218  0.00  0.00    +0.054 C 
ATOM     12  H   UNL     1      37.469 -23.768 -15.034  0.00  0.00    +0.148 HD
ENDROOT
BRANCH   1  13
ATOM     13  C   UNL     1      34.433 -21.024 -18.474  0.00  0.00    +0.082 C 
ATOM     14  C   UNL     1      34.626 -19.640 -20.445  0.00  0.00    -0.020 C 
ATOM     15  C   UNL     1      33.835 -20.267 -19.482  0.00  0.00    +0.015 C 
ATOM     16  C   UNL     1      35.820 -21.154 -18.428  0.00  0.00    +0.019 C 
ATOM     17  C   UNL     1      36.014 -19.769 -20.399  0.00  0.00    -0.004 C 
ATOM     18  C   UNL     1      36.612 -20.526 -19.391  0.00  0.00    +0.001 C 
BRANCH  14  19
ATOM     19  C   UNL     1      33.988 -18.832 -21.523  0.00  0.00    +0.036 C 
BRANCH  19  20
ATOM     20  C   UNL     1      34.905 -18.660 -22.740  0.00  0.00    +0.089 C 
BRANCH  20  23
ATOM     21  O   UNL     1      34.520 -16.656 -24.052  0.00  0.00    -0.275 OA
ATOM     22  N   UNL     1      36.026 -16.574 -22.315  0.00  0.00    -0.329 N 
ATOM     23  C   UNL     1      35.106 -17.207 -23.125  0.00  0.00    +0.220 C 
ATOM     24  H   UNL     1      36.242 -15.626 -22.466  0.00  0.00    +0.145 HD
ATOM     25  H   UNL     1      36.464 -17.070 -21.588  0.00  0.00    +0.145 HD
ENDBRANCH  20  23
ENDBRANCH  19  20
ENDBRANCH  14  19
ENDBRANCH   1  13
BRANCH   2  26
ATOM     26  C   UNL     1      36.854 -24.896 -13.391  0.00  0.00    +0.093 C 
ATOM     27  C   UNL     1      38.130 -25.719 -13.561  0.00  0.00    +0.026 C 
BRANCH  26  28
ATOM     28  C   UNL     1      36.852 -24.063 -12.128  0.00  0.00    -0.005 C 
ATOM     29  C   UNL     1      36.036 -24.424 -11.055  0.00  0.00    -0.003 C 
ATOM     30  C   UNL     1      37.667 -22.935 -12.035  0.00  0.00    -0.003 C 
ATOM     31  C   UNL     1      36.034 -23.656  -9.891  0.00  0.00    -0.000 C 
ATOM     32  C   UNL     1      37.665 -22.167 -10.870  0.00  0.00    -0.000 C 
ATOM     33  C   UNL     1      36.849 -22.528  -9.798  0.00  0.00    -0.000 C 
ENDBRANCH  26  28
ENDBRANCH   2  26
TORSDOF 6
ENDMDL
MODEL 5
REMARK VINA RESULT:     -11.3      3.199      6.304
REMARK  Name = 24941249
REMARK  6 active torsions:
REMARK  status: ('A' for Active; 'I' for Inactive)
REMARK    1  A    between atoms: N_1  and  C_13
REMARK    2  A    between atoms: N_2  and  C_26
REMARK    3  A    between atoms: C_14  and  C_19
REMARK    4  A    between atoms: C_19  and  C_20
REMARK    5  A    between atoms: C_20  and  C_23
REMARK    6  A    between atoms: C_26  and  C_28
REMARK                            x       y       z     vdW  Elec       q    Type
REMARK                         _______ _______ _______ _____ _____    ______ ____
ROOT
ATOM      1  N   UNL     1      34.505 -23.064 -13.979  0.00  0.00    -0.230 N 
ATOM      2  N   UNL     1      35.729 -20.937 -18.204  0.00  0.00    -0.316 N 
ATOM      3  N   UNL     1      35.197 -23.404 -12.878  0.00  0.00    -0.169 NA
ATOM      4  N   UNL     1      37.281 -21.381 -16.455  0.00  0.00    -0.229 NA
ATOM      5  C   UNL     1      35.259 -22.473 -14.954  0.00  0.00    +0.088 A 
ATOM      6  C   UNL     1      36.550 -22.425 -14.442  0.00  0.00    +0.052 A 
ATOM      7  C   UNL     1      36.442 -23.013 -13.164  0.00  0.00    +0.082 A 
ATOM      8  C   UNL     1      34.931 -21.986 -16.215  0.00  0.00    +0.053 C 
ATOM      9  C   UNL     1      36.005 -21.451 -16.909  0.00  0.00    +0.130 C 
ATOM     10  C   UNL     1      37.563 -21.866 -15.220  0.00  0.00    +0.103 C 
ATOM     11  C   UNL     1      37.513 -23.222 -12.175  0.00  0.00    +0.054 C 
ATOM     12  H   UNL     1      34.807 -20.984 -18.544  0.00  0.00    +0.148 HD
ENDROOT
BRANCH   1  13
ATOM     13  C   UNL     1      33.136 -23.327 -14.039  0.00  0.00    +0.082 C 
ATOM     14  C   UNL     1      30.973 -22.942 -15.046  0.00  0.00    -0.020 C 
ATOM     15  C   UNL     1      32.342 -22.679 -14.986  0.00  0.00    +0.015 C 
ATOM     16  C   UNL     1      32.561 -24.238 -13.153  0.00  0.00    +0.019 C 
ATOM     17  C   UNL     1      30.399 -23.853 -14.160  0.00  0.00    -0.004 C 
ATOM     18  C   UNL     1      31.192 -24.502 -13.214  0.00  0.00    +0.001 C 
BRANCH  14  19
ATOM     19  C   UNL     1      30.124 -22.248 -16.057  0.00  0.00    +0.036 C 
BRANCH  19  20
ATOM     20  C   UNL     1      28.737 -21.897 -15.507  0.00  0.00    +0.089 C 
BRANCH  20  23
ATOM     21  O   UNL     1      27.613 -23.077 -17.304  0.00  0.00    -0.275 OA
ATOM     22  N   UNL     1      26.635 -21.185 -16.435  0.00  0.00    -0.329 N 
ATOM     23  C   UNL     1      27.627 -22.139 -16.512  0.00  0.00    +0.220 C 
ATOM     24  H   UNL     1      25.859 -21.234 -17.038  0.00  0.00    +0.145 HD
ATOM     25  H   UNL     1      26.704 -20.455 -15.779  0.00  0.00    +0.145 HD
ENDBRANCH  20  23
ENDBRANCH  19  20
ENDBRANCH  14  19
ENDBRANCH   1  13
BRANCH   2  26
ATOM     26  C   UNL     1      36.735 -20.357 -19.030  0.00  0.00    +0.093 C 
ATOM     27  C   UNL     1      37.583 -21.465 -19.651  0.00  0.00    +0.026 C 
BRANCH  26  28
ATOM     28  C   UNL     1      36.105 -19.446 -20.061  0.00  0.00    -0.005 C 
ATOM     29  C   UNL     1      36.858 -18.429 -20.648  0.00  0.00    -0.003 C 
ATOM     30  C   UNL     1      34.770 -19.625 -20.426  0.00  0.00    -0.003 C 
ATOM     31  C   UNL     1      36.276 -17.590 -21.598  0.00  0.00    -0.000 C 
ATOM     32  C   UNL     1      34.189 -18.786 -21.376  0.00  0.00    -0.000 C 
ATOM     33  C   UNL     1      34.942 -17.768 -21.963  0.00  0.00    -0.000 C 
ENDBRANCH  26  28
ENDBRANCH   2  26
TORSDOF 6
ENDMDL
MODEL 6
REMARK VINA RESULT:     -11.1      2.393      7.615
REMARK  Name = 24941249
REMARK  6 active torsions:
REMARK  status: ('A' for Active; 'I' for Inactive)
REMARK    1  A    between atoms: N_1  and  C_13
REMARK    2  A    between atoms: N_2  and  C_26
REMARK    3  A    between atoms: C_14  and  C_19
REMARK    4  A    between atoms: C_19  and  C_20
REMARK    5  A    between atoms: C_20  and  C_23
REMARK    6  A    between atoms: C_26  and  C_28
REMARK                            x       y       z     vdW  Elec       q    Type
REMARK                         _______ _______ _______ _____ _____    ______ ____
ROOT
ATOM      1  N   UNL     1      33.135 -21.878 -17.121  0.00  0.00    -0.230 N 
ATOM      2  N   UNL     1      37.203 -23.624 -15.052  0.00  0.00    -0.316 N 
ATOM      3  N   UNL     1      31.826 -22.003 -16.841  0.00  0.00    -0.169 NA
ATOM      4  N   UNL     1      35.013 -24.082 -14.243  0.00  0.00    -0.229 NA
ATOM      5  C   UNL     1      33.958 -22.551 -16.262  0.00  0.00    +0.088 A 
ATOM      6  C   UNL     1      33.111 -23.165 -15.347  0.00  0.00    +0.052 A 
ATOM      7  C   UNL     1      31.816 -22.788 -15.761  0.00  0.00    +0.082 A 
ATOM      8  C   UNL     1      35.342 -22.674 -16.206  0.00  0.00    +0.053 C 
ATOM      9  C   UNL     1      35.796 -23.462 -15.159  0.00  0.00    +0.130 C 
ATOM     10  C   UNL     1      33.667 -23.939 -14.329  0.00  0.00    +0.103 C 
ATOM     11  C   UNL     1      30.530 -23.158 -15.145  0.00  0.00    +0.054 C 
ATOM     12  H   UNL     1      37.781 -23.179 -15.713  0.00  0.00    +0.148 HD
ENDROOT
BRANCH   1  13
ATOM     13  C   UNL     1      33.534 -21.106 -18.213  0.00  0.00    +0.082 C 
ATOM     14  C   UNL     1      35.290 -20.169 -19.583  0.00  0.00    -0.020 C 
ATOM     15  C   UNL     1      34.891 -20.940 -18.491  0.00  0.00    +0.015 C 
ATOM     16  C   UNL     1      32.576 -20.502 -19.027  0.00  0.00    +0.019 C 
ATOM     17  C   UNL     1      34.333 -19.565 -20.397  0.00  0.00    -0.004 C 
ATOM     18  C   UNL     1      32.975 -19.731 -20.120  0.00  0.00    +0.001 C 
BRANCH  14  19
ATOM     19  C   UNL     1      36.740 -19.990 -19.879  0.00  0.00    +0.036 C 
BRANCH  19  20
ATOM     20  C   UNL     1      37.144 -18.512 -19.933  0.00  0.00    +0.089 C 
BRANCH  20  23
ATOM     21  O   UNL     1      38.818 -18.061 -21.630  0.00  0.00    -0.275 OA
ATOM     22  N   UNL     1      36.601 -17.726 -22.141  0.00  0.00    -0.329 N 
ATOM     23  C   UNL     1      37.635 -18.085 -21.303  0.00  0.00    +0.220 C 
ATOM     24  H   UNL     1      36.793 -17.430 -23.059  0.00  0.00    +0.145 HD
ATOM     25  H   UNL     1      35.671 -17.765 -21.819  0.00  0.00    +0.145 HD
ENDBRANCH  20  23
ENDBRANCH  19  20
ENDBRANCH  14  19
ENDBRANCH   1  13
BRANCH   2  26
ATOM     26  C   UNL     1      37.810 -24.404 -14.026  0.00  0.00    +0.093 C 
ATOM     27  C   UNL     1      39.322 -24.442 -14.245  0.00  0.00    +0.026 C 
BRANCH  26  28
ATOM     28  C   UNL     1      37.423 -23.868 -12.665  0.00  0.00    -0.005 C 
ATOM     29  C   UNL     1      37.856 -22.604 -12.264  0.00  0.00    -0.003 C 
ATOM     30  C   UNL     1      36.634 -24.638 -11.811  0.00  0.00    -0.003 C 
ATOM     31  C   UNL     1      37.500 -22.110 -11.009  0.00  0.00    -0.000 C 
ATOM     32  C   UNL     1      36.278 -24.144 -10.556  0.00  0.00    -0.000 C 
ATOM     33  C   UNL     1      36.711 -22.880 -10.155  0.00  0.00    -0.000 C 
ENDBRANCH  26  28
ENDBRANCH   2  26
TORSDOF 6
ENDMDL
