MODEL 1
REMARK VINA RESULT:     -12.5      0.000      0.000
REMARK  Name = 24748573
REMARK  3 active torsions:
REMARK  status: ('A' for Active; 'I' for Inactive)
REMARK    1  A    between atoms: N_2  and  C_18
REMARK    2  A    between atoms: C_13  and  C_25
REMARK    3  A    between atoms: C_25  and  O_26
REMARK                            x       y       z     vdW  Elec       q    Type
REMARK                         _______ _______ _______ _____ _____    ______ ____
ROOT
ATOM      1  N   UNL     1      34.723 -22.546 -16.269  0.00  0.00    -0.391 NA
ATOM      2  N   UNL     1      32.971 -21.912 -17.699  0.00  0.00    -0.288 N 
ATOM      3  N   UNL     1      30.559 -23.312 -13.491  0.00  0.00    -0.243 NA
ATOM      4  C   UNL     1      34.310 -23.345 -14.026  0.00  0.00    +0.098 C 
ATOM      5  C   UNL     1      32.901 -23.183 -14.233  0.00  0.00    +0.011 C 
ATOM      6  C   UNL     1      32.441 -22.699 -15.470  0.00  0.00    +0.044 C 
ATOM      7  C   UNL     1      35.174 -23.006 -15.092  0.00  0.00    +0.119 C 
ATOM      8  C   UNL     1      33.391 -22.403 -16.437  0.00  0.00    +0.183 C 
ATOM      9  C   UNL     1      34.886 -23.823 -12.823  0.00  0.00    -0.015 C 
ATOM     10  C   UNL     1      36.548 -23.154 -14.925  0.00  0.00    +0.035 C 
ATOM     11  C   UNL     1      31.071 -22.527 -15.710  0.00  0.00    +0.024 C 
ATOM     12  C   UNL     1      31.891 -23.467 -13.292  0.00  0.00    +0.095 C 
ATOM     13  C   UNL     1      37.098 -23.625 -13.734  0.00  0.00    +0.077 C 
ATOM     14  C   UNL     1      36.265 -23.961 -12.680  0.00  0.00    +0.003 C 
ATOM     15  C   UNL     1      30.184 -22.845 -14.698  0.00  0.00    +0.099 C 
ATOM     16  H   UNL     1      32.083 -22.235 -17.976  0.00  0.00    +0.155 HD
ENDROOT
BRANCH   2  18
ATOM     17 CL   UNL     1      37.284 -20.064 -19.758  0.00  0.00    -0.082 Cl
ATOM     18  C   UNL     1      33.577 -21.054 -18.631  0.00  0.00    +0.051 C 
ATOM     19  C   UNL     1      34.968 -20.991 -18.719  0.00  0.00    +0.026 C 
ATOM     20  C   UNL     1      32.788 -20.268 -19.471  0.00  0.00    +0.015 C 
ATOM     21  C   UNL     1      35.569 -20.142 -19.648  0.00  0.00    +0.059 C 
ATOM     22  C   UNL     1      33.390 -19.419 -20.399  0.00  0.00    +0.002 C 
ATOM     23  C   UNL     1      34.780 -19.356 -20.488  0.00  0.00    +0.011 C 
ENDBRANCH   2  18
BRANCH  13  25
ATOM     24  O   UNL     1      39.140 -24.006 -12.548  0.00  0.00    -0.245 OA
ATOM     25  C   UNL     1      38.539 -23.762 -13.600  0.00  0.00    +0.338 C 
BRANCH  25  26
ATOM     26  O   UNL     1      39.191 -23.594 -14.783  0.00  0.00    -0.477 OA
ATOM     27  H   UNL     1      39.414 -24.340 -15.305  0.00  0.00    +0.295 HD
ENDBRANCH  25  26
ENDBRANCH  13  25
TORSDOF 3
ENDMDL
MODEL 2
REMARK VINA RESULT:     -11.6      2.745      6.082
REMARK  Name = 24748573
REMARK  3 active torsions:
REMARK  status: ('A' for Active; 'I' for Inactive)
REMARK    1  A    between atoms: N_2  and  C_18
REMARK    2  A    between atoms: C_13  and  C_25
REMARK    3  A    between atoms: C_25  and  O_26
REMARK                            x       y       z     vdW  Elec       q    Type
REMARK                         _______ _______ _______ _____ _____    ______ ____
ROOT
ATOM      1  N   UNL     1      35.408 -22.546 -15.502  0.00  0.00    -0.391 NA
ATOM      2  N   UNL     1      35.275 -23.615 -13.415  0.00  0.00    -0.288 N 
ATOM      3  N   UNL     1      30.455 -23.408 -14.902  0.00  0.00    -0.243 NA
ATOM      4  C   UNL     1      33.440 -22.098 -16.832  0.00  0.00    +0.098 C 
ATOM      5  C   UNL     1      32.624 -22.701 -15.819  0.00  0.00    +0.011 C 
ATOM      6  C   UNL     1      33.237 -23.216 -14.662  0.00  0.00    +0.044 C 
ATOM      7  C   UNL     1      34.835 -22.052 -16.610  0.00  0.00    +0.119 C 
ATOM      8  C   UNL     1      34.617 -23.108 -14.565  0.00  0.00    +0.183 C 
ATOM      9  C   UNL     1      32.934 -21.548 -18.035  0.00  0.00    -0.015 C 
ATOM     10  C   UNL     1      35.656 -21.472 -17.574  0.00  0.00    +0.035 C 
ATOM     11  C   UNL     1      32.472 -23.812 -13.651  0.00  0.00    +0.024 C 
ATOM     12  C   UNL     1      31.223 -22.838 -15.862  0.00  0.00    +0.095 C 
ATOM     13  C   UNL     1      35.142 -20.935 -18.753  0.00  0.00    +0.077 C 
ATOM     14  C   UNL     1      33.777 -20.973 -18.984  0.00  0.00    +0.003 C 
ATOM     15  C   UNL     1      31.102 -23.881 -13.819  0.00  0.00    +0.099 C 
ATOM     16  H   UNL     1      34.727 -23.583 -12.598  0.00  0.00    +0.155 HD
ENDROOT
BRANCH   2  18
ATOM     17 CL   UNL     1      40.094 -24.112 -15.083  0.00  0.00    -0.082 Cl
ATOM     18  C   UNL     1      36.556 -24.152 -13.218  0.00  0.00    +0.051 C 
ATOM     19  C   UNL     1      37.569 -23.897 -14.142  0.00  0.00    +0.026 C 
ATOM     20  C   UNL     1      36.817 -24.939 -12.096  0.00  0.00    +0.015 C 
ATOM     21  C   UNL     1      38.844 -24.427 -13.944  0.00  0.00    +0.059 C 
ATOM     22  C   UNL     1      38.092 -25.470 -11.898  0.00  0.00    +0.002 C 
ATOM     23  C   UNL     1      39.105 -25.213 -12.822  0.00  0.00    +0.011 C 
ENDBRANCH   2  18
BRANCH  13  25
ATOM     24  O   UNL     1      37.255 -20.518 -19.793  0.00  0.00    -0.245 OA
ATOM     25  C   UNL     1      36.033 -20.340 -19.734  0.00  0.00    +0.338 C 
BRANCH  25  26
ATOM     26  O   UNL     1      35.376 -19.539 -20.618  0.00  0.00    -0.477 OA
ATOM     27  H   UNL     1      34.468 -19.348 -20.490  0.00  0.00    +0.295 HD
ENDBRANCH  25  26
ENDBRANCH  13  25
TORSDOF 3
ENDMDL
MODEL 3
REMARK VINA RESULT:     -11.1      3.565      6.864
REMARK  Name = 24748573
REMARK  3 active torsions:
REMARK  status: ('A' for Active; 'I' for Inactive)
REMARK    1  A    between atoms: N_2  and  C_18
REMARK    2  A    between atoms: C_13  and  C_25
REMARK    3  A    between atoms: C_25  and  O_26
REMARK                            x       y       z     vdW  Elec       q    Type
REMARK                         _______ _______ _______ _____ _____    ______ ____
ROOT
ATOM      1  N   UNL     1      34.613 -23.382 -14.947  0.00  0.00    -0.391 NA
ATOM      2  N   UNL     1      36.893 -23.051 -15.403  0.00  0.00    -0.288 N 
ATOM      3  N   UNL     1      34.605 -20.460 -19.082  0.00  0.00    -0.243 NA
ATOM      4  C   UNL     1      32.884 -22.411 -16.328  0.00  0.00    +0.098 C 
ATOM      5  C   UNL     1      33.888 -21.819 -17.162  0.00  0.00    +0.011 C 
ATOM      6  C   UNL     1      35.244 -22.031 -16.856  0.00  0.00    +0.044 C 
ATOM      7  C   UNL     1      33.316 -23.187 -15.228  0.00  0.00    +0.119 C 
ATOM      8  C   UNL     1      35.538 -22.813 -15.748  0.00  0.00    +0.183 C 
ATOM      9  C   UNL     1      31.490 -22.266 -16.539  0.00  0.00    -0.015 C 
ATOM     10  C   UNL     1      32.365 -23.777 -14.399  0.00  0.00    +0.035 C 
ATOM     11  C   UNL     1      36.255 -21.468 -17.647  0.00  0.00    +0.024 C 
ATOM     12  C   UNL     1      33.652 -21.018 -18.296  0.00  0.00    +0.095 C 
ATOM     13  C   UNL     1      30.998 -23.624 -14.622  0.00  0.00    +0.077 C 
ATOM     14  C   UNL     1      30.559 -22.867 -15.695  0.00  0.00    +0.003 C 
ATOM     15  C   UNL     1      35.884 -20.701 -18.736  0.00  0.00    +0.099 C 
ATOM     16  H   UNL     1      37.504 -23.054 -16.175  0.00  0.00    +0.155 HD
ENDROOT
BRANCH   2  18
ATOM     17 CL   UNL     1      37.097 -22.152 -10.363  0.00  0.00    -0.082 Cl
ATOM     18  C   UNL     1      37.530 -23.283 -14.175  0.00  0.00    +0.051 C 
ATOM     19  C   UNL     1      37.054 -22.671 -13.015  0.00  0.00    +0.026 C 
ATOM     20  C   UNL     1      38.638 -24.129 -14.112  0.00  0.00    +0.015 C 
ATOM     21  C   UNL     1      37.685 -22.906 -11.793  0.00  0.00    +0.059 C 
ATOM     22  C   UNL     1      39.269 -24.363 -12.891  0.00  0.00    +0.002 C 
ATOM     23  C   UNL     1      38.792 -23.751 -11.731  0.00  0.00    +0.011 C 
ENDBRANCH   2  18
BRANCH  13  25
ATOM     24  O   UNL     1      28.915 -24.655 -14.056  0.00  0.00    -0.245 OA
ATOM     25  C   UNL     1      30.038 -24.255 -13.731  0.00  0.00    +0.338 C 
BRANCH  25  26
ATOM     26  O   UNL     1      30.508 -24.374 -12.459  0.00  0.00    -0.477 OA
ATOM     27  H   UNL     1      29.911 -24.514 -11.750  0.00  0.00    +0.295 HD
ENDBRANCH  25  26
ENDBRANCH  13  25
TORSDOF 3
ENDMDL
MODEL 4
REMARK VINA RESULT:     -11.0      3.675      6.888
REMARK  Name = 24748573
REMARK  3 active torsions:
REMARK  status: ('A' for Active; 'I' for Inactive)
REMARK    1  A    between atoms: N_2  and  C_18
REMARK    2  A    between atoms: C_13  and  C_25
REMARK    3  A    between atoms: C_25  and  O_26
REMARK                            x       y       z     vdW  Elec       q    Type
REMARK                         _______ _______ _______ _____ _____    ______ ____
ROOT
ATOM      1  N   UNL     1      33.806 -22.393 -16.647  0.00  0.00    -0.391 NA
ATOM      2  N   UNL     1      33.576 -23.750 -14.745  0.00  0.00    -0.288 N 
ATOM      3  N   UNL     1      38.475 -22.533 -14.692  0.00  0.00    -0.243 NA
ATOM      4  C   UNL     1      35.931 -21.422 -17.269  0.00  0.00    +0.098 C 
ATOM      5  C   UNL     1      36.543 -22.044 -16.132  0.00  0.00    +0.011 C 
ATOM      6  C   UNL     1      35.754 -22.831 -15.274  0.00  0.00    +0.044 C 
ATOM      7  C   UNL     1      34.549 -21.639 -17.472  0.00  0.00    +0.119 C 
ATOM      8  C   UNL     1      34.408 -22.966 -15.583  0.00  0.00    +0.183 C 
ATOM      9  C   UNL     1      36.625 -20.610 -18.199  0.00  0.00    -0.015 C 
ATOM     10  C   UNL     1      33.924 -21.051 -18.569  0.00  0.00    +0.035 C 
ATOM     11  C   UNL     1      36.317 -23.454 -14.152  0.00  0.00    +0.024 C 
ATOM     12  C   UNL     1      37.900 -21.944 -15.768  0.00  0.00    +0.095 C 
ATOM     13  C   UNL     1      34.622 -20.253 -19.474  0.00  0.00    +0.077 C 
ATOM     14  C   UNL     1      35.977 -20.032 -19.289  0.00  0.00    +0.003 C 
ATOM     15  C   UNL     1      37.666 -23.274 -13.911  0.00  0.00    +0.099 C 
ATOM     16  H   UNL     1      34.047 -24.491 -14.299  0.00  0.00    +0.155 HD
ENDROOT
BRANCH   2  18
ATOM     17 CL   UNL     1      28.916 -21.993 -15.947  0.00  0.00    -0.082 Cl
ATOM     18  C   UNL     1      32.211 -23.676 -14.428  0.00  0.00    +0.051 C 
ATOM     19  C   UNL     1      31.344 -22.953 -15.248  0.00  0.00    +0.026 C 
ATOM     20  C   UNL     1      31.721 -24.327 -13.296  0.00  0.00    +0.015 C 
ATOM     21  C   UNL     1      29.986 -22.883 -14.936  0.00  0.00    +0.059 C 
ATOM     22  C   UNL     1      30.363 -24.256 -12.984  0.00  0.00    +0.002 C 
ATOM     23  C   UNL     1      29.496 -23.535 -13.804  0.00  0.00    +0.011 C 
ENDBRANCH   2  18
BRANCH  13  25
ATOM     24  O   UNL     1      34.473 -19.061 -21.542  0.00  0.00    -0.245 OA
ATOM     25  C   UNL     1      33.931 -19.656 -20.605  0.00  0.00    +0.338 C 
BRANCH  25  26
ATOM     26  O   UNL     1      32.581 -19.820 -20.537  0.00  0.00    -0.477 OA
ATOM     27  H   UNL     1      32.015 -19.079 -20.625  0.00  0.00    +0.295 HD
ENDBRANCH  25  26
ENDBRANCH  13  25
TORSDOF 3
ENDMDL
MODEL 5
REMARK VINA RESULT:     -10.7      2.967      5.397
REMARK  Name = 24748573
REMARK  3 active torsions:
REMARK  status: ('A' for Active; 'I' for Inactive)
REMARK    1  A    between atoms: N_2  and  C_18
REMARK    2  A    between atoms: C_13  and  C_25
REMARK    3  A    between atoms: C_25  and  O_26
REMARK                            x       y       z     vdW  Elec       q    Type
REMARK                         _______ _______ _______ _____ _____    ______ ____
ROOT
ATOM      1  N   UNL     1      33.700 -22.723 -14.325  0.00  0.00    -0.391 NA
ATOM      2  N   UNL     1      32.166 -22.108 -15.994  0.00  0.00    -0.288 N 
ATOM      3  N   UNL     1      36.636 -21.312 -18.202  0.00  0.00    -0.243 NA
ATOM      4  C   UNL     1      36.088 -22.601 -14.682  0.00  0.00    +0.098 C 
ATOM      5  C   UNL     1      35.859 -22.113 -16.011  0.00  0.00    +0.011 C 
ATOM      6  C   UNL     1      34.538 -21.944 -16.461  0.00  0.00    +0.044 C 
ATOM      7  C   UNL     1      34.956 -22.889 -13.885  0.00  0.00    +0.119 C 
ATOM      8  C   UNL     1      33.514 -22.262 -15.580  0.00  0.00    +0.183 C 
ATOM      9  C   UNL     1      37.372 -22.810 -14.123  0.00  0.00    -0.015 C 
ATOM     10  C   UNL     1      35.143 -23.363 -12.589  0.00  0.00    +0.035 C 
ATOM     11  C   UNL     1      34.275 -21.469 -17.753  0.00  0.00    +0.024 C 
ATOM     12  C   UNL     1      36.855 -21.773 -16.947  0.00  0.00    +0.095 C 
ATOM     13  C   UNL     1      36.415 -23.563 -12.054  0.00  0.00    +0.077 C 
ATOM     14  C   UNL     1      37.533 -23.286 -12.823  0.00  0.00    +0.003 C 
ATOM     15  C   UNL     1      35.348 -21.171 -18.572  0.00  0.00    +0.099 C 
ATOM     16  H   UNL     1      32.033 -21.387 -16.651  0.00  0.00    +0.155 HD
ENDROOT
BRANCH   2  18
ATOM     17 CL   UNL     1      27.073 -21.976 -15.452  0.00  0.00    -0.082 Cl
ATOM     18  C   UNL     1      30.986 -22.782 -15.646  0.00  0.00    +0.051 C 
ATOM     19  C   UNL     1      29.759 -22.120 -15.712  0.00  0.00    +0.026 C 
ATOM     20  C   UNL     1      31.038 -24.115 -15.239  0.00  0.00    +0.015 C 
ATOM     21  C   UNL     1      28.586 -22.791 -15.370  0.00  0.00    +0.059 C 
ATOM     22  C   UNL     1      29.864 -24.786 -14.897  0.00  0.00    +0.002 C 
ATOM     23  C   UNL     1      28.638 -24.124 -14.963  0.00  0.00    +0.011 C 
ENDBRANCH   2  18
BRANCH  13  25
ATOM     24  O   UNL     1      35.649 -24.473  -9.979  0.00  0.00    -0.245 OA
ATOM     25  C   UNL     1      36.566 -24.062 -10.698  0.00  0.00    +0.338 C 
BRANCH  25  26
ATOM     26  O   UNL     1      37.860 -24.038 -10.275  0.00  0.00    -0.477 OA
ATOM     27  H   UNL     1      38.196 -23.279  -9.840  0.00  0.00    +0.295 HD
ENDBRANCH  25  26
ENDBRANCH  13  25
TORSDOF 3
ENDMDL
MODEL 6
REMARK VINA RESULT:     -10.5      3.239      5.992
REMARK  Name = 24748573
REMARK  3 active torsions:
REMARK  status: ('A' for Active; 'I' for Inactive)
REMARK    1  A    between atoms: N_2  and  C_18
REMARK    2  A    between atoms: C_13  and  C_25
REMARK    3  A    between atoms: C_25  and  O_26
REMARK                            x       y       z     vdW  Elec       q    Type
REMARK                         _______ _______ _______ _____ _____    ______ ____
ROOT
ATOM      1  N   UNL     1      34.118 -23.006 -15.295  0.00  0.00    -0.391 NA
ATOM      2  N   UNL     1      32.931 -24.178 -13.642  0.00  0.00    -0.288 N 
ATOM      3  N   UNL     1      37.271 -23.030 -11.334  0.00  0.00    -0.243 NA
ATOM      4  C   UNL     1      36.333 -22.127 -14.891  0.00  0.00    +0.098 C 
ATOM      5  C   UNL     1      36.292 -22.649 -13.557  0.00  0.00    +0.011 C 
ATOM      6  C   UNL     1      35.146 -23.343 -13.128  0.00  0.00    +0.044 C 
ATOM      7  C   UNL     1      35.205 -22.342 -15.716  0.00  0.00    +0.119 C 
ATOM      8  C   UNL     1      34.105 -23.486 -14.034  0.00  0.00    +0.183 C 
ATOM      9  C   UNL     1      37.431 -21.414 -15.431  0.00  0.00    -0.015 C 
ATOM     10  C   UNL     1      35.213 -21.849 -17.018  0.00  0.00    +0.035 C 
ATOM     11  C   UNL     1      35.069 -23.867 -11.830  0.00  0.00    +0.024 C 
ATOM     12  C   UNL     1      37.314 -22.536 -12.595  0.00  0.00    +0.095 C 
ATOM     13  C   UNL     1      36.303 -21.149 -17.533  0.00  0.00    +0.077 C 
ATOM     14  C   UNL     1      37.415 -20.931 -16.738  0.00  0.00    +0.003 C 
ATOM     15  C   UNL     1      36.147 -23.685 -10.985  0.00  0.00    +0.099 C 
ATOM     16  H   UNL     1      33.090 -24.881 -12.971  0.00  0.00    +0.155 HD
ENDROOT
BRANCH   2  18
ATOM     17 CL   UNL     1      29.381 -21.630 -16.317  0.00  0.00    -0.082 Cl
ATOM     18  C   UNL     1      31.587 -24.056 -14.026  0.00  0.00    +0.051 C 
ATOM     19  C   UNL     1      31.197 -23.023 -14.879  0.00  0.00    +0.026 C 
ATOM     20  C   UNL     1      30.642 -24.969 -13.558  0.00  0.00    +0.015 C 
ATOM     21  C   UNL     1      29.862 -22.904 -15.265  0.00  0.00    +0.059 C 
ATOM     22  C   UNL     1      29.307 -24.849 -13.944  0.00  0.00    +0.002 C 
ATOM     23  C   UNL     1      28.917 -23.817 -14.797  0.00  0.00    +0.011 C 
ENDBRANCH   2  18
BRANCH  13  25
ATOM     24  O   UNL     1      35.816 -21.258 -19.873  0.00  0.00    -0.245 OA
ATOM     25  C   UNL     1      36.270 -20.650 -18.898  0.00  0.00    +0.338 C 
BRANCH  25  26
ATOM     26  O   UNL     1      36.805 -19.402 -19.009  0.00  0.00    -0.477 OA
ATOM     27  H   UNL     1      37.735 -19.289 -19.005  0.00  0.00    +0.295 HD
ENDBRANCH  25  26
ENDBRANCH  13  25
TORSDOF 3
ENDMDL
MODEL 7
REMARK VINA RESULT:     -10.2      3.312      5.110
REMARK  Name = 24748573
REMARK  3 active torsions:
REMARK  status: ('A' for Active; 'I' for Inactive)
REMARK    1  A    between atoms: N_2  and  C_18
REMARK    2  A    between atoms: C_13  and  C_25
REMARK    3  A    between atoms: C_25  and  O_26
REMARK                            x       y       z     vdW  Elec       q    Type
REMARK                         _______ _______ _______ _____ _____    ______ ____
ROOT
ATOM      1  N   UNL     1      34.185 -22.175 -15.791  0.00  0.00    -0.391 NA
ATOM      2  N   UNL     1      36.268 -21.443 -16.593  0.00  0.00    -0.288 N 
ATOM      3  N   UNL     1      37.529 -24.762 -13.004  0.00  0.00    -0.243 NA
ATOM      4  C   UNL     1      34.006 -23.810 -14.020  0.00  0.00    +0.098 C 
ATOM      5  C   UNL     1      35.435 -23.883 -13.948  0.00  0.00    +0.011 C 
ATOM      6  C   UNL     1      36.206 -23.086 -14.814  0.00  0.00    +0.044 C 
ATOM      7  C   UNL     1      33.439 -22.930 -14.970  0.00  0.00    +0.119 C 
ATOM      8  C   UNL     1      35.529 -22.262 -15.702  0.00  0.00    +0.183 C 
ATOM      9  C   UNL     1      33.130 -24.564 -13.200  0.00  0.00    -0.015 C 
ATOM     10  C   UNL     1      32.053 -22.835 -15.066  0.00  0.00    +0.035 C 
ATOM     11  C   UNL     1      37.606 -23.130 -14.773  0.00  0.00    +0.024 C 
ATOM     12  C   UNL     1      36.176 -24.697 -13.070  0.00  0.00    +0.095 C 
ATOM     13  C   UNL     1      31.206 -23.584 -14.251  0.00  0.00    +0.077 C 
ATOM     14  C   UNL     1      31.746 -24.451 -13.315  0.00  0.00    +0.003 C 
ATOM     15  C   UNL     1      38.209 -23.975 -13.860  0.00  0.00    +0.099 C 
ATOM     16  H   UNL     1      37.143 -21.161 -16.240  0.00  0.00    +0.155 HD
ENDROOT
BRANCH   2  18
ATOM     17 CL   UNL     1      32.768 -20.147 -20.104  0.00  0.00    -0.082 Cl
ATOM     18  C   UNL     1      35.993 -20.957 -17.880  0.00  0.00    +0.051 C 
ATOM     19  C   UNL     1      34.671 -20.813 -18.304  0.00  0.00    +0.026 C 
ATOM     20  C   UNL     1      37.041 -20.615 -18.735  0.00  0.00    +0.015 C 
ATOM     21  C   UNL     1      34.398 -20.326 -19.582  0.00  0.00    +0.059 C 
ATOM     22  C   UNL     1      36.767 -20.128 -20.013  0.00  0.00    +0.002 C 
ATOM     23  C   UNL     1      35.446 -19.983 -20.436  0.00  0.00    +0.011 C 
ENDBRANCH   2  18
BRANCH  13  25
ATOM     24  O   UNL     1      29.170 -22.463 -14.814  0.00  0.00    -0.245 OA
ATOM     25  C   UNL     1      29.764 -23.457 -14.383  0.00  0.00    +0.338 C 
BRANCH  25  26
ATOM     26  O   UNL     1      29.103 -24.575 -13.976  0.00  0.00    -0.477 OA
ATOM     27  H   UNL     1      28.507 -25.004 -14.558  0.00  0.00    +0.295 HD
ENDBRANCH  25  26
ENDBRANCH  13  25
TORSDOF 3
ENDMDL
MODEL 8
REMARK VINA RESULT:      -9.9      9.505     12.400
REMARK  Name = 24748573
REMARK  3 active torsions:
REMARK  status: ('A' for Active; 'I' for Inactive)
REMARK    1  A    between atoms: N_2  and  C_18
REMARK    2  A    between atoms: C_13  and  C_25
REMARK    3  A    between atoms: C_25  and  O_26
REMARK                            x       y       z     vdW  Elec       q    Type
REMARK                         _______ _______ _______ _____ _____    ______ ____
ROOT
ATOM      1  N   UNL     1      34.024 -12.085 -22.563  0.00  0.00    -0.391 NA
ATOM      2  N   UNL     1      33.240  -9.936 -23.096  0.00  0.00    -0.288 N 
ATOM      3  N   UNL     1      31.143 -10.832 -18.592  0.00  0.00    -0.243 NA
ATOM      4  C   UNL     1      33.414 -13.188 -20.501  0.00  0.00    +0.098 C 
ATOM      5  C   UNL     1      32.628 -12.049 -20.129  0.00  0.00    +0.011 C 
ATOM      6  C   UNL     1      32.564 -10.947 -21.000  0.00  0.00    +0.044 C 
ATOM      7  C   UNL     1      34.092 -13.142 -21.740  0.00  0.00    +0.119 C 
ATOM      8  C   UNL     1      33.276 -11.026 -22.189  0.00  0.00    +0.183 C 
ATOM      9  C   UNL     1      33.551 -14.352 -19.705  0.00  0.00    -0.015 C 
ATOM     10  C   UNL     1      34.864 -14.234 -22.132  0.00  0.00    +0.035 C 
ATOM     11  C   UNL     1      31.806  -9.815 -20.671  0.00  0.00    +0.024 C 
ATOM     12  C   UNL     1      31.885 -11.911 -18.940  0.00  0.00    +0.095 C 
ATOM     13  C   UNL     1      34.988 -15.371 -21.336  0.00  0.00    +0.077 C 
ATOM     14  C   UNL     1      34.330 -15.431 -20.119  0.00  0.00    +0.003 C 
ATOM     15  C   UNL     1      31.123  -9.810 -19.470  0.00  0.00    +0.099 C 
ATOM     16  H   UNL     1      32.400  -9.423 -23.067  0.00  0.00    +0.155 HD
ENDROOT
BRANCH   2  18
ATOM     17 CL   UNL     1      35.912 -10.711 -27.399  0.00  0.00    -0.082 Cl
ATOM     18  C   UNL     1      34.170  -9.449 -24.027  0.00  0.00    +0.051 C 
ATOM     19  C   UNL     1      34.538 -10.232 -25.121  0.00  0.00    +0.026 C 
ATOM     20  C   UNL     1      34.724  -8.179 -23.860  0.00  0.00    +0.015 C 
ATOM     21  C   UNL     1      35.459  -9.745 -26.049  0.00  0.00    +0.059 C 
ATOM     22  C   UNL     1      35.645  -7.693 -24.788  0.00  0.00    +0.002 C 
ATOM     23  C   UNL     1      36.012  -8.476 -25.882  0.00  0.00    +0.011 C 
ENDBRANCH   2  18
BRANCH  13  25
ATOM     24  O   UNL     1      36.318 -17.338 -21.045  0.00  0.00    -0.245 OA
ATOM     25  C   UNL     1      35.805 -16.488 -21.781  0.00  0.00    +0.338 C 
BRANCH  25  26
ATOM     26  O   UNL     1      35.958 -16.515 -23.134  0.00  0.00    -0.477 OA
ATOM     27  H   UNL     1      36.801 -16.358 -23.513  0.00  0.00    +0.295 HD
ENDBRANCH  25  26
ENDBRANCH  13  25
TORSDOF 3
ENDMDL
