MODEL 1
REMARK VINA RESULT:     -11.8      0.000      0.000
REMARK  Name = 5288527
REMARK  4 active torsions:
REMARK  status: ('A' for Active; 'I' for Inactive)
REMARK    1  A    between atoms: N_1  and  C_18
REMARK    2  A    between atoms: C_4  and  C_11
REMARK    3  A    between atoms: C_19  and  S_24
REMARK    4  A    between atoms: S_24  and  N_27
REMARK                            x       y       z     vdW  Elec       q    Type
REMARK                         _______ _______ _______ _____ _____    ______ ____
ROOT
ATOM      1  N   UNL     1      32.800 -23.954 -12.641  0.00  0.00    -0.247 N 
ATOM      2  N   UNL     1      34.579 -23.070 -13.888  0.00  0.00    -0.336 NA
ATOM      3  N   UNL     1      34.971 -24.169 -11.779  0.00  0.00    -0.170 NA
ATOM      4  C   UNL     1      35.908 -22.866 -13.981  0.00  0.00    +0.161 C 
ATOM      5  C   UNL     1      34.185 -23.719 -12.776  0.00  0.00    +0.149 C 
ATOM      6  C   UNL     1      36.821 -23.274 -13.033  0.00  0.00    +0.056 C 
ATOM      7  C   UNL     1      36.289 -23.928 -11.941  0.00  0.00    +0.114 C 
ATOM      8  H   UNL     1      32.557 -24.431 -11.814  0.00  0.00    +0.165 HD
ENDROOT
BRANCH   4  11
ATOM      9  N   UNL     1      35.553 -21.991 -16.293  0.00  0.00    -0.246 N 
ATOM     10  N   UNL     1      37.515 -21.003 -16.715  0.00  0.00    -0.227 NA
ATOM     11  C   UNL     1      36.326 -22.169 -15.174  0.00  0.00    +0.107 C 
ATOM     12  C   UNL     1      36.323 -21.274 -17.205  0.00  0.00    +0.139 C 
ATOM     13  C   UNL     1      37.523 -21.554 -15.459  0.00  0.00    +0.118 C 
ATOM     14  C   UNL     1      34.251 -22.412 -16.546  0.00  0.00    +0.071 C 
ATOM     15  C   UNL     1      35.720 -20.967 -18.460  0.00  0.00    +0.035 C 
ATOM     16  C   UNL     1      33.690 -22.119 -17.730  0.00  0.00    +0.017 C 
ATOM     17  C   UNL     1      34.460 -21.371 -18.712  0.00  0.00    +0.004 C 
ENDBRANCH   4  11
BRANCH   1  18
ATOM     18  C   UNL     1      31.696 -23.641 -13.457  0.00  0.00    +0.058 C 
ATOM     19  C   UNL     1      29.508 -23.018 -15.076  0.00  0.00    +0.122 C 
ATOM     20  C   UNL     1      30.823 -24.649 -13.873  0.00  0.00    +0.017 C 
ATOM     21  C   UNL     1      31.471 -22.321 -13.853  0.00  0.00    +0.017 C 
ATOM     22  C   UNL     1      29.731 -24.338 -14.681  0.00  0.00    +0.021 C 
ATOM     23  C   UNL     1      30.378 -22.010 -14.662  0.00  0.00    +0.021 C 
BRANCH  19  24
ATOM     24  S   UNL     1      28.140 -22.629 -16.089  0.00  0.00    +0.057 S 
ATOM     25  O   UNL     1      28.435 -21.394 -16.802  0.00  0.00    -0.153 OA
ATOM     26  O   UNL     1      27.760 -23.821 -16.833  0.00  0.00    -0.153 OA
BRANCH  24  27
ATOM     27  N   UNL     1      26.942 -22.313 -14.912  0.00  0.00    -0.203 NA
ATOM     28  H   UNL     1      26.040 -22.649 -15.247  0.00  0.00    +0.144 HD
ATOM     29  H   UNL     1      26.890 -21.308 -14.741  0.00  0.00    +0.144 HD
ENDBRANCH  24  27
ENDBRANCH  19  24
ENDBRANCH   1  18
TORSDOF 4
ENDMDL
MODEL 2
REMARK VINA RESULT:     -11.2      4.229      6.655
REMARK  Name = 5288527
REMARK  4 active torsions:
REMARK  status: ('A' for Active; 'I' for Inactive)
REMARK    1  A    between atoms: N_1  and  C_18
REMARK    2  A    between atoms: C_4  and  C_11
REMARK    3  A    between atoms: C_19  and  S_24
REMARK    4  A    between atoms: S_24  and  N_27
REMARK                            x       y       z     vdW  Elec       q    Type
REMARK                         _______ _______ _______ _____ _____    ______ ____
ROOT
ATOM      1  N   UNL     1      32.742 -21.676 -17.823  0.00  0.00    -0.247 N 
ATOM      2  N   UNL     1      34.311 -22.336 -16.209  0.00  0.00    -0.336 NA
ATOM      3  N   UNL     1      32.021 -23.073 -16.081  0.00  0.00    -0.170 NA
ATOM      4  C   UNL     1      34.556 -23.037 -15.084  0.00  0.00    +0.161 C 
ATOM      5  C   UNL     1      33.040 -22.397 -16.646  0.00  0.00    +0.149 C 
ATOM      6  C   UNL     1      33.605 -23.769 -14.408  0.00  0.00    +0.056 C 
ATOM      7  C   UNL     1      32.340 -23.750 -14.959  0.00  0.00    +0.114 C 
ATOM      8  H   UNL     1      31.801 -21.750 -18.105  0.00  0.00    +0.165 HD
ENDROOT
BRANCH   4  11
ATOM      9  N   UNL     1      36.732 -24.051 -14.395  0.00  0.00    -0.246 N 
ATOM     10  N   UNL     1      37.945 -22.238 -13.898  0.00  0.00    -0.227 NA
ATOM     11  C   UNL     1      35.921 -22.968 -14.618  0.00  0.00    +0.107 C 
ATOM     12  C   UNL     1      37.957 -23.554 -13.957  0.00  0.00    +0.139 C 
ATOM     13  C   UNL     1      36.688 -21.870 -14.307  0.00  0.00    +0.118 C 
ATOM     14  C   UNL     1      36.461 -25.408 -14.551  0.00  0.00    +0.071 C 
ATOM     15  C   UNL     1      38.972 -24.509 -13.658  0.00  0.00    +0.035 C 
ATOM     16  C   UNL     1      37.423 -26.301 -14.267  0.00  0.00    +0.017 C 
ATOM     17  C   UNL     1      38.717 -25.823 -13.806  0.00  0.00    +0.004 C 
ENDBRANCH   4  11
BRANCH   1  18
ATOM     18  C   UNL     1      33.526 -20.874 -18.673  0.00  0.00    +0.058 C 
ATOM     19  C   UNL     1      35.081 -19.281 -20.359  0.00  0.00    +0.122 C 
ATOM     20  C   UNL     1      34.919 -20.977 -18.646  0.00  0.00    +0.017 C 
ATOM     21  C   UNL     1      32.914 -19.972 -19.546  0.00  0.00    +0.017 C 
ATOM     22  C   UNL     1      35.695 -20.182 -19.487  0.00  0.00    +0.021 C 
ATOM     23  C   UNL     1      33.691 -19.176 -20.387  0.00  0.00    +0.021 C 
BRANCH  19  24
ATOM     24  S   UNL     1      36.053 -18.284 -21.412  0.00  0.00    +0.057 S 
ATOM     25  O   UNL     1      37.449 -18.429 -21.023  0.00  0.00    -0.153 OA
ATOM     26  O   UNL     1      35.657 -18.542 -22.789  0.00  0.00    -0.153 OA
BRANCH  24  27
ATOM     27  N   UNL     1      35.517 -16.723 -20.971  0.00  0.00    -0.203 NA
ATOM     28  H   UNL     1      34.759 -16.803 -20.294  0.00  0.00    +0.144 HD
ATOM     29  H   UNL     1      35.183 -16.231 -21.800  0.00  0.00    +0.144 HD
ENDBRANCH  24  27
ENDBRANCH  19  24
ENDBRANCH   1  18
TORSDOF 4
ENDMDL
MODEL 3
REMARK VINA RESULT:     -11.2      4.864      6.876
REMARK  Name = 5288527
REMARK  4 active torsions:
REMARK  status: ('A' for Active; 'I' for Inactive)
REMARK    1  A    between atoms: N_1  and  C_18
REMARK    2  A    between atoms: C_4  and  C_11
REMARK    3  A    between atoms: C_19  and  S_24
REMARK    4  A    between atoms: S_24  and  N_27
REMARK                            x       y       z     vdW  Elec       q    Type
REMARK                         _______ _______ _______ _____ _____    ______ ____
ROOT
ATOM      1  N   UNL     1      34.808 -24.212 -12.675  0.00  0.00    -0.247 N 
ATOM      2  N   UNL     1      33.959 -23.156 -14.589  0.00  0.00    -0.336 NA
ATOM      3  N   UNL     1      32.546 -23.592 -12.687  0.00  0.00    -0.170 NA
ATOM      4  C   UNL     1      32.894 -22.601 -15.201  0.00  0.00    +0.161 C 
ATOM      5  C   UNL     1      33.717 -23.624 -13.351  0.00  0.00    +0.149 C 
ATOM      6  C   UNL     1      31.642 -22.505 -14.635  0.00  0.00    +0.056 C 
ATOM      7  C   UNL     1      31.525 -23.023 -13.362  0.00  0.00    +0.114 C 
ATOM      8  H   UNL     1      34.586 -24.541 -11.773  0.00  0.00    +0.165 HD
ENDROOT
BRANCH   4  11
ATOM      9  N   UNL     1      34.394 -21.743 -17.004  0.00  0.00    -0.246 N 
ATOM     10  N   UNL     1      32.948 -21.392 -18.674  0.00  0.00    -0.227 NA
ATOM     11  C   UNL     1      33.158 -22.100 -16.529  0.00  0.00    +0.107 C 
ATOM     12  C   UNL     1      34.214 -21.317 -18.317  0.00  0.00    +0.139 C 
ATOM     13  C   UNL     1      32.290 -21.876 -17.572  0.00  0.00    +0.118 C 
ATOM     14  C   UNL     1      35.631 -21.770 -16.365  0.00  0.00    +0.071 C 
ATOM     15  C   UNL     1      35.376 -20.891 -19.024  0.00  0.00    +0.035 C 
ATOM     16  C   UNL     1      36.720 -21.366 -17.037  0.00  0.00    +0.017 C 
ATOM     17  C   UNL     1      36.576 -20.914 -18.412  0.00  0.00    +0.004 C 
ENDBRANCH   4  11
BRANCH   1  18
ATOM     18  C   UNL     1      36.153 -24.421 -13.036  0.00  0.00    +0.058 C 
ATOM     19  C   UNL     1      38.819 -24.835 -13.755  0.00  0.00    +0.122 C 
ATOM     20  C   UNL     1      37.179 -23.880 -12.259  0.00  0.00    +0.017 C 
ATOM     21  C   UNL     1      36.464 -25.169 -14.174  0.00  0.00    +0.017 C 
ATOM     22  C   UNL     1      38.511 -24.087 -12.618  0.00  0.00    +0.021 C 
ATOM     23  C   UNL     1      37.795 -25.376 -14.532  0.00  0.00    +0.021 C 
BRANCH  19  24
ATOM     24  S   UNL     1      40.486 -25.093 -14.205  0.00  0.00    +0.057 S 
ATOM     25  O   UNL     1      41.253 -23.917 -13.819  0.00  0.00    -0.153 OA
ATOM     26  O   UNL     1      40.895 -26.409 -13.734  0.00  0.00    -0.153 OA
BRANCH  24  27
ATOM     27  N   UNL     1      40.361 -25.136 -15.909  0.00  0.00    -0.203 NA
ATOM     28  H   UNL     1      41.218 -24.768 -16.321  0.00  0.00    +0.144 HD
ATOM     29  H   UNL     1      39.568 -24.566 -16.206  0.00  0.00    +0.144 HD
ENDBRANCH  24  27
ENDBRANCH  19  24
ENDBRANCH   1  18
TORSDOF 4
ENDMDL
MODEL 4
REMARK VINA RESULT:     -11.1      4.060      6.749
REMARK  Name = 5288527
REMARK  4 active torsions:
REMARK  status: ('A' for Active; 'I' for Inactive)
REMARK    1  A    between atoms: N_1  and  C_18
REMARK    2  A    between atoms: C_4  and  C_11
REMARK    3  A    between atoms: C_19  and  S_24
REMARK    4  A    between atoms: S_24  and  N_27
REMARK                            x       y       z     vdW  Elec       q    Type
REMARK                         _______ _______ _______ _____ _____    ______ ____
ROOT
ATOM      1  N   UNL     1      32.686 -21.743 -17.788  0.00  0.00    -0.247 N 
ATOM      2  N   UNL     1      34.181 -22.285 -16.064  0.00  0.00    -0.336 NA
ATOM      3  N   UNL     1      31.919 -23.113 -16.045  0.00  0.00    -0.170 NA
ATOM      4  C   UNL     1      34.387 -22.940 -14.904  0.00  0.00    +0.161 C 
ATOM      5  C   UNL     1      32.941 -22.413 -16.572  0.00  0.00    +0.149 C 
ATOM      6  C   UNL     1      33.427 -23.689 -14.260  0.00  0.00    +0.056 C 
ATOM      7  C   UNL     1      32.198 -23.741 -14.883  0.00  0.00    +0.114 C 
ATOM      8  H   UNL     1      31.767 -21.865 -18.122  0.00  0.00    +0.165 HD
ENDROOT
BRANCH   4  11
ATOM      9  N   UNL     1      36.075 -23.084 -13.069  0.00  0.00    -0.246 N 
ATOM     10  N   UNL     1      37.933 -22.384 -14.100  0.00  0.00    -0.227 NA
ATOM     11  C   UNL     1      35.717 -22.799 -14.362  0.00  0.00    +0.107 C 
ATOM     12  C   UNL     1      37.437 -22.815 -12.959  0.00  0.00    +0.139 C 
ATOM     13  C   UNL     1      36.874 -22.372 -14.972  0.00  0.00    +0.118 C 
ATOM     14  C   UNL     1      35.294 -23.553 -12.016  0.00  0.00    +0.071 C 
ATOM     15  C   UNL     1      38.039 -23.041 -11.686  0.00  0.00    +0.035 C 
ATOM     16  C   UNL     1      35.869 -23.763 -10.821  0.00  0.00    +0.017 C 
ATOM     17  C   UNL     1      37.290 -23.494 -10.663  0.00  0.00    +0.004 C 
ENDBRANCH   4  11
BRANCH   1  18
ATOM     18  C   UNL     1      33.487 -20.935 -18.617  0.00  0.00    +0.058 C 
ATOM     19  C   UNL     1      35.074 -19.332 -20.263  0.00  0.00    +0.122 C 
ATOM     20  C   UNL     1      34.878 -21.043 -18.568  0.00  0.00    +0.017 C 
ATOM     21  C   UNL     1      32.892 -20.024 -19.492  0.00  0.00    +0.017 C 
ATOM     22  C   UNL     1      35.671 -20.243 -19.390  0.00  0.00    +0.021 C 
ATOM     23  C   UNL     1      33.684 -19.223 -20.314  0.00  0.00    +0.021 C 
BRANCH  19  24
ATOM     24  S   UNL     1      36.066 -18.329 -21.291  0.00  0.00    +0.057 S 
ATOM     25  O   UNL     1      37.458 -18.508 -20.902  0.00  0.00    -0.153 OA
ATOM     26  O   UNL     1      35.669 -18.549 -22.675  0.00  0.00    -0.153 OA
BRANCH  24  27
ATOM     27  N   UNL     1      35.556 -16.769 -20.815  0.00  0.00    -0.203 NA
ATOM     28  H   UNL     1      36.325 -16.110 -20.934  0.00  0.00    +0.144 HD
ATOM     29  H   UNL     1      35.272 -16.789 -19.836  0.00  0.00    +0.144 HD
ENDBRANCH  24  27
ENDBRANCH  19  24
ENDBRANCH   1  18
TORSDOF 4
ENDMDL
MODEL 5
REMARK VINA RESULT:     -10.6      1.016      1.486
REMARK  Name = 5288527
REMARK  4 active torsions:
REMARK  status: ('A' for Active; 'I' for Inactive)
REMARK    1  A    between atoms: N_1  and  C_18
REMARK    2  A    between atoms: C_4  and  C_11
REMARK    3  A    between atoms: C_19  and  S_24
REMARK    4  A    between atoms: S_24  and  N_27
REMARK                            x       y       z     vdW  Elec       q    Type
REMARK                         _______ _______ _______ _____ _____    ______ ____
ROOT
ATOM      1  N   UNL     1      33.353 -23.958 -13.687  0.00  0.00    -0.247 N 
ATOM      2  N   UNL     1      34.849 -22.782 -15.059  0.00  0.00    -0.336 NA
ATOM      3  N   UNL     1      35.639 -24.047 -13.167  0.00  0.00    -0.170 NA
ATOM      4  C   UNL     1      36.129 -22.440 -15.311  0.00  0.00    +0.161 C 
ATOM      5  C   UNL     1      34.679 -23.577 -13.986  0.00  0.00    +0.149 C 
ATOM      6  C   UNL     1      37.202 -22.853 -14.554  0.00  0.00    +0.056 C 
ATOM      7  C   UNL     1      36.894 -23.664 -13.481  0.00  0.00    +0.114 C 
ATOM      8  H   UNL     1      33.276 -24.538 -12.895  0.00  0.00    +0.165 HD
ENDROOT
BRANCH   4  11
ATOM      9  N   UNL     1      35.407 -21.455 -17.490  0.00  0.00    -0.246 N 
ATOM     10  N   UNL     1      37.129 -20.113 -17.978  0.00  0.00    -0.227 NA
ATOM     11  C   UNL     1      36.306 -21.587 -16.462  0.00  0.00    +0.107 C 
ATOM     12  C   UNL     1      35.955 -20.544 -18.390  0.00  0.00    +0.139 C 
ATOM     13  C   UNL     1      37.351 -20.754 -16.786  0.00  0.00    +0.118 C 
ATOM     14  C   UNL     1      34.173 -22.073 -17.672  0.00  0.00    +0.071 C 
ATOM     15  C   UNL     1      35.188 -20.245 -19.554  0.00  0.00    +0.035 C 
ATOM     16  C   UNL     1      33.457 -21.786 -18.771  0.00  0.00    +0.017 C 
ATOM     17  C   UNL     1      33.993 -20.839 -19.738  0.00  0.00    +0.004 C 
ENDBRANCH   4  11
BRANCH   1  18
ATOM     18  C   UNL     1      32.119 -23.672 -14.300  0.00  0.00    +0.058 C 
ATOM     19  C   UNL     1      29.669 -23.105 -15.515  0.00  0.00    +0.122 C 
ATOM     20  C   UNL     1      31.950 -22.484 -15.014  0.00  0.00    +0.017 C 
ATOM     21  C   UNL     1      31.059 -24.576 -14.196  0.00  0.00    +0.017 C 
ATOM     22  C   UNL     1      30.727 -22.201 -15.621  0.00  0.00    +0.021 C 
ATOM     23  C   UNL     1      29.836 -24.293 -14.803  0.00  0.00    +0.021 C 
BRANCH  19  24
ATOM     24  S   UNL     1      28.137 -22.751 -16.274  0.00  0.00    +0.057 S 
ATOM     25  O   UNL     1      28.266 -21.497 -17.004  0.00  0.00    -0.153 OA
ATOM     26  O   UNL     1      27.676 -23.946 -16.966  0.00  0.00    -0.153 OA
BRANCH  24  27
ATOM     27  N   UNL     1      27.147 -22.493 -14.905  0.00  0.00    -0.203 NA
ATOM     28  H   UNL     1      27.671 -22.720 -14.061  0.00  0.00    +0.144 HD
ATOM     29  H   UNL     1      26.322 -23.090 -14.966  0.00  0.00    +0.144 HD
ENDBRANCH  24  27
ENDBRANCH  19  24
ENDBRANCH   1  18
TORSDOF 4
ENDMDL
MODEL 6
REMARK VINA RESULT:      -9.5      2.544      4.102
REMARK  Name = 5288527
REMARK  4 active torsions:
REMARK  status: ('A' for Active; 'I' for Inactive)
REMARK    1  A    between atoms: N_1  and  C_18
REMARK    2  A    between atoms: C_4  and  C_11
REMARK    3  A    between atoms: C_19  and  S_24
REMARK    4  A    between atoms: S_24  and  N_27
REMARK                            x       y       z     vdW  Elec       q    Type
REMARK                         _______ _______ _______ _____ _____    ______ ____
ROOT
ATOM      1  N   UNL     1      34.587 -22.849 -15.161  0.00  0.00    -0.247 N 
ATOM      2  N   UNL     1      34.853 -21.591 -17.123  0.00  0.00    -0.336 NA
ATOM      3  N   UNL     1      36.750 -22.158 -15.750  0.00  0.00    -0.170 NA
ATOM      4  C   UNL     1      35.699 -20.949 -17.953  0.00  0.00    +0.161 C 
ATOM      5  C   UNL     1      35.439 -22.165 -16.055  0.00  0.00    +0.149 C 
ATOM      6  C   UNL     1      37.059 -20.866 -17.757  0.00  0.00    +0.056 C 
ATOM      7  C   UNL     1      37.535 -21.497 -16.626  0.00  0.00    +0.114 C 
ATOM      8  H   UNL     1      35.057 -23.253 -14.396  0.00  0.00    +0.165 HD
ENDROOT
BRANCH   4  11
ATOM      9  N   UNL     1      35.692 -19.498 -19.986  0.00  0.00    -0.246 N 
ATOM     10  N   UNL     1      33.571 -19.684 -20.674  0.00  0.00    -0.227 NA
ATOM     11  C   UNL     1      35.066 -20.334 -19.096  0.00  0.00    +0.107 C 
ATOM     12  C   UNL     1      34.737 -19.129 -20.930  0.00  0.00    +0.139 C 
ATOM     13  C   UNL     1      33.769 -20.432 -19.540  0.00  0.00    +0.118 C 
ATOM     14  C   UNL     1      37.012 -19.058 -20.011  0.00  0.00    +0.071 C 
ATOM     15  C   UNL     1      35.162 -18.250 -21.970  0.00  0.00    +0.035 C 
ATOM     16  C   UNL     1      37.404 -18.231 -20.993  0.00  0.00    +0.017 C 
ATOM     17  C   UNL     1      36.438 -17.820 -22.000  0.00  0.00    +0.004 C 
ENDBRANCH   4  11
BRANCH   1  18
ATOM     18  C   UNL     1      33.196 -23.067 -15.148  0.00  0.00    +0.058 C 
ATOM     19  C   UNL     1      30.438 -23.501 -15.121  0.00  0.00    +0.122 C 
ATOM     20  C   UNL     1      32.380 -22.446 -16.096  0.00  0.00    +0.017 C 
ATOM     21  C   UNL     1      32.628 -23.907 -14.187  0.00  0.00    +0.017 C 
ATOM     22  C   UNL     1      31.003 -22.662 -16.082  0.00  0.00    +0.021 C 
ATOM     23  C   UNL     1      31.251 -24.123 -14.174  0.00  0.00    +0.021 C 
BRANCH  19  24
ATOM     24  S   UNL     1      28.713 -23.772 -15.104  0.00  0.00    +0.057 S 
ATOM     25  O   UNL     1      28.065 -22.570 -14.598  0.00  0.00    -0.153 OA
ATOM     26  O   UNL     1      28.317 -24.319 -16.394  0.00  0.00    -0.153 OA
BRANCH  24  27
ATOM     27  N   UNL     1      28.588 -25.003 -13.925  0.00  0.00    -0.203 NA
ATOM     28  H   UNL     1      29.388 -25.631 -14.004  0.00  0.00    +0.144 HD
ATOM     29  H   UNL     1      27.726 -25.529 -14.073  0.00  0.00    +0.144 HD
ENDBRANCH  24  27
ENDBRANCH  19  24
ENDBRANCH   1  18
TORSDOF 4
ENDMDL
MODEL 7
REMARK VINA RESULT:      -9.5      8.875     12.010
REMARK  Name = 5288527
REMARK  4 active torsions:
REMARK  status: ('A' for Active; 'I' for Inactive)
REMARK    1  A    between atoms: N_1  and  C_18
REMARK    2  A    between atoms: C_4  and  C_11
REMARK    3  A    between atoms: C_19  and  S_24
REMARK    4  A    between atoms: S_24  and  N_27
REMARK                            x       y       z     vdW  Elec       q    Type
REMARK                         _______ _______ _______ _____ _____    ______ ____
ROOT
ATOM      1  N   UNL     1      35.179 -16.373 -23.746  0.00  0.00    -0.247 N 
ATOM      2  N   UNL     1      34.085 -14.638 -22.607  0.00  0.00    -0.336 NA
ATOM      3  N   UNL     1      34.542 -14.474 -24.967  0.00  0.00    -0.170 NA
ATOM      4  C   UNL     1      33.513 -13.420 -22.675  0.00  0.00    +0.161 C 
ATOM      5  C   UNL     1      34.572 -15.098 -23.775  0.00  0.00    +0.149 C 
ATOM      6  C   UNL     1      33.416 -12.675 -23.830  0.00  0.00    +0.056 C 
ATOM      7  C   UNL     1      33.954 -13.259 -24.959  0.00  0.00    +0.114 C 
ATOM      8  H   UNL     1      35.520 -16.669 -24.621  0.00  0.00    +0.165 HD
ENDROOT
BRANCH   4  11
ATOM      9  N   UNL     1      32.644 -11.627 -21.168  0.00  0.00    -0.246 N 
ATOM     10  N   UNL     1      32.243 -12.767 -19.286  0.00  0.00    -0.227 NA
ATOM     11  C   UNL     1      32.993 -12.930 -21.421  0.00  0.00    +0.107 C 
ATOM     12  C   UNL     1      32.193 -11.579 -19.852  0.00  0.00    +0.139 C 
ATOM     13  C   UNL     1      32.736 -13.607 -20.252  0.00  0.00    +0.118 C 
ATOM     14  C   UNL     1      32.701 -10.517 -22.005  0.00  0.00    +0.071 C 
ATOM     15  C   UNL     1      31.770 -10.309 -19.360  0.00  0.00    +0.035 C 
ATOM     16  C   UNL     1      32.302  -9.325 -21.534  0.00  0.00    +0.017 C 
ATOM     17  C   UNL     1      31.823  -9.230 -20.164  0.00  0.00    +0.004 C 
ENDBRANCH   4  11
BRANCH   1  18
ATOM     18  C   UNL     1      35.391 -17.304 -22.712  0.00  0.00    +0.058 C 
ATOM     19  C   UNL     1      35.812 -19.152 -20.661  0.00  0.00    +0.122 C 
ATOM     20  C   UNL     1      36.481 -17.159 -21.851  0.00  0.00    +0.017 C 
ATOM     21  C   UNL     1      34.512 -18.376 -22.544  0.00  0.00    +0.017 C 
ATOM     22  C   UNL     1      36.691 -18.082 -20.828  0.00  0.00    +0.021 C 
ATOM     23  C   UNL     1      34.722 -19.299 -21.520  0.00  0.00    +0.021 C 
BRANCH  19  24
ATOM     24  S   UNL     1      36.075 -20.308 -19.380  0.00  0.00    +0.057 S 
ATOM     25  O   UNL     1      36.529 -21.557 -19.975  0.00  0.00    -0.153 OA
ATOM     26  O   UNL     1      36.868 -19.672 -18.338  0.00  0.00    -0.153 OA
BRANCH  24  27
ATOM     27  N   UNL     1      34.481 -20.521 -18.801  0.00  0.00    -0.203 NA
ATOM     28  H   UNL     1      34.001 -21.213 -19.375  0.00  0.00    +0.144 HD
ATOM     29  H   UNL     1      33.980 -19.633 -18.848  0.00  0.00    +0.144 HD
ENDBRANCH  24  27
ENDBRANCH  19  24
ENDBRANCH   1  18
TORSDOF 4
ENDMDL
MODEL 8
REMARK VINA RESULT:      -9.4     11.208     14.158
REMARK  Name = 5288527
REMARK  4 active torsions:
REMARK  status: ('A' for Active; 'I' for Inactive)
REMARK    1  A    between atoms: N_1  and  C_18
REMARK    2  A    between atoms: C_4  and  C_11
REMARK    3  A    between atoms: C_19  and  S_24
REMARK    4  A    between atoms: S_24  and  N_27
REMARK                            x       y       z     vdW  Elec       q    Type
REMARK                         _______ _______ _______ _____ _____    ______ ____
ROOT
ATOM      1  N   UNL     1      33.293 -10.288 -24.043  0.00  0.00    -0.247 N 
ATOM      2  N   UNL     1      33.981 -12.295 -23.041  0.00  0.00    -0.336 NA
ATOM      3  N   UNL     1      33.782 -12.112 -25.435  0.00  0.00    -0.170 NA
ATOM      4  C   UNL     1      34.372 -13.573 -23.212  0.00  0.00    +0.161 C 
ATOM      5  C   UNL     1      33.705 -11.631 -24.179  0.00  0.00    +0.149 C 
ATOM      6  C   UNL     1      34.491 -14.186 -24.440  0.00  0.00    +0.056 C 
ATOM      7  C   UNL     1      34.180 -13.398 -25.529  0.00  0.00    +0.114 C 
ATOM      8  H   UNL     1      33.103  -9.843 -24.900  0.00  0.00    +0.165 HD
ENDROOT
BRANCH   4  11
ATOM      9  N   UNL     1      35.079 -15.586 -21.915  0.00  0.00    -0.246 N 
ATOM     10  N   UNL     1      34.967 -14.837 -19.810  0.00  0.00    -0.227 NA
ATOM     11  C   UNL     1      34.665 -14.281 -21.989  0.00  0.00    +0.107 C 
ATOM     12  C   UNL     1      35.250 -15.879 -20.564  0.00  0.00    +0.139 C 
ATOM     13  C   UNL     1      34.605 -13.845 -20.686  0.00  0.00    +0.118 C 
ATOM     14  C   UNL     1      35.306 -16.503 -22.937  0.00  0.00    +0.071 C 
ATOM     15  C   UNL     1      35.682 -17.198 -20.238  0.00  0.00    +0.035 C 
ATOM     16  C   UNL     1      35.713 -17.743 -22.622  0.00  0.00    +0.017 C 
ATOM     17  C   UNL     1      35.904 -18.091 -21.222  0.00  0.00    +0.004 C 
ENDBRANCH   4  11
BRANCH   1  18
ATOM     18  C   UNL     1      33.101  -9.460 -22.921  0.00  0.00    +0.058 C 
ATOM     19  C   UNL     1      32.719  -7.818 -20.694  0.00  0.00    +0.122 C 
ATOM     20  C   UNL     1      33.838  -8.281 -22.785  0.00  0.00    +0.017 C 
ATOM     21  C   UNL     1      32.172  -9.815 -21.940  0.00  0.00    +0.017 C 
ATOM     22  C   UNL     1      33.647  -7.462 -21.674  0.00  0.00    +0.021 C 
ATOM     23  C   UNL     1      31.982  -8.995 -20.828  0.00  0.00    +0.021 C 
BRANCH  19  24
ATOM     24  S   UNL     1      32.480  -6.792 -19.302  0.00  0.00    +0.057 S 
ATOM     25  O   UNL     1      31.757  -5.602 -19.727  0.00  0.00    -0.153 OA
ATOM     26  O   UNL     1      31.959  -7.605 -18.212  0.00  0.00    -0.153 OA
BRANCH  24  27
ATOM     27  N   UNL     1      34.093  -6.357 -18.937  0.00  0.00    -0.203 NA
ATOM     28  H   UNL     1      34.708  -6.681 -19.682  0.00  0.00    +0.144 HD
ATOM     29  H   UNL     1      34.370  -6.788 -18.055  0.00  0.00    +0.144 HD
ENDBRANCH  24  27
ENDBRANCH  19  24
ENDBRANCH   1  18
TORSDOF 4
ENDMDL
MODEL 9
REMARK VINA RESULT:      -9.2      3.877      7.245
REMARK  Name = 5288527
REMARK  4 active torsions:
REMARK  status: ('A' for Active; 'I' for Inactive)
REMARK    1  A    between atoms: N_1  and  C_18
REMARK    2  A    between atoms: C_4  and  C_11
REMARK    3  A    between atoms: C_19  and  S_24
REMARK    4  A    between atoms: S_24  and  N_27
REMARK                            x       y       z     vdW  Elec       q    Type
REMARK                         _______ _______ _______ _____ _____    ______ ____
ROOT
ATOM      1  N   UNL     1      36.715 -21.425 -17.301  0.00  0.00    -0.247 N 
ATOM      2  N   UNL     1      34.592 -22.072 -16.539  0.00  0.00    -0.336 NA
ATOM      3  N   UNL     1      36.592 -22.869 -15.456  0.00  0.00    -0.170 NA
ATOM      4  C   UNL     1      33.875 -22.785 -15.648  0.00  0.00    +0.161 C 
ATOM      5  C   UNL     1      35.927 -22.158 -16.387  0.00  0.00    +0.149 C 
ATOM      6  C   UNL     1      34.430 -23.553 -14.648  0.00  0.00    +0.056 C 
ATOM      7  C   UNL     1      35.809 -23.557 -14.599  0.00  0.00    +0.114 C 
ATOM      8  H   UNL     1      37.684 -21.517 -17.152  0.00  0.00    +0.165 HD
ENDROOT
BRANCH   4  11
ATOM      9  N   UNL     1      31.517 -23.337 -15.038  0.00  0.00    -0.246 N 
ATOM     10  N   UNL     1      30.366 -22.157 -16.550  0.00  0.00    -0.227 NA
ATOM     11  C   UNL     1      32.445 -22.690 -15.815  0.00  0.00    +0.107 C 
ATOM     12  C   UNL     1      30.263 -22.980 -15.527  0.00  0.00    +0.139 C 
ATOM     13  C   UNL     1      31.713 -21.974 -16.733  0.00  0.00    +0.118 C 
ATOM     14  C   UNL     1      31.708 -24.196 -13.960  0.00  0.00    +0.071 C 
ATOM     15  C   UNL     1      29.129 -23.538 -14.868  0.00  0.00    +0.035 C 
ATOM     16  C   UNL     1      30.636 -24.718 -13.345  0.00  0.00    +0.017 C 
ATOM     17  C   UNL     1      29.306 -24.371 -13.824  0.00  0.00    +0.004 C 
ENDBRANCH   4  11
BRANCH   1  18
ATOM     18  C   UNL     1      36.386 -20.586 -18.382  0.00  0.00    +0.058 C 
ATOM     19  C   UNL     1      35.736 -18.921 -20.528  0.00  0.00    +0.122 C 
ATOM     20  C   UNL     1      35.097 -20.606 -18.919  0.00  0.00    +0.017 C 
ATOM     21  C   UNL     1      37.349 -19.730 -18.923  0.00  0.00    +0.017 C 
ATOM     22  C   UNL     1      34.772 -19.775 -19.990  0.00  0.00    +0.021 C 
ATOM     23  C   UNL     1      37.024 -18.900 -19.994  0.00  0.00    +0.021 C 
BRANCH  19  24
ATOM     24  S   UNL     1      35.330 -17.881 -21.870  0.00  0.00    +0.057 S 
ATOM     25  O   UNL     1      34.543 -18.650 -22.825  0.00  0.00    -0.153 OA
ATOM     26  O   UNL     1      34.806 -16.629 -21.344  0.00  0.00    -0.153 OA
BRANCH  24  27
ATOM     27  N   UNL     1      36.876 -17.591 -22.537  0.00  0.00    -0.203 NA
ATOM     28  H   UNL     1      37.586 -18.034 -21.955  0.00  0.00    +0.144 HD
ATOM     29  H   UNL     1      37.046 -16.586 -22.576  0.00  0.00    +0.144 HD
ENDBRANCH  24  27
ENDBRANCH  19  24
ENDBRANCH   1  18
TORSDOF 4
ENDMDL
