MODEL 1
REMARK VINA RESULT:     -12.3      0.000      0.000
REMARK  Name = 11560787
REMARK  5 active torsions:
REMARK  status: ('A' for Active; 'I' for Inactive)
REMARK    1  A    between atoms: N_2  and  C_23
REMARK    2  A    between atoms: C_8  and  C_9
REMARK    3  A    between atoms: C_12  and  N_15
REMARK    4  A    between atoms: C_13  and  O_21
REMARK    5  A    between atoms: C_23  and  C_26
REMARK                            x       y       z     vdW  Elec       q    Type
REMARK                         _______ _______ _______ _____ _____    ______ ____
ROOT
ATOM      1  O   UNL     1      35.077 -15.882 -23.657  0.00  0.00    -0.270 OA
ATOM      2  N   UNL     1      35.338 -16.487 -21.433  0.00  0.00    -0.274 N 
ATOM      3  C   UNL     1      35.128 -16.204 -20.014  0.00  0.00    +0.094 C 
ATOM      4  C   UNL     1      35.185 -14.721 -19.703  0.00  0.00    +0.026 C 
ATOM      5  C   UNL     1      34.183 -13.994 -20.580  0.00  0.00    +0.033 C 
ATOM      6  C   UNL     1      34.452 -14.272 -22.027  0.00  0.00    +0.031 C 
ATOM      7  C   UNL     1      34.977 -15.611 -22.459  0.00  0.00    +0.245 C 
ATOM      8  C   UNL     1      34.266 -13.336 -22.971  0.00  0.00    +0.000 C 
ENDROOT
BRANCH   8   9
ATOM      9  C   UNL     1      33.762 -11.974 -22.738  0.00  0.00    +0.003 C 
ATOM     10  C   UNL     1      32.714 -11.777 -21.851  0.00  0.00    +0.038 C 
ATOM     11  C   UNL     1      34.344 -10.909 -23.409  0.00  0.00    +0.001 C 
ATOM     12  C   UNL     1      32.813  -9.405 -22.299  0.00  0.00    +0.084 C 
ATOM     13  C   UNL     1      32.237 -10.485 -21.630  0.00  0.00    +0.152 C 
ATOM     14  C   UNL     1      33.866  -9.617 -23.189  0.00  0.00    +0.018 C 
BRANCH  12  15
ATOM     15  N   UNL     1      32.351  -8.117 -22.092  0.00  0.00    -0.280 N 
ATOM     16  N   UNL     1      31.170  -6.250 -22.380  0.00  0.00    -0.255 NA
ATOM     17  C   UNL     1      32.767  -7.247 -21.119  0.00  0.00    +0.134 C 
ATOM     18  C   UNL     1      31.389  -7.468 -22.823  0.00  0.00    +0.220 C 
ATOM     19  C   UNL     1      32.026  -6.106 -21.317  0.00  0.00    +0.054 C 
ATOM     20  C   UNL     1      32.066  -4.850 -20.554  0.00  0.00    +0.049 C 
ENDBRANCH  12  15
BRANCH  13  21
ATOM     21  O   UNL     1      31.207 -10.304 -20.756  0.00  0.00    -0.470 OA
ATOM     22  C   UNL     1      31.228 -11.083 -19.562  0.00  0.00    +0.253 C 
ENDBRANCH  13  21
ENDBRANCH   8   9
BRANCH   2  23
ATOM     23  C   UNL     1      35.805 -17.829 -21.755  0.00  0.00    +0.098 C 
ATOM     24  C   UNL     1      37.336 -17.855 -21.735  0.00  0.00    +0.026 C 
BRANCH  23  26
ATOM     25  F   UNL     1      33.610 -21.666 -18.282  0.00  0.00    -0.204 F 
ATOM     26  C   UNL     1      35.212 -18.864 -20.818  0.00  0.00    -0.004 C 
ATOM     27  C   UNL     1      36.056 -19.582 -19.989  0.00  0.00    -0.000 C 
ATOM     28  C   UNL     1      33.845 -19.065 -20.816  0.00  0.00    -0.000 C 
ATOM     29  C   UNL     1      35.511 -20.534 -19.127  0.00  0.00    +0.029 C 
ATOM     30  C   UNL     1      33.300 -20.017 -19.954  0.00  0.00    +0.029 C 
ATOM     31  C   UNL     1      34.133 -20.751 -19.110  0.00  0.00    +0.140 C 
ENDBRANCH  23  26
ENDBRANCH   2  23
TORSDOF 5
ENDMDL
MODEL 2
REMARK VINA RESULT:     -11.4      5.528     12.045
REMARK  Name = 11560787
REMARK  5 active torsions:
REMARK  status: ('A' for Active; 'I' for Inactive)
REMARK    1  A    between atoms: N_2  and  C_23
REMARK    2  A    between atoms: C_8  and  C_9
REMARK    3  A    between atoms: C_12  and  N_15
REMARK    4  A    between atoms: C_13  and  O_21
REMARK    5  A    between atoms: C_23  and  C_26
REMARK                            x       y       z     vdW  Elec       q    Type
REMARK                         _______ _______ _______ _____ _____    ______ ____
ROOT
ATOM      1  O   UNL     1      37.446 -18.925 -20.534  0.00  0.00    -0.270 OA
ATOM      2  N   UNL     1      35.214 -18.979 -21.164  0.00  0.00    -0.274 N 
ATOM      3  C   UNL     1      33.821 -19.292 -20.852  0.00  0.00    +0.094 C 
ATOM      4  C   UNL     1      33.685 -20.514 -19.964  0.00  0.00    +0.026 C 
ATOM      5  C   UNL     1      34.513 -20.308 -18.710  0.00  0.00    +0.033 C 
ATOM      6  C   UNL     1      35.943 -20.031 -19.065  0.00  0.00    +0.031 C 
ATOM      7  C   UNL     1      36.282 -19.262 -20.309  0.00  0.00    +0.245 C 
ATOM      8  C   UNL     1      36.956 -20.482 -18.309  0.00  0.00    +0.000 C 
ENDROOT
BRANCH   8   9
ATOM      9  C   UNL     1      36.818 -21.249 -17.062  0.00  0.00    +0.003 C 
ATOM     10  C   UNL     1      35.595 -21.820 -16.745  0.00  0.00    +0.038 C 
ATOM     11  C   UNL     1      37.915 -21.390 -16.224  0.00  0.00    +0.001 C 
ATOM     12  C   UNL     1      36.560 -22.698 -14.711  0.00  0.00    +0.084 C 
ATOM     13  C   UNL     1      35.465 -22.549 -15.562  0.00  0.00    +0.152 C 
ATOM     14  C   UNL     1      37.786 -22.118 -15.043  0.00  0.00    +0.018 C 
BRANCH  12  15
ATOM     15  N   UNL     1      36.448 -23.416 -13.533  0.00  0.00    -0.280 N 
ATOM     16  N   UNL     1      36.517 -25.139 -12.123  0.00  0.00    -0.255 NA
ATOM     17  C   UNL     1      36.044 -22.931 -12.317  0.00  0.00    +0.134 C 
ATOM     18  C   UNL     1      36.722 -24.749 -13.361  0.00  0.00    +0.220 C 
ATOM     19  C   UNL     1      36.095 -24.010 -11.467  0.00  0.00    +0.054 C 
ATOM     20  C   UNL     1      35.764 -24.057 -10.034  0.00  0.00    +0.049 C 
ENDBRANCH  12  15
BRANCH  13  21
ATOM     21  O   UNL     1      34.258 -23.106 -15.261  0.00  0.00    -0.470 OA
ATOM     22  C   UNL     1      33.155 -22.745 -16.088  0.00  0.00    +0.253 C 
ENDBRANCH  13  21
ENDBRANCH   8   9
BRANCH   2  23
ATOM     23  C   UNL     1      35.437 -18.189 -22.368  0.00  0.00    +0.098 C 
ATOM     24  C   UNL     1      34.541 -18.712 -23.494  0.00  0.00    +0.026 C 
BRANCH  23  26
ATOM     25  F   UNL     1      34.618 -12.709 -21.423  0.00  0.00    -0.204 F 
ATOM     26  C   UNL     1      35.216 -16.710 -22.113  0.00  0.00    -0.004 C 
ATOM     27  C   UNL     1      35.228 -16.243 -20.812  0.00  0.00    -0.000 C 
ATOM     28  C   UNL     1      35.008 -15.866 -23.188  0.00  0.00    -0.000 C 
ATOM     29  C   UNL     1      35.025 -14.883 -20.577  0.00  0.00    +0.029 C 
ATOM     30  C   UNL     1      34.805 -14.506 -22.953  0.00  0.00    +0.029 C 
ATOM     31  C   UNL     1      34.813 -14.015 -21.648  0.00  0.00    +0.140 C 
ENDBRANCH  23  26
ENDBRANCH   2  23
TORSDOF 5
ENDMDL
MODEL 3
REMARK VINA RESULT:     -11.3      3.449     10.393
REMARK  Name = 11560787
REMARK  5 active torsions:
REMARK  status: ('A' for Active; 'I' for Inactive)
REMARK    1  A    between atoms: N_2  and  C_23
REMARK    2  A    between atoms: C_8  and  C_9
REMARK    3  A    between atoms: C_12  and  N_15
REMARK    4  A    between atoms: C_13  and  O_21
REMARK    5  A    between atoms: C_23  and  C_26
REMARK                            x       y       z     vdW  Elec       q    Type
REMARK                         _______ _______ _______ _____ _____    ______ ____
ROOT
ATOM      1  O   UNL     1      34.124  -9.993 -23.282  0.00  0.00    -0.270 OA
ATOM      2  N   UNL     1      32.373  -9.551 -21.826  0.00  0.00    -0.274 N 
ATOM      3  C   UNL     1      31.573  -9.927 -20.662  0.00  0.00    +0.094 C 
ATOM      4  C   UNL     1      31.416 -11.429 -20.525  0.00  0.00    +0.026 C 
ATOM      5  C   UNL     1      32.792 -12.068 -20.497  0.00  0.00    +0.033 C 
ATOM      6  C   UNL     1      33.569 -11.696 -21.723  0.00  0.00    +0.031 C 
ATOM      7  C   UNL     1      33.395 -10.344 -22.352  0.00  0.00    +0.245 C 
ATOM      8  C   UNL     1      34.412 -12.560 -22.312  0.00  0.00    +0.000 C 
ENDROOT
BRANCH   8   9
ATOM      9  C   UNL     1      34.708 -13.921 -21.842  0.00  0.00    +0.003 C 
ATOM     10  C   UNL     1      34.944 -14.925 -22.769  0.00  0.00    +0.038 C 
ATOM     11  C   UNL     1      34.749 -14.178 -20.479  0.00  0.00    +0.001 C 
ATOM     12  C   UNL     1      35.269 -16.489 -20.956  0.00  0.00    +0.084 C 
ATOM     13  C   UNL     1      35.226 -16.217 -22.323  0.00  0.00    +0.152 C 
ATOM     14  C   UNL     1      35.030 -15.469 -20.034  0.00  0.00    +0.018 C 
BRANCH  12  15
ATOM     15  N   UNL     1      35.546 -17.765 -20.497  0.00  0.00    -0.280 N 
ATOM     16  N   UNL     1      36.721 -19.534 -19.823  0.00  0.00    -0.255 NA
ATOM     17  C   UNL     1      34.631 -18.741 -20.199  0.00  0.00    +0.134 C 
ATOM     18  C   UNL     1      36.788 -18.293 -20.253  0.00  0.00    +0.220 C 
ATOM     19  C   UNL     1      35.379 -19.818 -19.786  0.00  0.00    +0.054 C 
ATOM     20  C   UNL     1      34.906 -21.140 -19.347  0.00  0.00    +0.049 C 
ENDBRANCH  12  15
BRANCH  13  21
ATOM     21  O   UNL     1      35.456 -17.196 -23.243  0.00  0.00    -0.470 OA
ATOM     22  C   UNL     1      34.323 -17.701 -23.947  0.00  0.00    +0.253 C 
ENDBRANCH  13  21
ENDBRANCH   8   9
BRANCH   2  23
ATOM     23  C   UNL     1      32.166  -8.201 -22.335  0.00  0.00    +0.098 C 
ATOM     24  C   UNL     1      30.816  -8.130 -23.054  0.00  0.00    +0.026 C 
BRANCH  23  26
ATOM     25  F   UNL     1      32.557  -4.368 -18.243  0.00  0.00    -0.204 F 
ATOM     26  C   UNL     1      32.271  -7.167 -21.231  0.00  0.00    -0.004 C 
ATOM     27  C   UNL     1      31.549  -5.993 -21.339  0.00  0.00    -0.000 C 
ATOM     28  C   UNL     1      33.087  -7.424 -20.145  0.00  0.00    -0.000 C 
ATOM     29  C   UNL     1      31.646  -5.042 -20.323  0.00  0.00    +0.029 C 
ATOM     30  C   UNL     1      33.183  -6.473 -19.129  0.00  0.00    +0.029 C 
ATOM     31  C   UNL     1      32.463  -5.282 -19.218  0.00  0.00    +0.140 C 
ENDBRANCH  23  26
ENDBRANCH   2  23
TORSDOF 5
ENDMDL
MODEL 4
REMARK VINA RESULT:     -10.9      1.512      2.028
REMARK  Name = 11560787
REMARK  5 active torsions:
REMARK  status: ('A' for Active; 'I' for Inactive)
REMARK    1  A    between atoms: N_2  and  C_23
REMARK    2  A    between atoms: C_8  and  C_9
REMARK    3  A    between atoms: C_12  and  N_15
REMARK    4  A    between atoms: C_13  and  O_21
REMARK    5  A    between atoms: C_23  and  C_26
REMARK                            x       y       z     vdW  Elec       q    Type
REMARK                         _______ _______ _______ _____ _____    ______ ____
ROOT
ATOM      1  O   UNL     1      35.681 -16.597 -19.736  0.00  0.00    -0.270 OA
ATOM      2  N   UNL     1      35.714 -17.625 -21.814  0.00  0.00    -0.274 N 
ATOM      3  C   UNL     1      35.568 -17.543 -23.267  0.00  0.00    +0.094 C 
ATOM      4  C   UNL     1      34.513 -16.538 -23.689  0.00  0.00    +0.026 C 
ATOM      5  C   UNL     1      34.843 -15.190 -23.076  0.00  0.00    +0.033 C 
ATOM      6  C   UNL     1      34.943 -15.302 -21.585  0.00  0.00    +0.031 C 
ATOM      7  C   UNL     1      35.480 -16.553 -20.951  0.00  0.00    +0.245 C 
ATOM      8  C   UNL     1      34.533 -14.313 -20.775  0.00  0.00    +0.000 C 
ENDROOT
BRANCH   8   9
ATOM      9  C   UNL     1      33.982 -13.022 -21.212  0.00  0.00    +0.003 C 
ATOM     10  C   UNL     1      32.935 -12.453 -20.504  0.00  0.00    +0.038 C 
ATOM     11  C   UNL     1      34.520 -12.394 -22.326  0.00  0.00    +0.001 C 
ATOM     12  C   UNL     1      32.944 -10.585 -22.036  0.00  0.00    +0.084 C 
ATOM     13  C   UNL     1      32.413 -11.227 -20.918  0.00  0.00    +0.152 C 
ATOM     14  C   UNL     1      33.998 -11.169 -22.741  0.00  0.00    +0.018 C 
BRANCH  12  15
ATOM     15  N   UNL     1      32.437  -9.370 -22.462  0.00  0.00    -0.280 N 
ATOM     16  N   UNL     1      31.054  -7.633 -22.650  0.00  0.00    -0.255 NA
ATOM     17  C   UNL     1      33.017  -8.515 -23.363  0.00  0.00    +0.134 C 
ATOM     18  C   UNL     1      31.259  -8.792 -22.064  0.00  0.00    +0.220 C 
ATOM     19  C   UNL     1      32.147  -7.455 -23.461  0.00  0.00    +0.054 C 
ATOM     20  C   UNL     1      32.274  -6.246 -24.290  0.00  0.00    +0.049 C 
ENDBRANCH  12  15
BRANCH  13  21
ATOM     21  O   UNL     1      31.383 -10.677 -20.214  0.00  0.00    -0.470 OA
ATOM     22  C   UNL     1      31.371 -10.901 -18.806  0.00  0.00    +0.253 C 
ENDBRANCH  13  21
ENDBRANCH   8   9
BRANCH   2  23
ATOM     23  C   UNL     1      36.287 -18.862 -21.299  0.00  0.00    +0.098 C 
ATOM     24  C   UNL     1      37.617 -18.557 -20.604  0.00  0.00    +0.026 C 
BRANCH  23  26
ATOM     25  F   UNL     1      32.709 -21.526 -17.878  0.00  0.00    -0.204 F 
ATOM     26  C   UNL     1      35.321 -19.580 -20.376  0.00  0.00    -0.004 C 
ATOM     27  C   UNL     1      35.825 -20.394 -19.378  0.00  0.00    -0.000 C 
ATOM     28  C   UNL     1      33.962 -19.404 -20.555  0.00  0.00    -0.000 C 
ATOM     29  C   UNL     1      34.937 -21.055 -18.529  0.00  0.00    +0.029 C 
ATOM     30  C   UNL     1      33.074 -20.065 -19.706  0.00  0.00    +0.029 C 
ATOM     31  C   UNL     1      33.562 -20.890 -18.694  0.00  0.00    +0.140 C 
ENDBRANCH  23  26
ENDBRANCH   2  23
TORSDOF 5
ENDMDL
MODEL 5
REMARK VINA RESULT:     -10.8      5.137     11.715
REMARK  Name = 11560787
REMARK  5 active torsions:
REMARK  status: ('A' for Active; 'I' for Inactive)
REMARK    1  A    between atoms: N_2  and  C_23
REMARK    2  A    between atoms: C_8  and  C_9
REMARK    3  A    between atoms: C_12  and  N_15
REMARK    4  A    between atoms: C_13  and  O_21
REMARK    5  A    between atoms: C_23  and  C_26
REMARK                            x       y       z     vdW  Elec       q    Type
REMARK                         _______ _______ _______ _____ _____    ______ ____
ROOT
ATOM      1  O   UNL     1      33.742 -19.112 -21.616  0.00  0.00    -0.270 OA
ATOM      2  N   UNL     1      35.822 -18.178 -22.044  0.00  0.00    -0.274 N 
ATOM      3  C   UNL     1      37.253 -18.096 -21.758  0.00  0.00    +0.094 C 
ATOM      4  C   UNL     1      37.566 -18.324 -20.292  0.00  0.00    +0.026 C 
ATOM      5  C   UNL     1      36.978 -19.655 -19.863  0.00  0.00    +0.033 C 
ATOM      6  C   UNL     1      35.504 -19.689 -20.131  0.00  0.00    +0.031 C 
ATOM      7  C   UNL     1      34.932 -18.979 -21.325  0.00  0.00    +0.245 C 
ATOM      8  C   UNL     1      34.652 -20.320 -19.308  0.00  0.00    +0.000 C 
ENDROOT
BRANCH   8   9
ATOM      9  C   UNL     1      35.026 -21.065 -18.096  0.00  0.00    +0.003 C 
ATOM     10  C   UNL     1      34.071 -21.831 -17.445  0.00  0.00    +0.038 C 
ATOM     11  C   UNL     1      36.329 -20.989 -17.626  0.00  0.00    +0.001 C 
ATOM     12  C   UNL     1      35.733 -22.470 -15.812  0.00  0.00    +0.084 C 
ATOM     13  C   UNL     1      34.427 -22.538 -16.296  0.00  0.00    +0.152 C 
ATOM     14  C   UNL     1      36.684 -21.696 -16.477  0.00  0.00    +0.018 C 
BRANCH  12  15
ATOM     15  N   UNL     1      36.102 -23.164 -14.673  0.00  0.00    -0.280 N 
ATOM     16  N   UNL     1      36.376 -23.640 -12.514  0.00  0.00    -0.255 NA
ATOM     17  C   UNL     1      36.724 -24.384 -14.627  0.00  0.00    +0.134 C 
ATOM     18  C   UNL     1      35.916 -22.761 -13.376  0.00  0.00    +0.220 C 
ATOM     19  C   UNL     1      36.881 -24.655 -13.288  0.00  0.00    +0.054 C 
ATOM     20  C   UNL     1      37.493 -25.838 -12.664  0.00  0.00    +0.049 C 
ENDBRANCH  12  15
BRANCH  13  21
ATOM     21  O   UNL     1      33.480 -23.288 -15.665  0.00  0.00    -0.470 OA
ATOM     22  C   UNL     1      32.134 -22.821 -15.733  0.00  0.00    +0.253 C 
ENDBRANCH  13  21
ENDBRANCH   8   9
BRANCH   2  23
ATOM     23  C   UNL     1      35.371 -17.495 -23.250  0.00  0.00    +0.098 C 
ATOM     24  C   UNL     1      34.229 -18.289 -23.890  0.00  0.00    +0.026 C 
BRANCH  23  26
ATOM     25  F   UNL     1      33.873 -12.185 -22.175  0.00  0.00    -0.204 F 
ATOM     26  C   UNL     1      34.967 -16.062 -22.960  0.00  0.00    -0.004 C 
ATOM     27  C   UNL     1      34.403 -15.305 -23.970  0.00  0.00    -0.000 C 
ATOM     28  C   UNL     1      35.172 -15.549 -21.693  0.00  0.00    -0.000 C 
ATOM     29  C   UNL     1      34.031 -13.987 -23.704  0.00  0.00    +0.029 C 
ATOM     30  C   UNL     1      34.799 -14.231 -21.426  0.00  0.00    +0.029 C 
ATOM     31  C   UNL     1      34.230 -13.451 -22.431  0.00  0.00    +0.140 C 
ENDBRANCH  23  26
ENDBRANCH   2  23
TORSDOF 5
ENDMDL
MODEL 6
REMARK VINA RESULT:     -10.4      1.481      2.519
REMARK  Name = 11560787
REMARK  5 active torsions:
REMARK  status: ('A' for Active; 'I' for Inactive)
REMARK    1  A    between atoms: N_2  and  C_23
REMARK    2  A    between atoms: C_8  and  C_9
REMARK    3  A    between atoms: C_12  and  N_15
REMARK    4  A    between atoms: C_13  and  O_21
REMARK    5  A    between atoms: C_23  and  C_26
REMARK                            x       y       z     vdW  Elec       q    Type
REMARK                         _______ _______ _______ _____ _____    ______ ____
ROOT
ATOM      1  O   UNL     1      35.588 -16.481 -19.819  0.00  0.00    -0.270 OA
ATOM      2  N   UNL     1      35.612 -17.398 -21.949  0.00  0.00    -0.274 N 
ATOM      3  C   UNL     1      35.469 -17.238 -23.395  0.00  0.00    +0.094 C 
ATOM      4  C   UNL     1      34.426 -16.201 -23.764  0.00  0.00    +0.026 C 
ATOM      5  C   UNL     1      34.770 -14.891 -23.080  0.00  0.00    +0.033 C 
ATOM      6  C   UNL     1      34.867 -15.082 -21.597  0.00  0.00    +0.031 C 
ATOM      7  C   UNL     1      35.389 -16.371 -21.030  0.00  0.00    +0.245 C 
ATOM      8  C   UNL     1      34.467 -14.133 -20.737  0.00  0.00    +0.000 C 
ENDROOT
BRANCH   8   9
ATOM      9  C   UNL     1      33.930 -12.814 -21.106  0.00  0.00    +0.003 C 
ATOM     10  C   UNL     1      34.416 -12.173 -22.235  0.00  0.00    +0.038 C 
ATOM     11  C   UNL     1      32.946 -12.235 -20.318  0.00  0.00    +0.001 C 
ATOM     12  C   UNL     1      32.917 -10.328 -21.802  0.00  0.00    +0.084 C 
ATOM     13  C   UNL     1      33.906 -10.922 -22.585  0.00  0.00    +0.152 C 
ATOM     14  C   UNL     1      32.437 -10.985 -20.668  0.00  0.00    +0.018 C 
BRANCH  12  15
ATOM     15  N   UNL     1      32.401  -9.087 -22.134  0.00  0.00    -0.280 N 
ATOM     16  N   UNL     1      31.649  -7.404 -23.384  0.00  0.00    -0.255 NA
ATOM     17  C   UNL     1      32.061  -8.086 -21.262  0.00  0.00    +0.134 C 
ATOM     18  C   UNL     1      32.133  -8.626 -23.397  0.00  0.00    +0.220 C 
ATOM     19  C   UNL     1      31.601  -7.062 -22.056  0.00  0.00    +0.054 C 
ATOM     20  C   UNL     1      31.104  -5.741 -21.641  0.00  0.00    +0.049 C 
ENDBRANCH  12  15
BRANCH  13  21
ATOM     21  O   UNL     1      34.390 -10.301 -23.698  0.00  0.00    -0.470 OA
ATOM     22  C   UNL     1      34.271 -11.001 -24.933  0.00  0.00    +0.253 C 
ENDBRANCH  13  21
ENDBRANCH   8   9
BRANCH   2  23
ATOM     23  C   UNL     1      36.171 -18.667 -21.498  0.00  0.00    +0.098 C 
ATOM     24  C   UNL     1      37.538 -18.421 -20.853  0.00  0.00    +0.026 C 
BRANCH  23  26
ATOM     25  F   UNL     1      32.668 -21.343 -18.011  0.00  0.00    -0.204 F 
ATOM     26  C   UNL     1      35.226 -19.389 -20.557  0.00  0.00    -0.004 C 
ATOM     27  C   UNL     1      33.862 -19.232 -20.724  0.00  0.00    -0.000 C 
ATOM     28  C   UNL     1      35.752 -20.185 -19.557  0.00  0.00    -0.000 C 
ATOM     29  C   UNL     1      32.993 -19.897 -19.858  0.00  0.00    +0.029 C 
ATOM     30  C   UNL     1      34.882 -20.850 -18.692  0.00  0.00    +0.029 C 
ATOM     31  C   UNL     1      33.504 -20.705 -18.842  0.00  0.00    +0.140 C 
ENDBRANCH  23  26
ENDBRANCH   2  23
TORSDOF 5
ENDMDL
MODEL 7
REMARK VINA RESULT:     -10.3      6.375      9.991
REMARK  Name = 11560787
REMARK  5 active torsions:
REMARK  status: ('A' for Active; 'I' for Inactive)
REMARK    1  A    between atoms: N_2  and  C_23
REMARK    2  A    between atoms: C_8  and  C_9
REMARK    3  A    between atoms: C_12  and  N_15
REMARK    4  A    between atoms: C_13  and  O_21
REMARK    5  A    between atoms: C_23  and  C_26
REMARK                            x       y       z     vdW  Elec       q    Type
REMARK                         _______ _______ _______ _____ _____    ______ ____
ROOT
ATOM      1  O   UNL     1      37.991 -21.681 -15.024  0.00  0.00    -0.270 OA
ATOM      2  N   UNL     1      36.048 -22.862 -14.570  0.00  0.00    -0.274 N 
ATOM      3  C   UNL     1      34.740 -23.356 -14.999  0.00  0.00    +0.094 C 
ATOM      4  C   UNL     1      34.035 -22.396 -15.937  0.00  0.00    +0.026 C 
ATOM      5  C   UNL     1      34.944 -22.101 -17.116  0.00  0.00    +0.033 C 
ATOM      6  C   UNL     1      36.258 -21.557 -16.643  0.00  0.00    +0.031 C 
ATOM      7  C   UNL     1      36.856 -22.031 -15.350  0.00  0.00    +0.245 C 
ATOM      8  C   UNL     1      36.921 -20.617 -17.335  0.00  0.00    +0.000 C 
ENDROOT
BRANCH   8   9
ATOM      9  C   UNL     1      36.492 -20.034 -18.615  0.00  0.00    +0.003 C 
ATOM     10  C   UNL     1      35.168 -20.154 -19.009  0.00  0.00    +0.038 C 
ATOM     11  C   UNL     1      37.420 -19.374 -19.407  0.00  0.00    +0.001 C 
ATOM     12  C   UNL     1      35.684 -18.933 -21.029  0.00  0.00    +0.084 C 
ATOM     13  C   UNL     1      34.762 -19.600 -20.223  0.00  0.00    +0.152 C 
ATOM     14  C   UNL     1      37.014 -18.821 -20.621  0.00  0.00    +0.018 C 
BRANCH  12  15
ATOM     15  N   UNL     1      35.299 -18.379 -22.237  0.00  0.00    -0.280 N 
ATOM     16  N   UNL     1      34.543 -18.248 -24.329  0.00  0.00    -0.255 NA
ATOM     17  C   UNL     1      35.320 -17.050 -22.569  0.00  0.00    +0.134 C 
ATOM     18  C   UNL     1      34.823 -19.056 -23.331  0.00  0.00    +0.220 C 
ATOM     19  C   UNL     1      34.850 -16.996 -23.860  0.00  0.00    +0.054 C 
ATOM     20  C   UNL     1      34.664 -15.811 -24.712  0.00  0.00    +0.049 C 
ENDBRANCH  12  15
BRANCH  13  21
ATOM     21  O   UNL     1      33.458 -19.723 -20.600  0.00  0.00    -0.470 OA
ATOM     22  C   UNL     1      32.524 -20.090 -19.587  0.00  0.00    +0.253 C 
ENDBRANCH  13  21
ENDBRANCH   8   9
BRANCH   2  23
ATOM     23  C   UNL     1      36.563 -23.416 -13.325  0.00  0.00    +0.098 C 
ATOM     24  C   UNL     1      35.481 -24.271 -12.661  0.00  0.00    +0.026 C 
BRANCH  23  26
ATOM     25  F   UNL     1      41.298 -26.327 -14.166  0.00  0.00    -0.204 F 
ATOM     26  C   UNL     1      37.841 -24.201 -13.552  0.00  0.00    -0.004 C 
ATOM     27  C   UNL     1      38.997 -23.805 -12.906  0.00  0.00    -0.000 C 
ATOM     28  C   UNL     1      37.817 -25.294 -14.399  0.00  0.00    -0.000 C 
ATOM     29  C   UNL     1      40.172 -24.528 -13.114  0.00  0.00    +0.029 C 
ATOM     30  C   UNL     1      38.992 -26.016 -14.607  0.00  0.00    +0.029 C 
ATOM     31  C   UNL     1      40.169 -25.633 -13.965  0.00  0.00    +0.140 C 
ENDBRANCH  23  26
ENDBRANCH   2  23
TORSDOF 5
ENDMDL
MODEL 8
REMARK VINA RESULT:     -10.0      5.077     11.559
REMARK  Name = 11560787
REMARK  5 active torsions:
REMARK  status: ('A' for Active; 'I' for Inactive)
REMARK    1  A    between atoms: N_2  and  C_23
REMARK    2  A    between atoms: C_8  and  C_9
REMARK    3  A    between atoms: C_12  and  N_15
REMARK    4  A    between atoms: C_13  and  O_21
REMARK    5  A    between atoms: C_23  and  C_26
REMARK                            x       y       z     vdW  Elec       q    Type
REMARK                         _______ _______ _______ _____ _____    ______ ____
ROOT
ATOM      1  O   UNL     1      33.534 -19.016 -21.950  0.00  0.00    -0.270 OA
ATOM      2  N   UNL     1      35.640 -18.074 -22.189  0.00  0.00    -0.274 N 
ATOM      3  C   UNL     1      37.044 -18.001 -21.788  0.00  0.00    +0.094 C 
ATOM      4  C   UNL     1      37.241 -18.266 -20.308  0.00  0.00    +0.026 C 
ATOM      5  C   UNL     1      36.622 -19.607 -19.961  0.00  0.00    +0.033 C 
ATOM      6  C   UNL     1      35.174 -19.633 -20.346  0.00  0.00    +0.031 C 
ATOM      7  C   UNL     1      34.697 -18.892 -21.562  0.00  0.00    +0.245 C 
ATOM      8  C   UNL     1      34.260 -20.284 -19.609  0.00  0.00    +0.000 C 
ENDROOT
BRANCH   8   9
ATOM      9  C   UNL     1      34.538 -21.059 -18.390  0.00  0.00    +0.003 C 
ATOM     10  C   UNL     1      35.839 -21.141 -17.917  0.00  0.00    +0.038 C 
ATOM     11  C   UNL     1      33.494 -21.695 -17.735  0.00  0.00    +0.001 C 
ATOM     12  C   UNL     1      35.061 -22.520 -16.092  0.00  0.00    +0.084 C 
ATOM     13  C   UNL     1      36.102 -21.876 -16.760  0.00  0.00    +0.152 C 
ATOM     14  C   UNL     1      33.757 -22.430 -16.579  0.00  0.00    +0.018 C 
BRANCH  12  15
ATOM     15  N   UNL     1      35.305 -23.255 -14.944  0.00  0.00    -0.280 N 
ATOM     16  N   UNL     1      35.810 -24.992 -13.643  0.00  0.00    -0.255 NA
ATOM     17  C   UNL     1      35.250 -22.795 -13.654  0.00  0.00    +0.134 C 
ATOM     18  C   UNL     1      35.645 -24.582 -14.882  0.00  0.00    +0.220 C 
ATOM     19  C   UNL     1      35.565 -23.882 -12.873  0.00  0.00    +0.054 C 
ATOM     20  C   UNL     1      35.655 -23.955 -11.407  0.00  0.00    +0.049 C 
ENDBRANCH  12  15
BRANCH  13  21
ATOM     21  O   UNL     1      37.384 -21.950 -16.303  0.00  0.00    -0.470 OA
ATOM     22  C   UNL     1      37.940 -20.763 -15.743  0.00  0.00    +0.253 C 
ENDBRANCH  13  21
ENDBRANCH   8   9
BRANCH   2  23
ATOM     23  C   UNL     1      35.285 -17.360 -23.409  0.00  0.00    +0.098 C 
ATOM     24  C   UNL     1      34.173 -18.119 -24.139  0.00  0.00    +0.026 C 
BRANCH  23  26
ATOM     25  F   UNL     1      33.824 -12.040 -22.335  0.00  0.00    -0.204 F 
ATOM     26  C   UNL     1      34.891 -15.925 -23.119  0.00  0.00    -0.004 C 
ATOM     27  C   UNL     1      34.294 -15.177 -24.117  0.00  0.00    -0.000 C 
ATOM     28  C   UNL     1      35.139 -15.400 -21.864  0.00  0.00    -0.000 C 
ATOM     29  C   UNL     1      33.931 -13.857 -23.851  0.00  0.00    +0.029 C 
ATOM     30  C   UNL     1      34.776 -14.079 -21.598  0.00  0.00    +0.029 C 
ATOM     31  C   UNL     1      34.172 -13.308 -22.591  0.00  0.00    +0.140 C 
ENDBRANCH  23  26
ENDBRANCH   2  23
TORSDOF 5
ENDMDL
MODEL 9
REMARK VINA RESULT:      -9.9      3.252      5.473
REMARK  Name = 11560787
REMARK  5 active torsions:
REMARK  status: ('A' for Active; 'I' for Inactive)
REMARK    1  A    between atoms: N_2  and  C_23
REMARK    2  A    between atoms: C_8  and  C_9
REMARK    3  A    between atoms: C_12  and  N_15
REMARK    4  A    between atoms: C_13  and  O_21
REMARK    5  A    between atoms: C_23  and  C_26
REMARK                            x       y       z     vdW  Elec       q    Type
REMARK                         _______ _______ _______ _____ _____    ______ ____
ROOT
ATOM      1  O   UNL     1      36.908 -19.545 -18.774  0.00  0.00    -0.270 OA
ATOM      2  N   UNL     1      34.930 -20.755 -18.844  0.00  0.00    -0.274 N 
ATOM      3  C   UNL     1      33.605 -20.978 -19.421  0.00  0.00    +0.094 C 
ATOM      4  C   UNL     1      32.926 -19.686 -19.833  0.00  0.00    +0.026 C 
ATOM      5  C   UNL     1      33.837 -18.931 -20.782  0.00  0.00    +0.033 C 
ATOM      6  C   UNL     1      35.170 -18.682 -20.144  0.00  0.00    +0.031 C 
ATOM      7  C   UNL     1      35.760 -19.689 -19.198  0.00  0.00    +0.245 C 
ATOM      8  C   UNL     1      35.858 -17.552 -20.368  0.00  0.00    +0.000 C 
ENDROOT
BRANCH   8   9
ATOM      9  C   UNL     1      35.441 -16.458 -21.257  0.00  0.00    +0.003 C 
ATOM     10  C   UNL     1      34.936 -15.289 -20.709  0.00  0.00    +0.038 C 
ATOM     11  C   UNL     1      35.561 -16.613 -22.631  0.00  0.00    +0.001 C 
ATOM     12  C   UNL     1      34.656 -14.393 -22.935  0.00  0.00    +0.084 C 
ATOM     13  C   UNL     1      34.541 -14.250 -21.553  0.00  0.00    +0.152 C 
ATOM     14  C   UNL     1      35.167 -15.575 -23.474  0.00  0.00    +0.018 C 
BRANCH  12  15
ATOM     15  N   UNL     1      34.268 -13.374 -23.787  0.00  0.00    -0.280 N 
ATOM     16  N   UNL     1      33.395 -12.357 -25.567  0.00  0.00    -0.255 NA
ATOM     17  C   UNL     1      34.449 -12.030 -23.587  0.00  0.00    +0.134 C 
ATOM     18  C   UNL     1      33.629 -13.516 -24.992  0.00  0.00    +0.220 C 
ATOM     19  C   UNL     1      33.903 -11.427 -24.695  0.00  0.00    +0.054 C 
ATOM     20  C   UNL     1      33.823  -9.991 -25.004  0.00  0.00    +0.049 C 
ENDBRANCH  12  15
BRANCH  13  21
ATOM     21  O   UNL     1      34.046 -13.106 -21.002  0.00  0.00    -0.470 OA
ATOM     22  C   UNL     1      32.720 -13.159 -20.483  0.00  0.00    +0.253 C 
ENDBRANCH  13  21
ENDBRANCH   8   9
BRANCH   2  23
ATOM     23  C   UNL     1      35.435 -21.811 -17.976  0.00  0.00    +0.098 C 
ATOM     24  C   UNL     1      36.778 -21.381 -17.379  0.00  0.00    +0.026 C 
BRANCH  23  26
ATOM     25  F   UNL     1      31.714 -23.156 -13.983  0.00  0.00    -0.204 F 
ATOM     26  C   UNL     1      34.431 -22.174 -16.898  0.00  0.00    -0.004 C 
ATOM     27  C   UNL     1      33.089 -22.232 -17.223  0.00  0.00    -0.000 C 
ATOM     28  C   UNL     1      34.884 -22.437 -15.619  0.00  0.00    -0.000 C 
ATOM     29  C   UNL     1      32.165 -22.566 -16.232  0.00  0.00    +0.029 C 
ATOM     30  C   UNL     1      33.960 -22.771 -14.628  0.00  0.00    +0.029 C 
ATOM     31  C   UNL     1      32.602 -22.835 -14.935  0.00  0.00    +0.140 C 
ENDBRANCH  23  26
ENDBRANCH   2  23
TORSDOF 5
ENDMDL
