MODEL 1
REMARK VINA RESULT:     -13.2      0.000      0.000
REMARK  Name = 448605
REMARK  6 active torsions:
REMARK  status: ('A' for Active; 'I' for Inactive)
REMARK    1  A    between atoms: C_3  and  N_11
REMARK    2  A    between atoms: C_4  and  C_27
REMARK    3  A    between atoms: C_9  and  C_21
REMARK    4  A    between atoms: N_26  and  C_29
REMARK    5  A    between atoms: C_30  and  C_35
REMARK    6  A    between atoms: C_35  and  N_36
REMARK                            x       y       z     vdW  Elec       q    Type
REMARK                         _______ _______ _______ _____ _____    ______ ____
ROOT
ATOM      1  C   UNL     1      34.611 -22.360 -15.886  0.00  0.00    +0.014 C 
ATOM      2  C   UNL     1      33.633 -22.040 -16.860  0.00  0.00    +0.001 C 
ATOM      3  C   UNL     1      35.945 -21.984 -16.104  0.00  0.00    +0.057 C 
ATOM      4  C   UNL     1      35.353 -20.990 -18.223  0.00  0.00    +0.055 C 
ATOM      5  C   UNL     1      34.021 -21.354 -18.023  0.00  0.00    +0.005 C 
ATOM      6  C   UNL     1      36.313 -21.303 -17.266  0.00  0.00    +0.020 C 
ATOM      7  C   UNL     1      34.223 -23.044 -14.723  0.00  0.00    +0.004 C 
ATOM      8  C   UNL     1      32.298 -22.416 -16.641  0.00  0.00    +0.000 C 
ATOM      9  C   UNL     1      32.891 -23.410 -14.523  0.00  0.00    +0.031 C 
ATOM     10  C   UNL     1      31.930 -23.096 -15.480  0.00  0.00    +0.003 C 
ENDROOT
BRANCH   3  11
ATOM     11  N   UNL     1      36.963 -22.278 -15.163  0.00  0.00    -0.257 N 
ATOM     12  N   UNL     1      36.824 -24.616 -15.036  0.00  0.00    -0.180 NA
ATOM     13  N   UNL     1      38.437 -23.400 -13.723  0.00  0.00    -0.203 NA
ATOM     14  C   UNL     1      37.428 -23.485 -14.617  0.00  0.00    +0.091 C 
ATOM     15  C   UNL     1      37.296 -25.757 -14.491  0.00  0.00    +0.108 C 
ATOM     16  C   UNL     1      38.859 -24.578 -13.217  0.00  0.00    +0.165 C 
ATOM     17  C   UNL     1      38.321 -25.799 -13.569  0.00  0.00    +0.022 C 
ATOM     18  H   UNL     1      37.434 -21.482 -14.827  0.00  0.00    +0.164 HD
ENDBRANCH   3  11
BRANCH   9  21
ATOM     19  N   UNL     1      31.221 -24.636 -13.154  0.00  0.00    -0.343 N 
ATOM     20  N   UNL     1      33.380 -24.278 -12.336  0.00  0.00    -0.285 NA
ATOM     21  C   UNL     1      32.505 -24.119 -13.313  0.00  0.00    +0.117 C 
ATOM     22  H   UNL     1      30.981 -25.112 -12.327  0.00  0.00    +0.144 HD
ATOM     23  H   UNL     1      30.553 -24.525 -13.869  0.00  0.00    +0.144 HD
ATOM     24  H   UNL     1      33.121 -24.758 -11.516  0.00  0.00    +0.188 HD
ENDBRANCH   9  21
BRANCH   4  27
ATOM     25  O   UNL     1      36.778 -20.612 -20.022  0.00  0.00    -0.270 OA
ATOM     26  N   UNL     1      34.863 -19.268 -19.852  0.00  0.00    -0.280 N 
ATOM     27  C   UNL     1      35.738 -20.280 -19.433  0.00  0.00    +0.250 C 
ATOM     28  H   UNL     1      34.076 -19.118 -19.280  0.00  0.00    +0.155 HD
BRANCH  26  29
ATOM     29  C   UNL     1      34.962 -18.434 -20.993  0.00  0.00    +0.051 C 
ATOM     30  C   UNL     1      35.155 -16.803 -23.222  0.00  0.00    -0.044 C 
ATOM     31  C   UNL     1      34.506 -18.901 -22.214  0.00  0.00    +0.014 C 
ATOM     32  C   UNL     1      35.512 -17.170 -20.861  0.00  0.00    +0.014 C 
ATOM     33  C   UNL     1      34.604 -18.080 -23.337  0.00  0.00    -0.005 C 
ATOM     34  C   UNL     1      35.609 -16.349 -21.984  0.00  0.00    -0.005 C 
BRANCH  30  35
ATOM     35  C   UNL     1      35.259 -15.925 -24.423  0.00  0.00    -0.059 C 
BRANCH  35  36
ATOM     36  N   UNL     1      33.970 -15.611 -24.985  0.00  0.00    +0.383 N 
ATOM     37  H   UNL     1      33.692 -14.673 -24.697  0.00  0.00    -0.089 HD
ATOM     38  H   UNL     1      33.281 -16.287 -24.654  0.00  0.00    -0.089 HD
ATOM     39  H   UNL     1      34.024 -15.653 -26.003  0.00  0.00    -0.089 HD
ENDBRANCH  35  36
ENDBRANCH  30  35
ENDBRANCH  26  29
ENDBRANCH   4  27
TORSDOF 6
ENDMDL
MODEL 2
REMARK VINA RESULT:     -12.7      1.767      4.625
REMARK  Name = 448605
REMARK  6 active torsions:
REMARK  status: ('A' for Active; 'I' for Inactive)
REMARK    1  A    between atoms: C_3  and  N_11
REMARK    2  A    between atoms: C_4  and  C_27
REMARK    3  A    between atoms: C_9  and  C_21
REMARK    4  A    between atoms: N_26  and  C_29
REMARK    5  A    between atoms: C_30  and  C_35
REMARK    6  A    between atoms: C_35  and  N_36
REMARK                            x       y       z     vdW  Elec       q    Type
REMARK                         _______ _______ _______ _____ _____    ______ ____
ROOT
ATOM      1  C   UNL     1      35.063 -22.735 -15.653  0.00  0.00    +0.014 C 
ATOM      2  C   UNL     1      36.075 -21.962 -16.272  0.00  0.00    +0.001 C 
ATOM      3  C   UNL     1      33.773 -22.748 -16.206  0.00  0.00    +0.057 C 
ATOM      4  C   UNL     1      34.476 -21.246 -17.961  0.00  0.00    +0.055 C 
ATOM      5  C   UNL     1      35.765 -21.223 -17.427  0.00  0.00    +0.005 C 
ATOM      6  C   UNL     1      33.482 -22.008 -17.353  0.00  0.00    +0.020 C 
ATOM      7  C   UNL     1      35.373 -23.474 -14.500  0.00  0.00    +0.004 C 
ATOM      8  C   UNL     1      37.365 -21.949 -15.719  0.00  0.00    +0.000 C 
ATOM      9  C   UNL     1      36.662 -23.450 -13.964  0.00  0.00    +0.031 C 
ATOM     10  C   UNL     1      37.656 -22.690 -14.573  0.00  0.00    +0.003 C 
ENDROOT
BRANCH   3  11
ATOM     11  N   UNL     1      32.724 -23.504 -15.627  0.00  0.00    -0.257 N 
ATOM     12  N   UNL     1      30.851 -22.196 -16.159  0.00  0.00    -0.180 NA
ATOM     13  N   UNL     1      30.615 -24.248 -14.919  0.00  0.00    -0.203 NA
ATOM     14  C   UNL     1      31.336 -23.307 -15.566  0.00  0.00    +0.091 C 
ATOM     15  C   UNL     1      29.514 -22.038 -16.081  0.00  0.00    +0.108 C 
ATOM     16  C   UNL     1      29.284 -24.027 -14.879  0.00  0.00    +0.165 C 
ATOM     17  C   UNL     1      28.672 -22.930 -15.448  0.00  0.00    +0.022 C 
ATOM     18  H   UNL     1      33.029 -24.327 -15.181  0.00  0.00    +0.164 HD
ENDBRANCH   3  11
BRANCH   9  21
ATOM     19  N   UNL     1      38.276 -24.585 -12.456  0.00  0.00    -0.343 N 
ATOM     20  N   UNL     1      35.993 -24.593 -11.959  0.00  0.00    -0.285 NA
ATOM     21  C   UNL     1      36.967 -24.221 -12.769  0.00  0.00    +0.117 C 
ATOM     22  H   UNL     1      38.460 -25.107 -11.643  0.00  0.00    +0.144 HD
ATOM     23  H   UNL     1      39.016 -24.320 -13.049  0.00  0.00    +0.144 HD
ATOM     24  H   UNL     1      36.197 -25.115 -11.150  0.00  0.00    +0.188 HD
ENDBRANCH   9  21
BRANCH   4  27
ATOM     25  O   UNL     1      33.067 -20.622 -19.704  0.00  0.00    -0.270 OA
ATOM     26  N   UNL     1      35.173 -19.594 -19.586  0.00  0.00    -0.280 N 
ATOM     27  C   UNL     1      34.172 -20.476 -19.157  0.00  0.00    +0.250 C 
ATOM     28  H   UNL     1      35.998 -19.589 -19.050  0.00  0.00    +0.155 HD
BRANCH  26  29
ATOM     29  C   UNL     1      35.152 -18.707 -20.692  0.00  0.00    +0.051 C 
ATOM     30  C   UNL     1      35.112 -16.976 -22.851  0.00  0.00    -0.044 C 
ATOM     31  C   UNL     1      35.450 -17.371 -20.492  0.00  0.00    +0.014 C 
ATOM     32  C   UNL     1      34.833 -19.198 -21.947  0.00  0.00    +0.014 C 
ATOM     33  C   UNL     1      35.429 -16.498 -21.580  0.00  0.00    -0.005 C 
ATOM     34  C   UNL     1      34.813 -18.326 -23.034  0.00  0.00    -0.005 C 
BRANCH  30  35
ATOM     35  C   UNL     1      35.090 -16.043 -24.014  0.00  0.00    -0.059 C 
BRANCH  35  36
ATOM     36  N   UNL     1      34.422 -14.804 -23.710  0.00  0.00    +0.383 N 
ATOM     37  H   UNL     1      33.557 -14.742 -24.248  0.00  0.00    -0.089 HD
ATOM     38  H   UNL     1      35.029 -14.021 -23.953  0.00  0.00    -0.089 HD
ATOM     39  H   UNL     1      34.206 -14.770 -22.714  0.00  0.00    -0.089 HD
ENDBRANCH  35  36
ENDBRANCH  30  35
ENDBRANCH  26  29
ENDBRANCH   4  27
TORSDOF 6
ENDMDL
MODEL 3
REMARK VINA RESULT:     -10.8      7.750     15.471
REMARK  Name = 448605
REMARK  6 active torsions:
REMARK  status: ('A' for Active; 'I' for Inactive)
REMARK    1  A    between atoms: C_3  and  N_11
REMARK    2  A    between atoms: C_4  and  C_27
REMARK    3  A    between atoms: C_9  and  C_21
REMARK    4  A    between atoms: N_26  and  C_29
REMARK    5  A    between atoms: C_30  and  C_35
REMARK    6  A    between atoms: C_35  and  N_36
REMARK                            x       y       z     vdW  Elec       q    Type
REMARK                         _______ _______ _______ _____ _____    ______ ____
ROOT
ATOM      1  C   UNL     1      34.180  -8.196 -24.071  0.00  0.00    +0.014 C 
ATOM      2  C   UNL     1      34.989  -9.262 -24.533  0.00  0.00    +0.001 C 
ATOM      3  C   UNL     1      33.220  -8.442 -23.077  0.00  0.00    +0.057 C 
ATOM      4  C   UNL     1      33.854 -10.771 -22.998  0.00  0.00    +0.055 C 
ATOM      5  C   UNL     1      34.814 -10.544 -23.985  0.00  0.00    +0.005 C 
ATOM      6  C   UNL     1      33.059  -9.722 -22.544  0.00  0.00    +0.020 C 
ATOM      7  C   UNL     1      34.356  -6.914 -24.618  0.00  0.00    +0.004 C 
ATOM      8  C   UNL     1      35.949  -9.015 -25.527  0.00  0.00    +0.000 C 
ATOM      9  C   UNL     1      35.315  -6.687 -25.606  0.00  0.00    +0.031 C 
ATOM     10  C   UNL     1      36.111  -7.736 -26.059  0.00  0.00    +0.003 C 
ENDROOT
BRANCH   3  11
ATOM     11  N   UNL     1      32.385  -7.412 -22.579  0.00  0.00    -0.257 N 
ATOM     12  N   UNL     1      33.317  -7.033 -20.460  0.00  0.00    -0.180 NA
ATOM     13  N   UNL     1      31.412  -5.767 -21.217  0.00  0.00    -0.203 NA
ATOM     14  C   UNL     1      32.371  -6.706 -21.366  0.00  0.00    +0.091 C 
ATOM     15  C   UNL     1      33.275  -6.336 -19.306  0.00  0.00    +0.108 C 
ATOM     16  C   UNL     1      31.427  -5.109 -20.039  0.00  0.00    +0.165 C 
ATOM     17  C   UNL     1      32.344  -5.353 -19.037  0.00  0.00    +0.022 C 
ATOM     18  H   UNL     1      31.677  -7.138 -23.206  0.00  0.00    +0.164 HD
ENDBRANCH   3  11
BRANCH   9  21
ATOM     19  N   UNL     1      34.454  -4.418 -26.128  0.00  0.00    -0.343 N 
ATOM     20  N   UNL     1      36.635  -5.014 -26.717  0.00  0.00    -0.285 NA
ATOM     21  C   UNL     1      35.485  -5.354 -26.162  0.00  0.00    +0.117 C 
ATOM     22  H   UNL     1      34.590  -3.521 -26.511  0.00  0.00    +0.144 HD
ATOM     23  H   UNL     1      33.588  -4.653 -25.722  0.00  0.00    +0.144 HD
ATOM     24  H   UNL     1      36.752  -4.112 -27.094  0.00  0.00    +0.188 HD
ENDBRANCH   9  21
BRANCH   4  27
ATOM     25  O   UNL     1      32.560 -12.458 -22.053  0.00  0.00    -0.270 OA
ATOM     26  N   UNL     1      34.836 -12.904 -22.412  0.00  0.00    -0.280 N 
ATOM     27  C   UNL     1      33.685 -12.104 -22.442  0.00  0.00    +0.250 C 
ATOM     28  H   UNL     1      35.657 -12.485 -22.754  0.00  0.00    +0.155 HD
BRANCH  26  29
ATOM     29  C   UNL     1      34.970 -14.238 -21.955  0.00  0.00    +0.051 C 
ATOM     30  C   UNL     1      35.234 -16.845 -21.061  0.00  0.00    -0.044 C 
ATOM     31  C   UNL     1      35.167 -15.252 -22.876  0.00  0.00    +0.014 C 
ATOM     32  C   UNL     1      34.902 -14.498 -20.596  0.00  0.00    +0.014 C 
ATOM     33  C   UNL     1      35.299 -16.566 -22.426  0.00  0.00    -0.005 C 
ATOM     34  C   UNL     1      35.035 -15.811 -20.147  0.00  0.00    -0.005 C 
BRANCH  30  35
ATOM     35  C   UNL     1      35.376 -18.249 -20.580  0.00  0.00    -0.059 C 
BRANCH  35  36
ATOM     36  N   UNL     1      36.534 -18.427 -19.741  0.00  0.00    +0.383 N 
ATOM     37  H   UNL     1      37.284 -18.859 -20.282  0.00  0.00    -0.089 HD
ATOM     38  H   UNL     1      36.294 -19.027 -18.953  0.00  0.00    -0.089 HD
ATOM     39  H   UNL     1      36.845 -17.519 -19.395  0.00  0.00    -0.089 HD
ENDBRANCH  35  36
ENDBRANCH  30  35
ENDBRANCH  26  29
ENDBRANCH   4  27
TORSDOF 6
ENDMDL
