MODEL 1
REMARK VINA RESULT:     -12.2      0.000      0.000
REMARK  Name = 16048422
REMARK  11 active torsions:
REMARK  status: ('A' for Active; 'I' for Inactive)
REMARK    1  A    between atoms: C_1  and  C_4
REMARK    2  A    between atoms: C_1  and  N_18
REMARK    3  A    between atoms: C_1  and  C_33
REMARK    4  A    between atoms: N_3  and  C_6
REMARK    5  A    between atoms: C_6  and  C_9
REMARK    6  A    between atoms: C_9  and  C_11
REMARK    7  A    between atoms: C_19  and  C_21
REMARK    8  A    between atoms: C_24  and  C_27
REMARK    9  A    between atoms: C_33  and  C_34
REMARK   10  A    between atoms: C_34  and  C_36
REMARK   11  A    between atoms: C_36  and  O_37
REMARK                            x       y       z     vdW  Elec       q    Type
REMARK                         _______ _______ _______ _____ _____    ______ ____
ROOT
ATOM      1  C   UNL     1      34.814 -23.462 -15.200  0.00  0.00    +0.149 C 
ENDROOT
BRANCH   1   4
ATOM      2  O   UNL     1      33.643 -22.483 -13.323  0.00  0.00    -0.273 OA
ATOM      3  N   UNL     1      32.419 -23.656 -14.910  0.00  0.00    -0.306 N 
ATOM      4  C   UNL     1      33.581 -23.127 -14.369  0.00  0.00    +0.240 C 
ATOM      5  H   UNL     1      32.482 -24.158 -15.755  0.00  0.00    +0.149 HD
BRANCH   3   6
ATOM      6  C   UNL     1      31.121 -23.507 -14.294  0.00  0.00    +0.061 C 
ATOM      7  C   UNL     1      31.139 -24.172 -12.909  0.00  0.00    +0.020 C 
ATOM      8  C   UNL     1      30.849 -22.004 -14.113  0.00  0.00    +0.020 C 
BRANCH   6   9
ATOM      9  C   UNL     1      30.013 -24.101 -15.203  0.00  0.00    +0.044 C 
BRANCH   9  11
ATOM     10  F   UNL     1      25.755 -20.633 -16.491  0.00  0.00    -0.204 F 
ATOM     11  C   UNL     1      28.871 -23.171 -15.548  0.00  0.00    -0.020 C 
ATOM     12  C   UNL     1      28.188 -22.499 -14.534  0.00  0.00    -0.002 C 
ATOM     13  C   UNL     1      28.502 -22.985 -16.880  0.00  0.00    -0.002 C 
ATOM     14  C   UNL     1      27.136 -21.641 -14.853  0.00  0.00    +0.029 C 
ATOM     15  C   UNL     1      27.449 -22.127 -17.199  0.00  0.00    +0.029 C 
ATOM     16  C   UNL     1      26.766 -21.456 -16.185  0.00  0.00    +0.140 C 
ENDBRANCH   9  11
ENDBRANCH   6   9
ENDBRANCH   3   6
ENDBRANCH   1   4
BRANCH   1  18
ATOM     17  O   UNL     1      33.601 -23.548 -17.801  0.00  0.00    -0.270 OA
ATOM     18  N   UNL     1      34.885 -22.442 -16.217  0.00  0.00    -0.295 N 
ATOM     19  C   UNL     1      34.262 -22.575 -17.450  0.00  0.00    +0.246 C 
ATOM     20  H   UNL     1      35.394 -21.622 -16.030  0.00  0.00    +0.150 HD
BRANCH  19  21
ATOM     21  C   UNL     1      34.454 -21.448 -18.399  0.00  0.00    +0.053 C 
ATOM     22  C   UNL     1      33.348 -20.837 -18.989  0.00  0.00    +0.005 C 
ATOM     23  C   UNL     1      35.740 -21.000 -18.698  0.00  0.00    +0.005 C 
ATOM     24  C   UNL     1      34.814 -19.331 -20.180  0.00  0.00    +0.000 C 
ATOM     25  C   UNL     1      33.528 -19.779 -19.881  0.00  0.00    +0.000 C 
ATOM     26  C   UNL     1      35.921 -19.941 -19.589  0.00  0.00    +0.000 C 
BRANCH  24  27
ATOM     27  C   UNL     1      35.002 -18.234 -21.104  0.00  0.00    +0.000 C 
ATOM     28  C   UNL     1      35.340 -16.968 -20.624  0.00  0.00    +0.000 C 
ATOM     29  C   UNL     1      34.846 -18.441 -22.474  0.00  0.00    +0.000 C 
ATOM     30  C   UNL     1      35.522 -15.910 -21.515  0.00  0.00    +0.000 C 
ATOM     31  C   UNL     1      35.027 -17.383 -23.365  0.00  0.00    +0.000 C 
ATOM     32  C   UNL     1      35.365 -16.118 -22.885  0.00  0.00    +0.000 C 
ENDBRANCH  24  27
ENDBRANCH  19  21
ENDBRANCH   1  18
BRANCH   1  33
ATOM     33  C   UNL     1      36.089 -23.469 -14.349  0.00  0.00    +0.041 C 
BRANCH  33  34
ATOM     34  C   UNL     1      36.470 -24.844 -13.796  0.00  0.00    +0.112 C 
BRANCH  34  36
ATOM     35  O   UNL     1      36.551 -26.506 -15.576  0.00  0.00    -0.250 OA
ATOM     36  C   UNL     1      37.132 -25.739 -14.821  0.00  0.00    +0.314 C 
BRANCH  36  37
ATOM     37  O   UNL     1      38.480 -25.570 -14.832  0.00  0.00    -0.480 OA
ATOM     38  H   UNL     1      38.912 -25.192 -14.091  0.00  0.00    +0.295 HD
ENDBRANCH  36  37
ENDBRANCH  34  36
ENDBRANCH  33  34
ENDBRANCH   1  33
TORSDOF 11
ENDMDL
MODEL 2
REMARK VINA RESULT:     -12.1      1.303      2.180
REMARK  Name = 16048422
REMARK  11 active torsions:
REMARK  status: ('A' for Active; 'I' for Inactive)
REMARK    1  A    between atoms: C_1  and  C_4
REMARK    2  A    between atoms: C_1  and  N_18
REMARK    3  A    between atoms: C_1  and  C_33
REMARK    4  A    between atoms: N_3  and  C_6
REMARK    5  A    between atoms: C_6  and  C_9
REMARK    6  A    between atoms: C_9  and  C_11
REMARK    7  A    between atoms: C_19  and  C_21
REMARK    8  A    between atoms: C_24  and  C_27
REMARK    9  A    between atoms: C_33  and  C_34
REMARK   10  A    between atoms: C_34  and  C_36
REMARK   11  A    between atoms: C_36  and  O_37
REMARK                            x       y       z     vdW  Elec       q    Type
REMARK                         _______ _______ _______ _____ _____    ______ ____
ROOT
ATOM      1  C   UNL     1      34.576 -23.267 -14.905  0.00  0.00    +0.149 C 
ENDROOT
BRANCH   1   4
ATOM      2  O   UNL     1      33.087 -22.061 -13.428  0.00  0.00    -0.273 OA
ATOM      3  N   UNL     1      32.267 -23.909 -14.571  0.00  0.00    -0.306 N 
ATOM      4  C   UNL     1      33.244 -22.988 -14.221  0.00  0.00    +0.240 C 
ATOM      5  H   UNL     1      32.499 -24.615 -15.217  0.00  0.00    +0.149 HD
BRANCH   3   6
ATOM      6  C   UNL     1      30.926 -23.883 -14.033  0.00  0.00    +0.061 C 
ATOM      7  C   UNL     1      30.031 -24.819 -14.858  0.00  0.00    +0.020 C 
ATOM      8  C   UNL     1      30.983 -24.407 -12.588  0.00  0.00    +0.020 C 
BRANCH   6   9
ATOM      9  C   UNL     1      30.375 -22.433 -14.008  0.00  0.00    +0.044 C 
BRANCH   9  11
ATOM     10  F   UNL     1      25.914 -21.433 -17.313  0.00  0.00    -0.204 F 
ATOM     11  C   UNL     1      29.179 -22.165 -14.894  0.00  0.00    -0.020 C 
ATOM     12  C   UNL     1      29.278 -22.349 -16.273  0.00  0.00    -0.002 C 
ATOM     13  C   UNL     1      27.978 -21.733 -14.332  0.00  0.00    -0.002 C 
ATOM     14  C   UNL     1      28.174 -22.103 -17.090  0.00  0.00    +0.029 C 
ATOM     15  C   UNL     1      26.875 -21.486 -15.149  0.00  0.00    +0.029 C 
ATOM     16  C   UNL     1      26.974 -21.671 -16.528  0.00  0.00    +0.140 C 
ENDBRANCH   9  11
ENDBRANCH   6   9
ENDBRANCH   3   6
ENDBRANCH   1   4
BRANCH   1  18
ATOM     17  O   UNL     1      33.650 -23.612 -17.601  0.00  0.00    -0.270 OA
ATOM     18  N   UNL     1      34.670 -22.307 -15.977  0.00  0.00    -0.295 N 
ATOM     19  C   UNL     1      34.191 -22.566 -17.253  0.00  0.00    +0.246 C 
ATOM     20  H   UNL     1      35.089 -21.435 -15.797  0.00  0.00    +0.150 HD
BRANCH  19  21
ATOM     21  C   UNL     1      34.388 -21.485 -18.253  0.00  0.00    +0.053 C 
ATOM     22  C   UNL     1      35.677 -21.131 -18.653  0.00  0.00    +0.005 C 
ATOM     23  C   UNL     1      33.285 -20.824 -18.792  0.00  0.00    +0.005 C 
ATOM     24  C   UNL     1      34.758 -19.455 -20.131  0.00  0.00    +0.000 C 
ATOM     25  C   UNL     1      35.862 -20.115 -19.591  0.00  0.00    +0.000 C 
ATOM     26  C   UNL     1      33.469 -19.809 -19.732  0.00  0.00    +0.000 C 
BRANCH  24  27
ATOM     27  C   UNL     1      34.950 -18.402 -21.104  0.00  0.00    +0.000 C 
ATOM     28  C   UNL     1      34.712 -18.650 -22.456  0.00  0.00    +0.000 C 
ATOM     29  C   UNL     1      35.370 -17.138 -20.691  0.00  0.00    +0.000 C 
ATOM     30  C   UNL     1      34.895 -17.635 -23.395  0.00  0.00    +0.000 C 
ATOM     31  C   UNL     1      35.554 -16.122 -21.631  0.00  0.00    +0.000 C 
ATOM     32  C   UNL     1      35.317 -16.371 -22.982  0.00  0.00    +0.000 C 
ENDBRANCH  24  27
ENDBRANCH  19  21
ENDBRANCH   1  18
BRANCH   1  33
ATOM     33  C   UNL     1      35.756 -23.116 -13.937  0.00  0.00    +0.041 C 
BRANCH  33  34
ATOM     34  C   UNL     1      36.029 -24.353 -13.079  0.00  0.00    +0.112 C 
BRANCH  34  36
ATOM     35  O   UNL     1      36.279 -24.802 -10.698  0.00  0.00    -0.250 OA
ATOM     36  C   UNL     1      35.824 -24.112 -11.600  0.00  0.00    +0.314 C 
BRANCH  36  37
ATOM     37  O   UNL     1      35.082 -22.997 -11.376  0.00  0.00    -0.480 OA
ATOM     38  H   UNL     1      34.694 -22.539 -12.095  0.00  0.00    +0.295 HD
ENDBRANCH  36  37
ENDBRANCH  34  36
ENDBRANCH  33  34
ENDBRANCH   1  33
TORSDOF 11
ENDMDL
MODEL 3
REMARK VINA RESULT:     -11.9      3.498      6.822
REMARK  Name = 16048422
REMARK  11 active torsions:
REMARK  status: ('A' for Active; 'I' for Inactive)
REMARK    1  A    between atoms: C_1  and  C_4
REMARK    2  A    between atoms: C_1  and  N_18
REMARK    3  A    between atoms: C_1  and  C_33
REMARK    4  A    between atoms: N_3  and  C_6
REMARK    5  A    between atoms: C_6  and  C_9
REMARK    6  A    between atoms: C_9  and  C_11
REMARK    7  A    between atoms: C_19  and  C_21
REMARK    8  A    between atoms: C_24  and  C_27
REMARK    9  A    between atoms: C_33  and  C_34
REMARK   10  A    between atoms: C_34  and  C_36
REMARK   11  A    between atoms: C_36  and  O_37
REMARK                            x       y       z     vdW  Elec       q    Type
REMARK                         _______ _______ _______ _____ _____    ______ ____
ROOT
ATOM      1  C   UNL     1      31.455 -22.778 -14.683  0.00  0.00    +0.149 C 
ENDROOT
BRANCH   1   4
ATOM      2  O   UNL     1      32.360 -24.725 -13.569  0.00  0.00    -0.273 OA
ATOM      3  N   UNL     1      33.763 -22.918 -13.969  0.00  0.00    -0.306 N 
ATOM      4  C   UNL     1      32.555 -23.599 -14.022  0.00  0.00    +0.240 C 
ATOM      5  H   UNL     1      33.810 -22.017 -14.364  0.00  0.00    +0.149 HD
BRANCH   3   6
ATOM      6  C   UNL     1      34.954 -23.467 -13.362  0.00  0.00    +0.061 C 
ATOM      7  C   UNL     1      34.737 -23.593 -11.847  0.00  0.00    +0.020 C 
ATOM      8  C   UNL     1      35.180 -24.872 -13.944  0.00  0.00    +0.020 C 
BRANCH   6   9
ATOM      9  C   UNL     1      36.190 -22.591 -13.696  0.00  0.00    +0.044 C 
BRANCH   9  11
ATOM     10  F   UNL     1      41.166 -25.248 -13.707  0.00  0.00    -0.204 F 
ATOM     11  C   UNL     1      37.524 -23.304 -13.699  0.00  0.00    -0.020 C 
ATOM     12  C   UNL     1      37.960 -23.971 -12.555  0.00  0.00    -0.002 C 
ATOM     13  C   UNL     1      38.318 -23.292 -14.845  0.00  0.00    -0.002 C 
ATOM     14  C   UNL     1      39.190 -24.629 -12.558  0.00  0.00    +0.029 C 
ATOM     15  C   UNL     1      39.548 -23.950 -14.848  0.00  0.00    +0.029 C 
ATOM     16  C   UNL     1      39.984 -24.618 -13.704  0.00  0.00    +0.140 C 
ENDBRANCH   9  11
ENDBRANCH   6   9
ENDBRANCH   3   6
ENDBRANCH   1   4
BRANCH   1  18
ATOM     17  O   UNL     1      33.210 -23.850 -16.686  0.00  0.00    -0.270 OA
ATOM     18  N   UNL     1      32.101 -22.045 -15.743  0.00  0.00    -0.295 N 
ATOM     19  C   UNL     1      32.936 -22.653 -16.669  0.00  0.00    +0.246 C 
ATOM     20  H   UNL     1      31.944 -21.076 -15.813  0.00  0.00    +0.150 HD
BRANCH  19  21
ATOM     21  C   UNL     1      33.547 -21.755 -17.682  0.00  0.00    +0.053 C 
ATOM     22  C   UNL     1      32.733 -20.994 -18.521  0.00  0.00    +0.005 C 
ATOM     23  C   UNL     1      34.934 -21.672 -17.794  0.00  0.00    +0.005 C 
ATOM     24  C   UNL     1      34.694 -20.068 -19.585  0.00  0.00    +0.000 C 
ATOM     25  C   UNL     1      33.306 -20.151 -19.474  0.00  0.00    +0.000 C 
ATOM     26  C   UNL     1      35.509 -20.828 -18.746  0.00  0.00    +0.000 C 
BRANCH  24  27
ATOM     27  C   UNL     1      35.290 -19.194 -20.572  0.00  0.00    +0.000 C 
ATOM     28  C   UNL     1      34.567 -18.829 -21.708  0.00  0.00    +0.000 C 
ATOM     29  C   UNL     1      36.586 -18.714 -20.387  0.00  0.00    +0.000 C 
ATOM     30  C   UNL     1      35.140 -17.985 -22.658  0.00  0.00    +0.000 C 
ATOM     31  C   UNL     1      37.160 -17.870 -21.339  0.00  0.00    +0.000 C 
ATOM     32  C   UNL     1      36.437 -17.506 -22.474  0.00  0.00    +0.000 C 
ENDBRANCH  24  27
ENDBRANCH  19  21
ENDBRANCH   1  18
BRANCH   1  33
ATOM     33  C   UNL     1      30.338 -23.668 -15.241  0.00  0.00    +0.041 C 
BRANCH  33  34
ATOM     34  C   UNL     1      28.925 -23.140 -14.987  0.00  0.00    +0.112 C 
BRANCH  34  36
ATOM     35  O   UNL     1      27.761 -23.384 -17.113  0.00  0.00    -0.250 OA
ATOM     36  C   UNL     1      28.229 -22.663 -16.243  0.00  0.00    +0.314 C 
BRANCH  36  37
ATOM     37  O   UNL     1      28.155 -21.307 -16.286  0.00  0.00    -0.480 OA
ATOM     38  H   UNL     1      28.506 -20.841 -17.018  0.00  0.00    +0.295 HD
ENDBRANCH  36  37
ENDBRANCH  34  36
ENDBRANCH  33  34
ENDBRANCH   1  33
TORSDOF 11
ENDMDL
MODEL 4
REMARK VINA RESULT:     -11.6      1.281      2.043
REMARK  Name = 16048422
REMARK  11 active torsions:
REMARK  status: ('A' for Active; 'I' for Inactive)
REMARK    1  A    between atoms: C_1  and  C_4
REMARK    2  A    between atoms: C_1  and  N_18
REMARK    3  A    between atoms: C_1  and  C_33
REMARK    4  A    between atoms: N_3  and  C_6
REMARK    5  A    between atoms: C_6  and  C_9
REMARK    6  A    between atoms: C_9  and  C_11
REMARK    7  A    between atoms: C_19  and  C_21
REMARK    8  A    between atoms: C_24  and  C_27
REMARK    9  A    between atoms: C_33  and  C_34
REMARK   10  A    between atoms: C_34  and  C_36
REMARK   11  A    between atoms: C_36  and  O_37
REMARK                            x       y       z     vdW  Elec       q    Type
REMARK                         _______ _______ _______ _____ _____    ______ ____
ROOT
ATOM      1  C   UNL     1      33.937 -22.765 -16.484  0.00  0.00    +0.149 C 
ENDROOT
BRANCH   1   4
ATOM      2  O   UNL     1      31.643 -22.005 -16.592  0.00  0.00    -0.273 OA
ATOM      3  N   UNL     1      32.256 -23.458 -14.887  0.00  0.00    -0.306 N 
ATOM      4  C   UNL     1      32.487 -22.694 -16.022  0.00  0.00    +0.240 C 
ATOM      5  H   UNL     1      33.005 -23.974 -14.509  0.00  0.00    +0.149 HD
BRANCH   3   6
ATOM      6  C   UNL     1      30.970 -23.533 -14.232  0.00  0.00    +0.061 C 
ATOM      7  C   UNL     1      31.099 -24.383 -12.960  0.00  0.00    +0.020 C 
ATOM      8  C   UNL     1      30.558 -22.107 -13.829  0.00  0.00    +0.020 C 
BRANCH   6   9
ATOM      9  C   UNL     1      29.897 -24.100 -15.198  0.00  0.00    +0.044 C 
BRANCH   9  11
ATOM     10  F   UNL     1      25.684 -20.597 -16.541  0.00  0.00    -0.204 F 
ATOM     11  C   UNL     1      28.767 -23.161 -15.558  0.00  0.00    -0.020 C 
ATOM     12  C   UNL     1      28.424 -22.964 -16.896  0.00  0.00    -0.002 C 
ATOM     13  C   UNL     1      28.070 -22.492 -14.553  0.00  0.00    -0.002 C 
ATOM     14  C   UNL     1      27.382 -22.098 -17.228  0.00  0.00    +0.029 C 
ATOM     15  C   UNL     1      27.027 -21.627 -14.885  0.00  0.00    +0.029 C 
ATOM     16  C   UNL     1      26.684 -21.430 -16.222  0.00  0.00    +0.140 C 
ENDBRANCH   9  11
ENDBRANCH   6   9
ENDBRANCH   3   6
ENDBRANCH   1   4
BRANCH   1  18
ATOM     17  O   UNL     1      36.348 -21.648 -17.572  0.00  0.00    -0.270 OA
ATOM     18  N   UNL     1      34.037 -21.846 -17.591  0.00  0.00    -0.295 N 
ATOM     19  C   UNL     1      35.253 -21.358 -18.047  0.00  0.00    +0.246 C 
ATOM     20  H   UNL     1      33.211 -21.553 -18.039  0.00  0.00    +0.150 HD
BRANCH  19  21
ATOM     21  C   UNL     1      35.184 -20.398 -19.179  0.00  0.00    +0.053 C 
ATOM     22  C   UNL     1      36.353 -19.822 -19.676  0.00  0.00    +0.005 C 
ATOM     23  C   UNL     1      33.951 -20.074 -19.743  0.00  0.00    +0.005 C 
ATOM     24  C   UNL     1      35.055 -18.595 -21.303  0.00  0.00    +0.000 C 
ATOM     25  C   UNL     1      36.288 -18.919 -20.738  0.00  0.00    +0.000 C 
ATOM     26  C   UNL     1      33.886 -19.172 -20.806  0.00  0.00    +0.000 C 
BRANCH  24  27
ATOM     27  C   UNL     1      34.987 -17.660 -22.405  0.00  0.00    +0.000 C 
ATOM     28  C   UNL     1      35.475 -16.362 -22.250  0.00  0.00    +0.000 C 
ATOM     29  C   UNL     1      34.435 -18.056 -23.624  0.00  0.00    +0.000 C 
ATOM     30  C   UNL     1      35.411 -15.461 -23.313  0.00  0.00    +0.000 C 
ATOM     31  C   UNL     1      34.371 -17.154 -24.686  0.00  0.00    +0.000 C 
ATOM     32  C   UNL     1      34.859 -15.857 -24.530  0.00  0.00    +0.000 C 
ENDBRANCH  24  27
ENDBRANCH  19  21
ENDBRANCH   1  18
BRANCH   1  33
ATOM     33  C   UNL     1      34.911 -22.375 -15.365  0.00  0.00    +0.041 C 
BRANCH  33  34
ATOM     34  C   UNL     1      35.593 -23.561 -14.681  0.00  0.00    +0.112 C 
BRANCH  34  36
ATOM     35  O   UNL     1      37.737 -22.457 -14.336  0.00  0.00    -0.250 OA
ATOM     36  C   UNL     1      37.101 -23.451 -14.657  0.00  0.00    +0.314 C 
BRANCH  36  37
ATOM     37  O   UNL     1      37.691 -24.623 -15.014  0.00  0.00    -0.480 OA
ATOM     38  H   UNL     1      37.593 -24.950 -15.886  0.00  0.00    +0.295 HD
ENDBRANCH  36  37
ENDBRANCH  34  36
ENDBRANCH  33  34
ENDBRANCH   1  33
TORSDOF 11
ENDMDL
MODEL 5
REMARK VINA RESULT:     -11.5      5.407     10.799
REMARK  Name = 16048422
REMARK  11 active torsions:
REMARK  status: ('A' for Active; 'I' for Inactive)
REMARK    1  A    between atoms: C_1  and  C_4
REMARK    2  A    between atoms: C_1  and  N_18
REMARK    3  A    between atoms: C_1  and  C_33
REMARK    4  A    between atoms: N_3  and  C_6
REMARK    5  A    between atoms: C_6  and  C_9
REMARK    6  A    between atoms: C_9  and  C_11
REMARK    7  A    between atoms: C_19  and  C_21
REMARK    8  A    between atoms: C_24  and  C_27
REMARK    9  A    between atoms: C_33  and  C_34
REMARK   10  A    between atoms: C_34  and  C_36
REMARK   11  A    between atoms: C_36  and  O_37
REMARK                            x       y       z     vdW  Elec       q    Type
REMARK                         _______ _______ _______ _____ _____    ______ ____
ROOT
ATOM      1  C   UNL     1      35.669 -16.043 -23.144  0.00  0.00    +0.149 C 
ENDROOT
BRANCH   1   4
ATOM      2  O   UNL     1      35.057 -14.393 -21.485  0.00  0.00    -0.273 OA
ATOM      3  N   UNL     1      34.463 -14.020 -23.698  0.00  0.00    -0.306 N 
ATOM      4  C   UNL     1      35.050 -14.736 -22.665  0.00  0.00    +0.240 C 
ATOM      5  H   UNL     1      34.515 -14.387 -24.611  0.00  0.00    +0.149 HD
BRANCH   3   6
ATOM      6  C   UNL     1      33.780 -12.762 -23.500  0.00  0.00    +0.061 C 
ATOM      7  C   UNL     1      34.683 -11.818 -22.693  0.00  0.00    +0.020 C 
ATOM      8  C   UNL     1      33.526 -12.136 -24.882  0.00  0.00    +0.020 C 
BRANCH   6   9
ATOM      9  C   UNL     1      32.412 -12.987 -22.803  0.00  0.00    +0.044 C 
BRANCH   9  11
ATOM     10  F   UNL     1      31.680 -10.325 -17.885  0.00  0.00    -0.204 F 
ATOM     11  C   UNL     1      32.216 -12.273 -21.485  0.00  0.00    -0.020 C 
ATOM     12  C   UNL     1      31.963 -10.902 -21.465  0.00  0.00    -0.002 C 
ATOM     13  C   UNL     1      32.289 -12.986 -20.289  0.00  0.00    -0.002 C 
ATOM     14  C   UNL     1      31.781 -10.244 -20.249  0.00  0.00    +0.029 C 
ATOM     15  C   UNL     1      32.107 -12.329 -19.072  0.00  0.00    +0.029 C 
ATOM     16  C   UNL     1      31.853 -10.957 -19.053  0.00  0.00    +0.140 C 
ENDBRANCH   9  11
ENDBRANCH   6   9
ENDBRANCH   3   6
ENDBRANCH   1   4
BRANCH   1  18
ATOM     17  O   UNL     1      37.504 -17.916 -21.974  0.00  0.00    -0.270 OA
ATOM     18  N   UNL     1      35.373 -17.012 -22.117  0.00  0.00    -0.295 N 
ATOM     19  C   UNL     1      36.331 -17.879 -21.611  0.00  0.00    +0.246 C 
ATOM     20  H   UNL     1      34.457 -17.059 -21.761  0.00  0.00    +0.150 HD
BRANCH  19  21
ATOM     21  C   UNL     1      35.861 -18.835 -20.576  0.00  0.00    +0.053 C 
ATOM     22  C   UNL     1      36.780 -19.458 -19.732  0.00  0.00    +0.005 C 
ATOM     23  C   UNL     1      34.499 -19.109 -20.448  0.00  0.00    +0.005 C 
ATOM     24  C   UNL     1      34.977 -20.630 -18.633  0.00  0.00    +0.000 C 
ATOM     25  C   UNL     1      36.338 -20.356 -18.761  0.00  0.00    +0.000 C 
ATOM     26  C   UNL     1      34.057 -20.007 -19.476  0.00  0.00    +0.000 C 
BRANCH  24  27
ATOM     27  C   UNL     1      34.518 -21.562 -17.625  0.00  0.00    +0.000 C 
ATOM     28  C   UNL     1      35.406 -22.042 -16.663  0.00  0.00    +0.000 C 
ATOM     29  C   UNL     1      33.187 -21.979 -17.615  0.00  0.00    +0.000 C 
ATOM     30  C   UNL     1      34.963 -22.938 -15.690  0.00  0.00    +0.000 C 
ATOM     31  C   UNL     1      32.744 -22.876 -16.643  0.00  0.00    +0.000 C 
ATOM     32  C   UNL     1      33.633 -23.356 -15.681  0.00  0.00    +0.000 C 
ENDBRANCH  24  27
ENDBRANCH  19  21
ENDBRANCH   1  18
BRANCH   1  33
ATOM     33  C   UNL     1      35.088 -16.488 -24.492  0.00  0.00    +0.041 C 
BRANCH  33  34
ATOM     34  C   UNL     1      33.991 -17.550 -24.386  0.00  0.00    +0.112 C 
BRANCH  34  36
ATOM     35  O   UNL     1      31.945 -18.088 -25.594  0.00  0.00    -0.250 OA
ATOM     36  C   UNL     1      32.804 -17.275 -25.283  0.00  0.00    +0.314 C 
BRANCH  36  37
ATOM     37  O   UNL     1      32.780 -15.980 -25.692  0.00  0.00    -0.480 OA
ATOM     38  H   UNL     1      33.535 -15.602 -26.098  0.00  0.00    +0.295 HD
ENDBRANCH  36  37
ENDBRANCH  34  36
ENDBRANCH  33  34
ENDBRANCH   1  33
TORSDOF 11
ENDMDL
MODEL 6
REMARK VINA RESULT:     -11.3      3.534      6.735
REMARK  Name = 16048422
REMARK  11 active torsions:
REMARK  status: ('A' for Active; 'I' for Inactive)
REMARK    1  A    between atoms: C_1  and  C_4
REMARK    2  A    between atoms: C_1  and  N_18
REMARK    3  A    between atoms: C_1  and  C_33
REMARK    4  A    between atoms: N_3  and  C_6
REMARK    5  A    between atoms: C_6  and  C_9
REMARK    6  A    between atoms: C_9  and  C_11
REMARK    7  A    between atoms: C_19  and  C_21
REMARK    8  A    between atoms: C_24  and  C_27
REMARK    9  A    between atoms: C_33  and  C_34
REMARK   10  A    between atoms: C_34  and  C_36
REMARK   11  A    between atoms: C_36  and  O_37
REMARK                            x       y       z     vdW  Elec       q    Type
REMARK                         _______ _______ _______ _____ _____    ______ ____
ROOT
ATOM      1  C   UNL     1      33.955 -22.815 -13.980  0.00  0.00    +0.149 C 
ENDROOT
BRANCH   1   4
ATOM      2  O   UNL     1      36.373 -22.853 -13.972  0.00  0.00    -0.273 OA
ATOM      3  N   UNL     1      35.246 -23.289 -11.989  0.00  0.00    -0.306 N 
ATOM      4  C   UNL     1      35.327 -22.971 -13.337  0.00  0.00    +0.240 C 
ATOM      5  H   UNL     1      34.354 -23.359 -11.578  0.00  0.00    +0.149 HD
BRANCH   3   6
ATOM      6  C   UNL     1      36.407 -23.522 -11.161  0.00  0.00    +0.061 C 
ATOM      7  C   UNL     1      37.463 -22.447 -11.456  0.00  0.00    +0.020 C 
ATOM      8  C   UNL     1      35.975 -23.394  -9.690  0.00  0.00    +0.020 C 
BRANCH   6   9
ATOM      9  C   UNL     1      36.962 -24.952 -11.387  0.00  0.00    +0.044 C 
BRANCH   9  11
ATOM     10  F   UNL     1      41.006 -25.441 -15.289  0.00  0.00    -0.204 F 
ATOM     11  C   UNL     1      38.046 -25.083 -12.433  0.00  0.00    -0.020 C 
ATOM     12  C   UNL     1      37.875 -25.955 -13.509  0.00  0.00    -0.002 C 
ATOM     13  C   UNL     1      39.217 -24.333 -12.322  0.00  0.00    -0.002 C 
ATOM     14  C   UNL     1      38.875 -26.075 -14.474  0.00  0.00    +0.029 C 
ATOM     15  C   UNL     1      40.216 -24.453 -13.287  0.00  0.00    +0.029 C 
ATOM     16  C   UNL     1      40.045 -25.325 -14.363  0.00  0.00    +0.140 C 
ENDBRANCH   9  11
ENDBRANCH   6   9
ENDBRANCH   3   6
ENDBRANCH   1   4
BRANCH   1  18
ATOM     17  O   UNL     1      33.864 -23.797 -16.677  0.00  0.00    -0.270 OA
ATOM     18  N   UNL     1      34.175 -22.050 -15.183  0.00  0.00    -0.295 N 
ATOM     19  C   UNL     1      34.109 -22.615 -16.448  0.00  0.00    +0.246 C 
ATOM     20  H   UNL     1      34.380 -21.091 -15.104  0.00  0.00    +0.150 HD
BRANCH  19  21
ATOM     21  C   UNL     1      34.388 -21.700 -17.585  0.00  0.00    +0.053 C 
ATOM     22  C   UNL     1      33.334 -21.175 -18.332  0.00  0.00    +0.005 C 
ATOM     23  C   UNL     1      35.704 -21.364 -17.902  0.00  0.00    +0.005 C 
ATOM     24  C   UNL     1      34.912 -19.980 -19.717  0.00  0.00    +0.000 C 
ATOM     25  C   UNL     1      33.596 -20.315 -19.400  0.00  0.00    +0.000 C 
ATOM     26  C   UNL     1      35.967 -20.504 -18.969  0.00  0.00    +0.000 C 
BRANCH  24  27
ATOM     27  C   UNL     1      35.185 -19.088 -20.823  0.00  0.00    +0.000 C 
ATOM     28  C   UNL     1      34.348 -19.086 -21.940  0.00  0.00    +0.000 C 
ATOM     29  C   UNL     1      36.283 -18.229 -20.774  0.00  0.00    +0.000 C 
ATOM     30  C   UNL     1      34.610 -18.225 -23.006  0.00  0.00    +0.000 C 
ATOM     31  C   UNL     1      36.545 -17.369 -21.840  0.00  0.00    +0.000 C 
ATOM     32  C   UNL     1      35.709 -17.367 -22.956  0.00  0.00    +0.000 C 
ENDBRANCH  24  27
ENDBRANCH  19  21
ENDBRANCH   1  18
BRANCH   1  33
ATOM     33  C   UNL     1      33.323 -24.173 -14.310  0.00  0.00    +0.041 C 
BRANCH  33  34
ATOM     34  C   UNL     1      32.049 -24.483 -13.519  0.00  0.00    +0.112 C 
BRANCH  34  36
ATOM     35  O   UNL     1      30.663 -23.547 -15.290  0.00  0.00    -0.250 OA
ATOM     36  C   UNL     1      30.783 -24.287 -14.324  0.00  0.00    +0.314 C 
BRANCH  36  37
ATOM     37  O   UNL     1      29.773 -25.068 -13.860  0.00  0.00    -0.480 OA
ATOM     38  H   UNL     1      29.881 -25.998 -13.818  0.00  0.00    +0.295 HD
ENDBRANCH  36  37
ENDBRANCH  34  36
ENDBRANCH  33  34
ENDBRANCH   1  33
TORSDOF 11
ENDMDL
MODEL 7
REMARK VINA RESULT:     -11.0      5.690     10.866
REMARK  Name = 16048422
REMARK  11 active torsions:
REMARK  status: ('A' for Active; 'I' for Inactive)
REMARK    1  A    between atoms: C_1  and  C_4
REMARK    2  A    between atoms: C_1  and  N_18
REMARK    3  A    between atoms: C_1  and  C_33
REMARK    4  A    between atoms: N_3  and  C_6
REMARK    5  A    between atoms: C_6  and  C_9
REMARK    6  A    between atoms: C_9  and  C_11
REMARK    7  A    between atoms: C_19  and  C_21
REMARK    8  A    between atoms: C_24  and  C_27
REMARK    9  A    between atoms: C_33  and  C_34
REMARK   10  A    between atoms: C_34  and  C_36
REMARK   11  A    between atoms: C_36  and  O_37
REMARK                            x       y       z     vdW  Elec       q    Type
REMARK                         _______ _______ _______ _____ _____    ______ ____
ROOT
ATOM      1  C   UNL     1      35.535 -15.995 -23.240  0.00  0.00    +0.149 C 
ENDROOT
BRANCH   1   4
ATOM      2  O   UNL     1      34.640 -13.769 -23.549  0.00  0.00    -0.273 OA
ATOM      3  N   UNL     1      34.407 -14.784 -21.474  0.00  0.00    -0.306 N 
ATOM      4  C   UNL     1      34.810 -14.729 -22.800  0.00  0.00    +0.240 C 
ATOM      5  H   UNL     1      34.594 -15.605 -20.962  0.00  0.00    +0.149 HD
BRANCH   3   6
ATOM      6  C   UNL     1      33.728 -13.697 -20.807  0.00  0.00    +0.061 C 
ATOM      7  C   UNL     1      33.019 -14.235 -19.556  0.00  0.00    +0.020 C 
ATOM      8  C   UNL     1      34.788 -12.672 -20.368  0.00  0.00    +0.020 C 
BRANCH   6   9
ATOM      9  C   UNL     1      32.738 -12.996 -21.774  0.00  0.00    +0.044 C 
BRANCH   9  11
ATOM     10  F   UNL     1      31.734  -7.540 -20.754  0.00  0.00    -0.204 F 
ATOM     11  C   UNL     1      32.469 -11.534 -21.501  0.00  0.00    -0.020 C 
ATOM     12  C   UNL     1      32.983 -10.558 -22.356  0.00  0.00    -0.002 C 
ATOM     13  C   UNL     1      31.707 -11.160 -20.394  0.00  0.00    -0.002 C 
ATOM     14  C   UNL     1      32.734  -9.209 -22.104  0.00  0.00    +0.029 C 
ATOM     15  C   UNL     1      31.458  -9.811 -20.142  0.00  0.00    +0.029 C 
ATOM     16  C   UNL     1      31.972  -8.836 -20.997  0.00  0.00    +0.140 C 
ENDBRANCH   9  11
ENDBRANCH   6   9
ENDBRANCH   3   6
ENDBRANCH   1   4
BRANCH   1  18
ATOM     17  O   UNL     1      37.431 -17.874 -22.183  0.00  0.00    -0.270 OA
ATOM     18  N   UNL     1      35.299 -16.960 -22.195  0.00  0.00    -0.295 N 
ATOM     19  C   UNL     1      36.283 -17.831 -21.749  0.00  0.00    +0.246 C 
ATOM     20  H   UNL     1      34.407 -17.004 -21.783  0.00  0.00    +0.150 HD
BRANCH  19  21
ATOM     21  C   UNL     1      35.873 -18.784 -20.685  0.00  0.00    +0.053 C 
ATOM     22  C   UNL     1      34.526 -19.104 -20.516  0.00  0.00    +0.005 C 
ATOM     23  C   UNL     1      36.836 -19.358 -19.856  0.00  0.00    +0.005 C 
ATOM     24  C   UNL     1      35.105 -20.573 -18.688  0.00  0.00    +0.000 C 
ATOM     25  C   UNL     1      34.142 -19.999 -19.517  0.00  0.00    +0.000 C 
ATOM     26  C   UNL     1      36.452 -20.254 -18.857  0.00  0.00    +0.000 C 
BRANCH  24  27
ATOM     27  C   UNL     1      34.707 -21.501 -17.652  0.00  0.00    +0.000 C 
ATOM     28  C   UNL     1      33.414 -22.026 -17.644  0.00  0.00    +0.000 C 
ATOM     29  C   UNL     1      35.616 -21.873 -16.661  0.00  0.00    +0.000 C 
ATOM     30  C   UNL     1      33.031 -22.922 -16.646  0.00  0.00    +0.000 C 
ATOM     31  C   UNL     1      35.232 -22.769 -15.663  0.00  0.00    +0.000 C 
ATOM     32  C   UNL     1      33.940 -23.293 -15.655  0.00  0.00    +0.000 C 
ENDBRANCH  24  27
ENDBRANCH  19  21
ENDBRANCH   1  18
BRANCH   1  33
ATOM     33  C   UNL     1      35.011 -16.513 -24.585  0.00  0.00    +0.041 C 
BRANCH  33  34
ATOM     34  C   UNL     1      34.078 -17.720 -24.475  0.00  0.00    +0.112 C 
BRANCH  34  36
ATOM     35  O   UNL     1      31.992 -18.453 -25.498  0.00  0.00    -0.250 OA
ATOM     36  C   UNL     1      32.800 -17.564 -25.269  0.00  0.00    +0.314 C 
BRANCH  36  37
ATOM     37  O   UNL     1      32.629 -16.283 -25.688  0.00  0.00    -0.480 OA
ATOM     38  H   UNL     1      32.381 -15.618 -25.075  0.00  0.00    +0.295 HD
ENDBRANCH  36  37
ENDBRANCH  34  36
ENDBRANCH  33  34
ENDBRANCH   1  33
TORSDOF 11
ENDMDL
MODEL 8
REMARK VINA RESULT:     -11.0      3.645      6.232
REMARK  Name = 16048422
REMARK  11 active torsions:
REMARK  status: ('A' for Active; 'I' for Inactive)
REMARK    1  A    between atoms: C_1  and  C_4
REMARK    2  A    between atoms: C_1  and  N_18
REMARK    3  A    between atoms: C_1  and  C_33
REMARK    4  A    between atoms: N_3  and  C_6
REMARK    5  A    between atoms: C_6  and  C_9
REMARK    6  A    between atoms: C_9  and  C_11
REMARK    7  A    between atoms: C_19  and  C_21
REMARK    8  A    between atoms: C_24  and  C_27
REMARK    9  A    between atoms: C_33  and  C_34
REMARK   10  A    between atoms: C_34  and  C_36
REMARK   11  A    between atoms: C_36  and  O_37
REMARK                            x       y       z     vdW  Elec       q    Type
REMARK                         _______ _______ _______ _____ _____    ______ ____
ROOT
ATOM      1  C   UNL     1      35.743 -22.576 -14.989  0.00  0.00    +0.149 C 
ENDROOT
BRANCH   1   4
ATOM      2  O   UNL     1      38.069 -21.929 -14.841  0.00  0.00    -0.273 OA
ATOM      3  N   UNL     1      37.513 -24.163 -14.537  0.00  0.00    -0.306 N 
ATOM      4  C   UNL     1      37.231 -22.826 -14.775  0.00  0.00    +0.240 C 
ATOM      5  H   UNL     1      36.764 -24.801 -14.505  0.00  0.00    +0.149 HD
BRANCH   3   6
ATOM      6  C   UNL     1      38.853 -24.664 -14.336  0.00  0.00    +0.061 C 
ATOM      7  C   UNL     1      38.896 -26.156 -14.702  0.00  0.00    +0.020 C 
ATOM      8  C   UNL     1      39.795 -23.901 -15.282  0.00  0.00    +0.020 C 
BRANCH   6   9
ATOM      9  C   UNL     1      39.316 -24.417 -12.876  0.00  0.00    +0.044 C 
BRANCH   9  11
ATOM     10  F   UNL     1      35.252 -23.126  -9.184  0.00  0.00    -0.204 F 
ATOM     11  C   UNL     1      38.227 -24.071 -11.886  0.00  0.00    -0.020 C 
ATOM     12  C   UNL     1      38.226 -22.826 -11.256  0.00  0.00    -0.002 C 
ATOM     13  C   UNL     1      37.223 -24.996 -11.603  0.00  0.00    -0.002 C 
ATOM     14  C   UNL     1      37.221 -22.507 -10.344  0.00  0.00    +0.029 C 
ATOM     15  C   UNL     1      36.217 -24.677 -10.691  0.00  0.00    +0.029 C 
ATOM     16  C   UNL     1      36.217 -23.432 -10.061  0.00  0.00    +0.140 C 
ENDBRANCH   9  11
ENDBRANCH   6   9
ENDBRANCH   3   6
ENDBRANCH   1   4
BRANCH   1  18
ATOM     17  O   UNL     1      34.086 -23.009 -17.293  0.00  0.00    -0.270 OA
ATOM     18  N   UNL     1      35.655 -21.734 -16.156  0.00  0.00    -0.295 N 
ATOM     19  C   UNL     1      34.821 -22.027 -17.225  0.00  0.00    +0.246 C 
ATOM     20  H   UNL     1      36.208 -20.921 -16.197  0.00  0.00    +0.150 HD
BRANCH  19  21
ATOM     21  C   UNL     1      34.866 -21.075 -18.365  0.00  0.00    +0.053 C 
ATOM     22  C   UNL     1      36.093 -20.612 -18.840  0.00  0.00    +0.005 C 
ATOM     23  C   UNL     1      33.680 -20.644 -18.960  0.00  0.00    +0.005 C 
ATOM     24  C   UNL     1      34.949 -19.287 -20.505  0.00  0.00    +0.000 C 
ATOM     25  C   UNL     1      36.135 -19.717 -19.909  0.00  0.00    +0.000 C 
ATOM     26  C   UNL     1      33.722 -19.750 -20.031  0.00  0.00    +0.000 C 
BRANCH  24  27
ATOM     27  C   UNL     1      34.992 -18.360 -21.614  0.00  0.00    +0.000 C 
ATOM     28  C   UNL     1      35.536 -17.087 -21.439  0.00  0.00    +0.000 C 
ATOM     29  C   UNL     1      34.491 -18.738 -22.860  0.00  0.00    +0.000 C 
ATOM     30  C   UNL     1      35.578 -16.193 -22.510  0.00  0.00    +0.000 C 
ATOM     31  C   UNL     1      34.533 -17.844 -23.930  0.00  0.00    +0.000 C 
ATOM     32  C   UNL     1      35.076 -16.571 -23.754  0.00  0.00    +0.000 C 
ENDBRANCH  24  27
ENDBRANCH  19  21
ENDBRANCH   1  18
BRANCH   1  33
ATOM     33  C   UNL     1      34.972 -23.884 -15.204  0.00  0.00    +0.041 C 
BRANCH  33  34
ATOM     34  C   UNL     1      34.012 -24.243 -14.067  0.00  0.00    +0.112 C 
BRANCH  34  36
ATOM     35  O   UNL     1      32.362 -22.467 -14.303  0.00  0.00    -0.250 OA
ATOM     36  C   UNL     1      33.163 -23.078 -13.610  0.00  0.00    +0.314 C 
BRANCH  36  37
ATOM     37  O   UNL     1      33.373 -22.795 -12.298  0.00  0.00    -0.480 OA
ATOM     38  H   UNL     1      32.832 -22.168 -11.861  0.00  0.00    +0.295 HD
ENDBRANCH  36  37
ENDBRANCH  34  36
ENDBRANCH  33  34
ENDBRANCH   1  33
TORSDOF 11
ENDMDL
MODEL 9
REMARK VINA RESULT:     -10.6      8.140     13.448
REMARK  Name = 16048422
REMARK  11 active torsions:
REMARK  status: ('A' for Active; 'I' for Inactive)
REMARK    1  A    between atoms: C_1  and  C_4
REMARK    2  A    between atoms: C_1  and  N_18
REMARK    3  A    between atoms: C_1  and  C_33
REMARK    4  A    between atoms: N_3  and  C_6
REMARK    5  A    between atoms: C_6  and  C_9
REMARK    6  A    between atoms: C_9  and  C_11
REMARK    7  A    between atoms: C_19  and  C_21
REMARK    8  A    between atoms: C_24  and  C_27
REMARK    9  A    between atoms: C_33  and  C_34
REMARK   10  A    between atoms: C_34  and  C_36
REMARK   11  A    between atoms: C_36  and  O_37
REMARK                            x       y       z     vdW  Elec       q    Type
REMARK                         _______ _______ _______ _____ _____    ______ ____
ROOT
ATOM      1  C   UNL     1      34.193 -12.488 -24.309  0.00  0.00    +0.149 C 
ENDROOT
BRANCH   1   4
ATOM      2  O   UNL     1      33.792 -11.533 -22.123  0.00  0.00    -0.273 OA
ATOM      3  N   UNL     1      33.757 -10.131 -23.974  0.00  0.00    -0.306 N 
ATOM      4  C   UNL     1      33.905 -11.353 -23.334  0.00  0.00    +0.240 C 
ATOM      5  H   UNL     1      33.868 -10.099 -24.952  0.00  0.00    +0.149 HD
BRANCH   3   6
ATOM      6  C   UNL     1      33.447  -8.905 -23.275  0.00  0.00    +0.061 C 
ATOM      7  C   UNL     1      34.748  -8.277 -22.755  0.00  0.00    +0.020 C 
ATOM      8  C   UNL     1      32.801  -7.936 -24.280  0.00  0.00    +0.020 C 
BRANCH   6   9
ATOM      9  C   UNL     1      32.436  -9.170 -22.129  0.00  0.00    +0.044 C 
BRANCH   9  11
ATOM     10  F   UNL     1      32.261  -5.282 -18.046  0.00  0.00    -0.204 F 
ATOM     11  C   UNL     1      32.389  -8.128 -21.034  0.00  0.00    -0.020 C 
ATOM     12  C   UNL     1      32.635  -8.495 -19.711  0.00  0.00    -0.002 C 
ATOM     13  C   UNL     1      32.100  -6.800 -21.348  0.00  0.00    -0.002 C 
ATOM     14  C   UNL     1      32.593  -7.533 -18.701  0.00  0.00    +0.029 C 
ATOM     15  C   UNL     1      32.058  -5.838 -20.338  0.00  0.00    +0.029 C 
ATOM     16  C   UNL     1      32.303  -6.205 -19.015  0.00  0.00    +0.140 C 
ENDBRANCH   9  11
ENDBRANCH   6   9
ENDBRANCH   3   6
ENDBRANCH   1   4
BRANCH   1  18
ATOM     17  O   UNL     1      35.004 -15.090 -25.213  0.00  0.00    -0.270 OA
ATOM     18  N   UNL     1      34.395 -13.659 -23.492  0.00  0.00    -0.295 N 
ATOM     19  C   UNL     1      34.789 -14.879 -24.022  0.00  0.00    +0.246 C 
ATOM     20  H   UNL     1      34.247 -13.591 -22.521  0.00  0.00    +0.150 HD
BRANCH  19  21
ATOM     21  C   UNL     1      34.927 -15.996 -23.052  0.00  0.00    +0.053 C 
ATOM     22  C   UNL     1      34.726 -17.311 -23.469  0.00  0.00    +0.005 C 
ATOM     23  C   UNL     1      35.257 -15.728 -21.724  0.00  0.00    +0.005 C 
ATOM     24  C   UNL     1      35.185 -18.092 -21.229  0.00  0.00    +0.000 C 
ATOM     25  C   UNL     1      34.855 -18.360 -22.558  0.00  0.00    +0.000 C 
ATOM     26  C   UNL     1      35.386 -16.776 -20.812  0.00  0.00    +0.000 C 
BRANCH  24  27
ATOM     27  C   UNL     1      35.319 -19.178 -20.284  0.00  0.00    +0.000 C 
ATOM     28  C   UNL     1      36.578 -19.524 -19.792  0.00  0.00    +0.000 C 
ATOM     29  C   UNL     1      34.190 -19.880 -19.862  0.00  0.00    +0.000 C 
ATOM     30  C   UNL     1      36.707 -20.571 -18.879  0.00  0.00    +0.000 C 
ATOM     31  C   UNL     1      34.319 -20.928 -18.950  0.00  0.00    +0.000 C 
ATOM     32  C   UNL     1      35.578 -21.273 -18.459  0.00  0.00    +0.000 C 
ENDBRANCH  24  27
ENDBRANCH  19  21
ENDBRANCH   1  18
BRANCH   1  33
ATOM     33  C   UNL     1      33.034 -12.704 -25.289  0.00  0.00    +0.041 C 
BRANCH  33  34
ATOM     34  C   UNL     1      33.146 -11.899 -26.586  0.00  0.00    +0.112 C 
BRANCH  34  36
ATOM     35  O   UNL     1      35.275 -10.721 -26.704  0.00  0.00    -0.250 OA
ATOM     36  C   UNL     1      34.576 -11.671 -27.026  0.00  0.00    +0.314 C 
BRANCH  36  37
ATOM     37  O   UNL     1      35.019 -12.683 -27.817  0.00  0.00    -0.480 OA
ATOM     38  H   UNL     1      35.706 -12.528 -28.435  0.00  0.00    +0.295 HD
ENDBRANCH  36  37
ENDBRANCH  34  36
ENDBRANCH  33  34
ENDBRANCH   1  33
TORSDOF 11
ENDMDL
