MODEL 1
REMARK VINA RESULT:     -11.9      0.000      0.000
REMARK  Name = 16363
REMARK  6 active torsions:
REMARK  status: ('A' for Active; 'I' for Inactive)
REMARK    1  A    between atoms: N_1  and  C_19
REMARK    2  A    between atoms: C_2  and  N_9
REMARK    3  A    between atoms: C_19  and  C_20
REMARK    4  A    between atoms: C_20  and  C_21
REMARK    5  A    between atoms: C_21  and  C_23
REMARK    6  A    between atoms: C_23  and  C_25
REMARK                            x       y       z     vdW  Elec       q    Type
REMARK                         _______ _______ _______ _____ _____    ______ ____
ROOT
ATOM      1  N   UNL     1      34.382 -15.531 -23.552  0.00  0.00    +0.387 N 
ATOM      2  C   UNL     1      34.176 -12.628 -23.252  0.00  0.00    +0.086 C 
ATOM      3  C   UNL     1      33.222 -13.428 -24.139  0.00  0.00    -0.000 C 
ATOM      4  C   UNL     1      34.749 -13.524 -22.154  0.00  0.00    -0.000 C 
ATOM      5  C   UNL     1      33.885 -14.704 -24.660  0.00  0.00    -0.075 C 
ATOM      6  C   UNL     1      35.362 -14.798 -22.739  0.00  0.00    -0.075 C 
ATOM      7  H   UNL     1      33.590 -15.765 -22.954  0.00  0.00    -0.080 HD
ENDROOT
BRANCH   2   9
ATOM      8  O   UNL     1      34.106  -9.781 -24.242  0.00  0.00    -0.247 OA
ATOM      9  N   UNL     1      33.518 -11.479 -22.685  0.00  0.00    -0.282 N 
ATOM     10  N   UNL     1      32.764  -9.370 -22.339  0.00  0.00    -0.305 N 
ATOM     11  C   UNL     1      32.753 -11.477 -21.511  0.00  0.00    +0.079 A 
ATOM     12  C   UNL     1      33.542 -10.165 -23.228  0.00  0.00    +0.328 A 
ATOM     13  C   UNL     1      32.293 -10.178 -21.304  0.00  0.00    +0.076 A 
ATOM     14  C   UNL     1      32.442 -12.499 -20.639  0.00  0.00    +0.019 C 
ATOM     15  C   UNL     1      31.506  -9.836 -20.227  0.00  0.00    +0.019 C 
ATOM     16  C   UNL     1      31.643 -12.177 -19.537  0.00  0.00    +0.002 C 
ATOM     17  C   UNL     1      31.180 -10.859 -19.333  0.00  0.00    +0.002 C 
ATOM     18  H   UNL     1      32.587  -8.406 -22.438  0.00  0.00    +0.170 HD
ENDBRANCH   2   9
BRANCH   1  19
ATOM     19  C   UNL     1      34.967 -16.771 -24.063  0.00  0.00    -0.077 C 
BRANCH  19  20
ATOM     20  C   UNL     1      34.620 -17.940 -23.138  0.00  0.00    -0.015 C 
BRANCH  20  21
ATOM     21  C   UNL     1      35.800 -18.351 -22.253  0.00  0.00    +0.067 C 
BRANCH  21  23
ATOM     22  O   UNL     1      35.637 -17.138 -20.173  0.00  0.00    -0.291 OA
ATOM     23  C   UNL     1      35.518 -18.209 -20.764  0.00  0.00    +0.173 C 
BRANCH  23  25
ATOM     24  F   UNL     1      33.814 -22.703 -17.923  0.00  0.00    -0.204 F 
ATOM     25  C   UNL     1      35.062 -19.409 -20.006  0.00  0.00    +0.035 C 
ATOM     26  C   UNL     1      36.006 -20.190 -19.378  0.00  0.00    +0.005 C 
ATOM     27  C   UNL     1      33.715 -19.692 -19.962  0.00  0.00    +0.005 C 
ATOM     28  C   UNL     1      35.581 -21.313 -18.668  0.00  0.00    +0.030 C 
ATOM     29  C   UNL     1      33.290 -20.814 -19.252  0.00  0.00    +0.030 C 
ATOM     30  C   UNL     1      34.222 -21.625 -18.605  0.00  0.00    +0.140 C 
ENDBRANCH  23  25
ENDBRANCH  21  23
ENDBRANCH  20  21
ENDBRANCH  19  20
ENDBRANCH   1  19
TORSDOF 6
ENDMDL
MODEL 2
REMARK VINA RESULT:     -11.7      1.313      2.577
REMARK  Name = 16363
REMARK  6 active torsions:
REMARK  status: ('A' for Active; 'I' for Inactive)
REMARK    1  A    between atoms: N_1  and  C_19
REMARK    2  A    between atoms: C_2  and  N_9
REMARK    3  A    between atoms: C_19  and  C_20
REMARK    4  A    between atoms: C_20  and  C_21
REMARK    5  A    between atoms: C_21  and  C_23
REMARK    6  A    between atoms: C_23  and  C_25
REMARK                            x       y       z     vdW  Elec       q    Type
REMARK                         _______ _______ _______ _____ _____    ______ ____
ROOT
ATOM      1  N   UNL     1      34.341 -15.541 -23.640  0.00  0.00    +0.387 N 
ATOM      2  C   UNL     1      34.312 -12.626 -23.383  0.00  0.00    +0.086 C 
ATOM      3  C   UNL     1      33.370 -13.373 -24.327  0.00  0.00    -0.000 C 
ATOM      4  C   UNL     1      34.746 -13.543 -22.239  0.00  0.00    -0.000 C 
ATOM      5  C   UNL     1      33.979 -14.698 -24.788  0.00  0.00    -0.075 C 
ATOM      6  C   UNL     1      35.310 -14.863 -22.767  0.00  0.00    -0.075 C 
ATOM      7  H   UNL     1      33.495 -15.713 -23.097  0.00  0.00    -0.080 HD
ENDROOT
BRANCH   2   9
ATOM      8  O   UNL     1      32.091 -12.323 -21.365  0.00  0.00    -0.247 OA
ATOM      9  N   UNL     1      33.696 -11.427 -22.874  0.00  0.00    -0.282 N 
ATOM     10  N   UNL     1      32.364 -10.001 -21.722  0.00  0.00    -0.305 N 
ATOM     11  C   UNL     1      34.036 -10.119 -23.245  0.00  0.00    +0.079 A 
ATOM     12  C   UNL     1      32.647 -11.383 -21.916  0.00  0.00    +0.328 A 
ATOM     13  C   UNL     1      33.214  -9.248 -22.533  0.00  0.00    +0.076 A 
ATOM     14  C   UNL     1      34.983  -9.653 -24.132  0.00  0.00    +0.019 C 
ATOM     15  C   UNL     1      33.294  -7.880 -22.668  0.00  0.00    +0.019 C 
ATOM     16  C   UNL     1      35.085  -8.267 -24.287  0.00  0.00    +0.002 C 
ATOM     17  C   UNL     1      34.249  -7.390 -23.563  0.00  0.00    +0.002 C 
ATOM     18  H   UNL     1      31.681  -9.636 -21.114  0.00  0.00    +0.170 HD
ENDBRANCH   2   9
BRANCH   1  19
ATOM     19  C   UNL     1      34.874 -16.824 -24.097  0.00  0.00    -0.077 C 
BRANCH  19  20
ATOM     20  C   UNL     1      34.490 -17.935 -23.117  0.00  0.00    -0.015 C 
BRANCH  20  21
ATOM     21  C   UNL     1      35.688 -18.431 -22.302  0.00  0.00    +0.067 C 
BRANCH  21  23
ATOM     22  O   UNL     1      35.702 -17.202 -20.224  0.00  0.00    -0.291 OA
ATOM     23  C   UNL     1      35.504 -18.271 -20.799  0.00  0.00    +0.173 C 
BRANCH  23  25
ATOM     24  F   UNL     1      33.802 -22.682 -17.830  0.00  0.00    -0.204 F 
ATOM     25  C   UNL     1      35.050 -19.448 -20.006  0.00  0.00    +0.035 C 
ATOM     26  C   UNL     1      33.702 -19.724 -19.947  0.00  0.00    +0.005 C 
ATOM     27  C   UNL     1      35.994 -20.216 -19.363  0.00  0.00    +0.005 C 
ATOM     28  C   UNL     1      33.277 -20.826 -19.205  0.00  0.00    +0.030 C 
ATOM     29  C   UNL     1      35.569 -21.318 -18.621  0.00  0.00    +0.030 C 
ATOM     30  C   UNL     1      34.211 -21.623 -18.542  0.00  0.00    +0.140 C 
ENDBRANCH  23  25
ENDBRANCH  21  23
ENDBRANCH  20  21
ENDBRANCH  19  20
ENDBRANCH   1  19
TORSDOF 6
ENDMDL
MODEL 3
REMARK VINA RESULT:     -11.5      6.104     11.851
REMARK  Name = 16363
REMARK  6 active torsions:
REMARK  status: ('A' for Active; 'I' for Inactive)
REMARK    1  A    between atoms: N_1  and  C_19
REMARK    2  A    between atoms: C_2  and  N_9
REMARK    3  A    between atoms: C_19  and  C_20
REMARK    4  A    between atoms: C_20  and  C_21
REMARK    5  A    between atoms: C_21  and  C_23
REMARK    6  A    between atoms: C_23  and  C_25
REMARK                            x       y       z     vdW  Elec       q    Type
REMARK                         _______ _______ _______ _____ _____    ______ ____
ROOT
ATOM      1  N   UNL     1      34.672 -22.126 -17.689  0.00  0.00    +0.387 N 
ATOM      2  C   UNL     1      35.149 -22.460 -14.822  0.00  0.00    +0.086 C 
ATOM      3  C   UNL     1      34.030 -23.199 -15.556  0.00  0.00    -0.000 C 
ATOM      4  C   UNL     1      36.266 -22.093 -15.798  0.00  0.00    -0.000 C 
ATOM      5  C   UNL     1      33.555 -22.414 -16.780  0.00  0.00    -0.075 C 
ATOM      6  C   UNL     1      35.719 -21.345 -17.015  0.00  0.00    -0.075 C 
ATOM      7  H   UNL     1      35.081 -23.015 -17.978  0.00  0.00    -0.080 HD
ENDROOT
BRANCH   2   9
ATOM      8  O   UNL     1      33.791 -23.284 -12.258  0.00  0.00    -0.247 OA
ATOM      9  N   UNL     1      35.660 -23.245 -13.728  0.00  0.00    -0.282 N 
ATOM     10  N   UNL     1      35.837 -24.361 -11.763  0.00  0.00    -0.305 N 
ATOM     11  C   UNL     1      36.946 -23.797 -13.655  0.00  0.00    +0.079 A 
ATOM     12  C   UNL     1      34.939 -23.586 -12.550  0.00  0.00    +0.328 A 
ATOM     13  C   UNL     1      37.048 -24.480 -12.445  0.00  0.00    +0.076 A 
ATOM     14  C   UNL     1      37.999 -23.743 -14.543  0.00  0.00    +0.019 C 
ATOM     15  C   UNL     1      38.195 -25.140 -12.063  0.00  0.00    +0.019 C 
ATOM     16  C   UNL     1      39.176 -24.406 -14.179  0.00  0.00    +0.002 C 
ATOM     17  C   UNL     1      39.273 -25.097 -12.952  0.00  0.00    +0.002 C 
ATOM     18  H   UNL     1      35.635 -24.750 -10.881  0.00  0.00    +0.170 HD
ENDBRANCH   2   9
BRANCH   1  19
ATOM     19  C   UNL     1      34.195 -21.421 -18.879  0.00  0.00    -0.077 C 
BRANCH  19  20
ATOM     20  C   UNL     1      35.250 -20.424 -19.362  0.00  0.00    -0.015 C 
BRANCH  20  21
ATOM     21  C   UNL     1      34.647 -19.311 -20.223  0.00  0.00    +0.067 C 
BRANCH  21  23
ATOM     22  O   UNL     1      36.845 -18.343 -20.463  0.00  0.00    -0.291 OA
ATOM     23  C   UNL     1      35.693 -18.424 -20.884  0.00  0.00    +0.173 C 
BRANCH  23  25
ATOM     24  F   UNL     1      34.243 -15.505 -25.416  0.00  0.00    -0.204 F 
ATOM     25  C   UNL     1      35.307 -17.644 -22.094  0.00  0.00    +0.035 C 
ATOM     26  C   UNL     1      34.714 -18.308 -23.145  0.00  0.00    +0.005 C 
ATOM     27  C   UNL     1      35.555 -16.291 -22.116  0.00  0.00    +0.005 C 
ATOM     28  C   UNL     1      34.352 -17.579 -24.277  0.00  0.00    +0.030 C 
ATOM     29  C   UNL     1      35.193 -15.562 -23.248  0.00  0.00    +0.030 C 
ATOM     30  C   UNL     1      34.591 -16.205 -24.329  0.00  0.00    +0.140 C 
ENDBRANCH  23  25
ENDBRANCH  21  23
ENDBRANCH  20  21
ENDBRANCH  19  20
ENDBRANCH   1  19
TORSDOF 6
ENDMDL
MODEL 4
REMARK VINA RESULT:     -11.5      6.127     11.840
REMARK  Name = 16363
REMARK  6 active torsions:
REMARK  status: ('A' for Active; 'I' for Inactive)
REMARK    1  A    between atoms: N_1  and  C_19
REMARK    2  A    between atoms: C_2  and  N_9
REMARK    3  A    between atoms: C_19  and  C_20
REMARK    4  A    between atoms: C_20  and  C_21
REMARK    5  A    between atoms: C_21  and  C_23
REMARK    6  A    between atoms: C_23  and  C_25
REMARK                            x       y       z     vdW  Elec       q    Type
REMARK                         _______ _______ _______ _____ _____    ______ ____
ROOT
ATOM      1  N   UNL     1      34.770 -22.063 -17.728  0.00  0.00    +0.387 N 
ATOM      2  C   UNL     1      35.197 -22.431 -14.857  0.00  0.00    +0.086 C 
ATOM      3  C   UNL     1      34.084 -23.153 -15.617  0.00  0.00    -0.000 C 
ATOM      4  C   UNL     1      36.333 -22.063 -15.811  0.00  0.00    -0.000 C 
ATOM      5  C   UNL     1      33.635 -22.351 -16.840  0.00  0.00    -0.075 C 
ATOM      6  C   UNL     1      35.812 -21.298 -17.029  0.00  0.00    -0.075 C 
ATOM      7  H   UNL     1      35.175 -22.951 -18.020  0.00  0.00    -0.080 HD
ENDROOT
BRANCH   2   9
ATOM      8  O   UNL     1      33.785 -23.286 -12.334  0.00  0.00    -0.247 OA
ATOM      9  N   UNL     1      35.684 -23.232 -13.763  0.00  0.00    -0.282 N 
ATOM     10  N   UNL     1      35.818 -24.375 -11.811  0.00  0.00    -0.305 N 
ATOM     11  C   UNL     1      36.967 -23.788 -13.671  0.00  0.00    +0.079 A 
ATOM     12  C   UNL     1      34.938 -23.587 -12.606  0.00  0.00    +0.328 A 
ATOM     13  C   UNL     1      37.042 -24.488 -12.469  0.00  0.00    +0.076 A 
ATOM     14  C   UNL     1      38.038 -23.725 -14.537  0.00  0.00    +0.019 C 
ATOM     15  C   UNL     1      38.180 -25.156 -12.073  0.00  0.00    +0.019 C 
ATOM     16  C   UNL     1      39.206 -24.395 -14.158  0.00  0.00    +0.002 C 
ATOM     17  C   UNL     1      39.276 -25.102 -12.939  0.00  0.00    +0.002 C 
ATOM     18  H   UNL     1      35.597 -24.776 -10.939  0.00  0.00    +0.170 HD
ENDBRANCH   2   9
BRANCH   1  19
ATOM     19  C   UNL     1      34.317 -21.341 -18.918  0.00  0.00    -0.077 C 
BRANCH  19  20
ATOM     20  C   UNL     1      35.443 -20.458 -19.460  0.00  0.00    -0.015 C 
BRANCH  20  21
ATOM     21  C   UNL     1      34.912 -19.230 -20.204  0.00  0.00    +0.067 C 
BRANCH  21  23
ATOM     22  O   UNL     1      37.193 -18.491 -20.481  0.00  0.00    -0.291 OA
ATOM     23  C   UNL     1      35.995 -18.221 -20.558  0.00  0.00    +0.173 C 
BRANCH  23  25
ATOM     24  F   UNL     1      34.457 -13.156 -22.333  0.00  0.00    -0.204 F 
ATOM     25  C   UNL     1      35.585 -16.869 -21.031  0.00  0.00    +0.035 C 
ATOM     26  C   UNL     1      35.595 -16.612 -22.384  0.00  0.00    +0.005 C 
ATOM     27  C   UNL     1      35.211 -15.927 -20.099  0.00  0.00    +0.005 C 
ATOM     28  C   UNL     1      35.211 -15.347 -22.828  0.00  0.00    +0.030 C 
ATOM     29  C   UNL     1      34.826 -14.662 -20.543  0.00  0.00    +0.030 C 
ATOM     30  C   UNL     1      34.826 -14.372 -21.907  0.00  0.00    +0.140 C 
ENDBRANCH  23  25
ENDBRANCH  21  23
ENDBRANCH  20  21
ENDBRANCH  19  20
ENDBRANCH   1  19
TORSDOF 6
ENDMDL
MODEL 5
REMARK VINA RESULT:     -11.4      1.583      3.039
REMARK  Name = 16363
REMARK  6 active torsions:
REMARK  status: ('A' for Active; 'I' for Inactive)
REMARK    1  A    between atoms: N_1  and  C_19
REMARK    2  A    between atoms: C_2  and  N_9
REMARK    3  A    between atoms: C_19  and  C_20
REMARK    4  A    between atoms: C_20  and  C_21
REMARK    5  A    between atoms: C_21  and  C_23
REMARK    6  A    between atoms: C_23  and  C_25
REMARK                            x       y       z     vdW  Elec       q    Type
REMARK                         _______ _______ _______ _____ _____    ______ ____
ROOT
ATOM      1  N   UNL     1      34.814 -14.579 -23.420  0.00  0.00    +0.387 N 
ATOM      2  C   UNL     1      33.351 -12.161 -22.661  0.00  0.00    +0.086 C 
ATOM      3  C   UNL     1      34.522 -12.701 -21.839  0.00  0.00    -0.000 C 
ATOM      4  C   UNL     1      33.474 -12.619 -24.115  0.00  0.00    -0.000 C 
ATOM      5  C   UNL     1      34.667 -14.214 -22.005  0.00  0.00    -0.075 C 
ATOM      6  C   UNL     1      33.654 -14.136 -24.207  0.00  0.00    -0.075 C 
ATOM      7  H   UNL     1      35.640 -14.105 -23.784  0.00  0.00    -0.080 HD
ENDROOT
BRANCH   2   9
ATOM      8  O   UNL     1      31.493 -10.429 -21.037  0.00  0.00    -0.247 OA
ATOM      9  N   UNL     1      33.277 -10.725 -22.580  0.00  0.00    -0.282 N 
ATOM     10  N   UNL     1      32.656  -8.619 -22.019  0.00  0.00    -0.305 N 
ATOM     11  C   UNL     1      34.098  -9.828 -23.277  0.00  0.00    +0.079 A 
ATOM     12  C   UNL     1      32.360  -9.991 -21.779  0.00  0.00    +0.328 A 
ATOM     13  C   UNL     1      33.710  -8.537 -22.927  0.00  0.00    +0.076 A 
ATOM     14  C   UNL     1      35.127 -10.056 -24.167  0.00  0.00    +0.019 C 
ATOM     15  C   UNL     1      34.324  -7.416 -23.443  0.00  0.00    +0.019 C 
ATOM     16  C   UNL     1      35.766  -8.934 -24.704  0.00  0.00    +0.002 C 
ATOM     17  C   UNL     1      35.368  -7.628 -24.346  0.00  0.00    +0.002 C 
ATOM     18  H   UNL     1      32.191  -7.853 -21.609  0.00  0.00    +0.170 HD
ENDBRANCH   2   9
BRANCH   1  19
ATOM     19  C   UNL     1      35.003 -16.023 -23.559  0.00  0.00    -0.077 C 
BRANCH  19  20
ATOM     20  C   UNL     1      35.630 -16.599 -22.288  0.00  0.00    -0.015 C 
BRANCH  20  21
ATOM     21  C   UNL     1      35.415 -18.110 -22.167  0.00  0.00    +0.067 C 
BRANCH  21  23
ATOM     22  O   UNL     1      37.219 -18.478 -20.606  0.00  0.00    -0.291 OA
ATOM     23  C   UNL     1      36.056 -18.714 -20.925  0.00  0.00    +0.173 C 
BRANCH  23  25
ATOM     24  F   UNL     1      32.974 -22.058 -17.686  0.00  0.00    -0.204 F 
ATOM     25  C   UNL     1      35.233 -19.607 -20.060  0.00  0.00    +0.035 C 
ATOM     26  C   UNL     1      33.861 -19.543 -20.161  0.00  0.00    +0.005 C 
ATOM     27  C   UNL     1      35.875 -20.462 -19.192  0.00  0.00    +0.005 C 
ATOM     28  C   UNL     1      33.091 -20.378 -19.352  0.00  0.00    +0.030 C 
ATOM     29  C   UNL     1      35.105 -21.297 -18.384  0.00  0.00    +0.030 C 
ATOM     30  C   UNL     1      33.714 -21.256 -18.463  0.00  0.00    +0.140 C 
ENDBRANCH  23  25
ENDBRANCH  21  23
ENDBRANCH  20  21
ENDBRANCH  19  20
ENDBRANCH   1  19
TORSDOF 6
ENDMDL
MODEL 6
REMARK VINA RESULT:     -11.3      0.661      1.182
REMARK  Name = 16363
REMARK  6 active torsions:
REMARK  status: ('A' for Active; 'I' for Inactive)
REMARK    1  A    between atoms: N_1  and  C_19
REMARK    2  A    between atoms: C_2  and  N_9
REMARK    3  A    between atoms: C_19  and  C_20
REMARK    4  A    between atoms: C_20  and  C_21
REMARK    5  A    between atoms: C_21  and  C_23
REMARK    6  A    between atoms: C_23  and  C_25
REMARK                            x       y       z     vdW  Elec       q    Type
REMARK                         _______ _______ _______ _____ _____    ______ ____
ROOT
ATOM      1  N   UNL     1      34.944 -15.130 -23.623  0.00  0.00    +0.387 N 
ATOM      2  C   UNL     1      33.302 -13.044 -22.392  0.00  0.00    +0.086 C 
ATOM      3  C   UNL     1      34.617 -13.520 -21.774  0.00  0.00    -0.000 C 
ATOM      4  C   UNL     1      33.307 -13.296 -23.900  0.00  0.00    -0.000 C 
ATOM      5  C   UNL     1      34.922 -14.968 -22.163  0.00  0.00    -0.075 C 
ATOM      6  C   UNL     1      33.656 -14.751 -24.220  0.00  0.00    -0.075 C 
ATOM      7  H   UNL     1      35.659 -14.507 -23.998  0.00  0.00    -0.080 HD
ENDROOT
BRANCH   2   9
ATOM      8  O   UNL     1      34.007 -10.607 -24.023  0.00  0.00    -0.247 OA
ATOM      9  N   UNL     1      33.067 -11.652 -22.105  0.00  0.00    -0.282 N 
ATOM     10  N   UNL     1      33.009  -9.391 -22.257  0.00  0.00    -0.305 N 
ATOM     11  C   UNL     1      32.435 -11.154 -20.957  0.00  0.00    +0.079 A 
ATOM     12  C   UNL     1      33.438 -10.564 -22.942  0.00  0.00    +0.328 A 
ATOM     13  C   UNL     1      32.403  -9.765 -21.058  0.00  0.00    +0.076 A 
ATOM     14  C   UNL     1      31.904 -11.811 -19.868  0.00  0.00    +0.019 C 
ATOM     15  C   UNL     1      31.844  -8.966 -20.085  0.00  0.00    +0.019 C 
ATOM     16  C   UNL     1      31.330 -11.022 -18.865  0.00  0.00    +0.002 C 
ATOM     17  C   UNL     1      31.301  -9.615 -18.972  0.00  0.00    +0.002 C 
ATOM     18  H   UNL     1      33.121  -8.467 -22.579  0.00  0.00    +0.170 HD
ENDBRANCH   2   9
BRANCH   1  19
ATOM     19  C   UNL     1      35.287 -16.506 -23.980  0.00  0.00    -0.077 C 
BRANCH  19  20
ATOM     20  C   UNL     1      34.496 -17.489 -23.114  0.00  0.00    -0.015 C 
BRANCH  20  21
ATOM     21  C   UNL     1      35.360 -18.652 -22.618  0.00  0.00    +0.067 C 
BRANCH  21  23
ATOM     22  O   UNL     1      36.492 -17.689 -20.717  0.00  0.00    -0.291 OA
ATOM     23  C   UNL     1      35.724 -18.549 -21.144  0.00  0.00    +0.173 C 
BRANCH  23  25
ATOM     24  F   UNL     1      33.430 -22.162 -17.559  0.00  0.00    -0.204 F 
ATOM     25  C   UNL     1      35.111 -19.514 -20.187  0.00  0.00    +0.035 C 
ATOM     26  C   UNL     1      35.941 -20.271 -19.390  0.00  0.00    +0.005 C 
ATOM     27  C   UNL     1      33.739 -19.612 -20.135  0.00  0.00    +0.005 C 
ATOM     28  C   UNL     1      35.368 -21.173 -18.495  0.00  0.00    +0.030 C 
ATOM     29  C   UNL     1      33.166 -20.515 -19.240  0.00  0.00    +0.030 C 
ATOM     30  C   UNL     1      33.980 -21.295 -18.419  0.00  0.00    +0.140 C 
ENDBRANCH  23  25
ENDBRANCH  21  23
ENDBRANCH  20  21
ENDBRANCH  19  20
ENDBRANCH   1  19
TORSDOF 6
ENDMDL
MODEL 7
REMARK VINA RESULT:     -11.2      6.037     10.032
REMARK  Name = 16363
REMARK  6 active torsions:
REMARK  status: ('A' for Active; 'I' for Inactive)
REMARK    1  A    between atoms: N_1  and  C_19
REMARK    2  A    between atoms: C_2  and  N_9
REMARK    3  A    between atoms: C_19  and  C_20
REMARK    4  A    between atoms: C_20  and  C_21
REMARK    5  A    between atoms: C_21  and  C_23
REMARK    6  A    between atoms: C_23  and  C_25
REMARK                            x       y       z     vdW  Elec       q    Type
REMARK                         _______ _______ _______ _____ _____    ______ ____
ROOT
ATOM      1  N   UNL     1      36.094 -21.822 -15.420  0.00  0.00    +0.387 N 
ATOM      2  C   UNL     1      35.528 -21.349 -18.252  0.00  0.00    +0.086 C 
ATOM      3  C   UNL     1      34.442 -21.764 -17.259  0.00  0.00    -0.000 C 
ATOM      4  C   UNL     1      36.670 -20.645 -17.518  0.00  0.00    -0.000 C 
ATOM      5  C   UNL     1      35.027 -22.571 -16.099  0.00  0.00    -0.075 C 
ATOM      6  C   UNL     1      37.183 -21.487 -16.348  0.00  0.00    -0.075 C 
ATOM      7  H   UNL     1      35.695 -20.949 -15.076  0.00  0.00    -0.080 HD
ENDROOT
BRANCH   2   9
ATOM      8  O   UNL     1      32.697 -21.138 -19.268  0.00  0.00    -0.247 OA
ATOM      9  N   UNL     1      34.989 -20.508 -19.290  0.00  0.00    -0.282 N 
ATOM     10  N   UNL     1      33.567 -19.508 -20.744  0.00  0.00    -0.305 N 
ATOM     11  C   UNL     1      35.722 -19.589 -20.054  0.00  0.00    +0.079 A 
ATOM     12  C   UNL     1      33.629 -20.477 -19.703  0.00  0.00    +0.328 A 
ATOM     13  C   UNL     1      34.842 -18.979 -20.945  0.00  0.00    +0.076 A 
ATOM     14  C   UNL     1      37.061 -19.261 -20.024  0.00  0.00    +0.019 C 
ATOM     15  C   UNL     1      35.249 -18.018 -21.844  0.00  0.00    +0.019 C 
ATOM     16  C   UNL     1      37.499 -18.287 -20.928  0.00  0.00    +0.002 C 
ATOM     17  C   UNL     1      36.603 -17.673 -21.828  0.00  0.00    +0.002 C 
ATOM     18  H   UNL     1      32.756 -19.253 -21.241  0.00  0.00    +0.170 HD
ENDBRANCH   2   9
BRANCH   1  19
ATOM     19  C   UNL     1      36.609 -22.584 -14.282  0.00  0.00    -0.077 C 
BRANCH  19  20
ATOM     20  C   UNL     1      35.479 -23.374 -13.620  0.00  0.00    -0.015 C 
BRANCH  20  21
ATOM     21  C   UNL     1      35.556 -23.330 -12.092  0.00  0.00    +0.067 C 
BRANCH  21  23
ATOM     22  O   UNL     1      36.229 -24.951 -10.434  0.00  0.00    -0.291 OA
ATOM     23  C   UNL     1      36.473 -24.392 -11.502  0.00  0.00    +0.173 C 
BRANCH  23  25
ATOM     24  F   UNL     1      41.059 -25.840 -14.339  0.00  0.00    -0.204 F 
ATOM     25  C   UNL     1      37.698 -24.779 -12.259  0.00  0.00    +0.035 C 
ATOM     26  C   UNL     1      37.662 -25.914 -13.038  0.00  0.00    +0.005 C 
ATOM     27  C   UNL     1      38.819 -23.987 -12.152  0.00  0.00    +0.005 C 
ATOM     28  C   UNL     1      38.807 -26.276 -13.747  0.00  0.00    +0.030 C 
ATOM     29  C   UNL     1      39.964 -24.349 -12.860  0.00  0.00    +0.030 C 
ATOM     30  C   UNL     1      39.959 -25.492 -13.658  0.00  0.00    +0.140 C 
ENDBRANCH  23  25
ENDBRANCH  21  23
ENDBRANCH  20  21
ENDBRANCH  19  20
ENDBRANCH   1  19
TORSDOF 6
ENDMDL
MODEL 8
REMARK VINA RESULT:     -11.1      4.464      7.118
REMARK  Name = 16363
REMARK  6 active torsions:
REMARK  status: ('A' for Active; 'I' for Inactive)
REMARK    1  A    between atoms: N_1  and  C_19
REMARK    2  A    between atoms: C_2  and  N_9
REMARK    3  A    between atoms: C_19  and  C_20
REMARK    4  A    between atoms: C_20  and  C_21
REMARK    5  A    between atoms: C_21  and  C_23
REMARK    6  A    between atoms: C_23  and  C_25
REMARK                            x       y       z     vdW  Elec       q    Type
REMARK                         _______ _______ _______ _____ _____    ______ ____
ROOT
ATOM      1  N   UNL     1      35.422 -20.241 -18.721  0.00  0.00    +0.387 N 
ATOM      2  C   UNL     1      35.249 -18.909 -21.320  0.00  0.00    +0.086 C 
ATOM      3  C   UNL     1      34.011 -19.233 -20.484  0.00  0.00    -0.000 C 
ATOM      4  C   UNL     1      36.476 -18.781 -20.416  0.00  0.00    -0.000 C 
ATOM      5  C   UNL     1      34.250 -20.446 -19.583  0.00  0.00    -0.075 C 
ATOM      6  C   UNL     1      36.635 -20.009 -19.517  0.00  0.00    -0.075 C 
ATOM      7  H   UNL     1      35.254 -19.410 -18.154  0.00  0.00    -0.080 HD
ENDROOT
BRANCH   2   9
ATOM      8  O   UNL     1      34.835 -18.592 -24.290  0.00  0.00    -0.247 OA
ATOM      9  N   UNL     1      35.055 -17.709 -22.093  0.00  0.00    -0.282 N 
ATOM     10  N   UNL     1      34.718 -16.278 -23.818  0.00  0.00    -0.305 N 
ATOM     11  C   UNL     1      35.021 -16.406 -21.578  0.00  0.00    +0.079 A 
ATOM     12  C   UNL     1      34.866 -17.658 -23.502  0.00  0.00    +0.328 A 
ATOM     13  C   UNL     1      34.813 -15.533 -22.643  0.00  0.00    +0.076 A 
ATOM     14  C   UNL     1      35.154 -15.947 -20.285  0.00  0.00    +0.019 C 
ATOM     15  C   UNL     1      34.729 -14.168 -22.474  0.00  0.00    +0.019 C 
ATOM     16  C   UNL     1      35.072 -14.565 -20.086  0.00  0.00    +0.002 C 
ATOM     17  C   UNL     1      34.863 -13.685 -21.169  0.00  0.00    +0.002 C 
ATOM     18  H   UNL     1      34.571 -15.910 -24.720  0.00  0.00    +0.170 HD
ENDBRANCH   2   9
BRANCH   1  19
ATOM     19  C   UNL     1      35.607 -21.387 -17.830  0.00  0.00    -0.077 C 
BRANCH  19  20
ATOM     20  C   UNL     1      36.847 -21.183 -16.957  0.00  0.00    -0.015 C 
BRANCH  20  21
ATOM     21  C   UNL     1      36.701 -21.836 -15.579  0.00  0.00    +0.067 C 
BRANCH  21  23
ATOM     22  O   UNL     1      39.069 -22.304 -15.591  0.00  0.00    -0.291 OA
ATOM     23  C   UNL     1      37.963 -22.546 -15.111  0.00  0.00    +0.173 C 
BRANCH  23  25
ATOM     24  F   UNL     1      37.547 -26.324 -11.021  0.00  0.00    -0.204 F 
ATOM     25  C   UNL     1      37.851 -23.555 -14.019  0.00  0.00    +0.035 C 
ATOM     26  C   UNL     1      38.929 -24.374 -13.765  0.00  0.00    +0.005 C 
ATOM     27  C   UNL     1      36.676 -23.630 -13.306  0.00  0.00    +0.005 C 
ATOM     28  C   UNL     1      38.825 -25.318 -12.743  0.00  0.00    +0.030 C 
ATOM     29  C   UNL     1      36.573 -24.573 -12.284  0.00  0.00    +0.030 C 
ATOM     30  C   UNL     1      37.646 -25.417 -12.002  0.00  0.00    +0.140 C 
ENDBRANCH  23  25
ENDBRANCH  21  23
ENDBRANCH  20  21
ENDBRANCH  19  20
ENDBRANCH   1  19
TORSDOF 6
ENDMDL
MODEL 9
REMARK VINA RESULT:     -11.0      4.188      9.392
REMARK  Name = 16363
REMARK  6 active torsions:
REMARK  status: ('A' for Active; 'I' for Inactive)
REMARK    1  A    between atoms: N_1  and  C_19
REMARK    2  A    between atoms: C_2  and  N_9
REMARK    3  A    between atoms: C_19  and  C_20
REMARK    4  A    between atoms: C_20  and  C_21
REMARK    5  A    between atoms: C_21  and  C_23
REMARK    6  A    between atoms: C_23  and  C_25
REMARK                            x       y       z     vdW  Elec       q    Type
REMARK                         _______ _______ _______ _____ _____    ______ ____
ROOT
ATOM      1  N   UNL     1      35.216 -16.045 -23.919  0.00  0.00    +0.387 N 
ATOM      2  C   UNL     1      34.998 -17.810 -21.596  0.00  0.00    +0.086 C 
ATOM      3  C   UNL     1      35.022 -18.344 -23.029  0.00  0.00    -0.000 C 
ATOM      4  C   UNL     1      35.699 -16.453 -21.528  0.00  0.00    -0.000 C 
ATOM      5  C   UNL     1      34.476 -17.311 -24.016  0.00  0.00    -0.075 C 
ATOM      6  C   UNL     1      35.132 -15.481 -22.565  0.00  0.00    -0.075 C 
ATOM      7  H   UNL     1      36.197 -16.237 -24.119  0.00  0.00    -0.080 HD
ENDROOT
BRANCH   2   9
ATOM      8  O   UNL     1      37.912 -18.249 -20.953  0.00  0.00    -0.247 OA
ATOM      9  N   UNL     1      35.603 -18.746 -20.683  0.00  0.00    -0.282 N 
ATOM     10  N   UNL     1      37.122 -19.919 -19.477  0.00  0.00    -0.305 N 
ATOM     11  C   UNL     1      34.909 -19.669 -19.888  0.00  0.00    +0.079 A 
ATOM     12  C   UNL     1      36.997 -18.881 -20.444  0.00  0.00    +0.328 A 
ATOM     13  C   UNL     1      35.849 -20.385 -19.150  0.00  0.00    +0.076 A 
ATOM     14  C   UNL     1      33.558 -19.916 -19.769  0.00  0.00    +0.019 C 
ATOM     15  C   UNL     1      35.491 -21.377 -18.264  0.00  0.00    +0.019 C 
ATOM     16  C   UNL     1      33.169 -20.919 -18.875  0.00  0.00    +0.002 C 
ATOM     17  C   UNL     1      34.126 -21.642 -18.131  0.00  0.00    +0.002 C 
ATOM     18  H   UNL     1      37.968 -20.252 -19.100  0.00  0.00    +0.170 HD
ENDBRANCH   2   9
BRANCH   1  19
ATOM     19  C   UNL     1      34.717 -15.084 -24.904  0.00  0.00    -0.077 C 
BRANCH  19  20
ATOM     20  C   UNL     1      33.610 -14.225 -24.290  0.00  0.00    -0.015 C 
BRANCH  20  21
ATOM     21  C   UNL     1      33.753 -12.745 -24.655  0.00  0.00    +0.067 C 
BRANCH  21  23
ATOM     22  O   UNL     1      34.332 -12.324 -22.350  0.00  0.00    -0.291 OA
ATOM     23  C   UNL     1      34.124 -11.864 -23.471  0.00  0.00    +0.173 C 
BRANCH  23  25
ATOM     24  F   UNL     1      34.624  -6.363 -24.287  0.00  0.00    -0.204 F 
ATOM     25  C   UNL     1      34.257 -10.395 -23.688  0.00  0.00    +0.035 C 
ATOM     26  C   UNL     1      35.241  -9.940 -24.538  0.00  0.00    +0.005 C 
ATOM     27  C   UNL     1      33.392  -9.548 -23.032  0.00  0.00    +0.005 C 
ATOM     28  C   UNL     1      35.366  -8.566 -24.742  0.00  0.00    +0.030 C 
ATOM     29  C   UNL     1      33.518  -8.175 -23.236  0.00  0.00    +0.030 C 
ATOM     30  C   UNL     1      34.504  -7.683 -24.091  0.00  0.00    +0.140 C 
ENDBRANCH  23  25
ENDBRANCH  21  23
ENDBRANCH  20  21
ENDBRANCH  19  20
ENDBRANCH   1  19
TORSDOF 6
ENDMDL
