MODEL 1
REMARK VINA RESULT:     -11.6      0.000      0.000
REMARK  Name = 91617630
REMARK  6 active torsions:
REMARK  status: ('A' for Active; 'I' for Inactive)
REMARK    1  A    between atoms: N_4  and  C_10
REMARK    2  A    between atoms: N_5  and  C_16
REMARK    3  A    between atoms: C_7  and  C_24
REMARK    4  A    between atoms: N_23  and  C_26
REMARK    5  A    between atoms: C_26  and  C_28
REMARK    6  A    between atoms: C_28  and  O_29
REMARK                            x       y       z     vdW  Elec       q    Type
REMARK                         _______ _______ _______ _____ _____    ______ ____
ROOT
ATOM      1  O   UNL     1      31.891 -21.928 -16.890  0.00  0.00    -0.252 OA
ATOM      2  O   UNL     1      33.129 -23.781 -12.812  0.00  0.00    -0.273 OA
ATOM      3  O   UNL     1      36.364 -22.694 -15.879  0.00  0.00    -0.273 OA
ATOM      4  N   UNL     1      32.462 -22.764 -14.800  0.00  0.00    -0.215 N 
ATOM      5  N   UNL     1      34.145 -22.209 -16.399  0.00  0.00    -0.215 N 
ATOM      6  C   UNL     1      32.768 -22.258 -16.083  0.00  0.00    +0.319 C 
ATOM      7  C   UNL     1      34.790 -22.618 -14.079  0.00  0.00    +0.229 C 
ATOM      8  C   UNL     1      33.396 -23.136 -13.826  0.00  0.00    +0.250 C 
ATOM      9  C   UNL     1      35.193 -22.537 -15.531  0.00  0.00    +0.250 C 
ENDROOT
BRANCH   4  10
ATOM     10  C   UNL     1      31.067 -23.000 -14.516  0.00  0.00    +0.084 C 
ATOM     11  C   UNL     1      30.558 -24.213 -15.299  0.00  0.00    +0.020 C 
ATOM     12  C   UNL     1      30.234 -21.752 -14.820  0.00  0.00    +0.020 C 
ATOM     13  C   UNL     1      28.746 -21.997 -14.579  0.00  0.00    +0.002 C 
ATOM     14  C   UNL     1      29.070 -24.454 -15.059  0.00  0.00    +0.002 C 
ATOM     15  C   UNL     1      28.242 -23.208 -15.358  0.00  0.00    +0.000 C 
ENDBRANCH   4  10
BRANCH   5  16
ATOM     16  C   UNL     1      34.478 -21.872 -17.762  0.00  0.00    +0.084 C 
ATOM     17  C   UNL     1      33.395 -20.985 -18.382  0.00  0.00    +0.020 C 
ATOM     18  C   UNL     1      35.852 -21.202 -17.828  0.00  0.00    +0.020 C 
ATOM     19  C   UNL     1      36.208 -20.786 -19.253  0.00  0.00    +0.002 C 
ATOM     20  C   UNL     1      33.754 -20.572 -19.806  0.00  0.00    +0.002 C 
ATOM     21  C   UNL     1      35.125 -19.905 -19.870  0.00  0.00    +0.000 C 
ENDBRANCH   5  16
BRANCH   7  24
ATOM     22  O   UNL     1      36.325 -22.840 -12.260  0.00  0.00    -0.274 OA
ATOM     23  N   UNL     1      36.098 -24.603 -13.764  0.00  0.00    -0.294 N 
ATOM     24  C   UNL     1      35.813 -23.348 -13.255  0.00  0.00    +0.240 C 
ATOM     25  H   UNL     1      35.620 -24.901 -14.572  0.00  0.00    +0.150 HD
BRANCH  23  26
ATOM     26  C   UNL     1      37.064 -25.497 -13.170  0.00  0.00    +0.200 C 
BRANCH  26  28
ATOM     27  O   UNL     1      39.097 -26.544 -13.920  0.00  0.00    -0.248 OA
ATOM     28  C   UNL     1      37.972 -26.140 -14.186  0.00  0.00    +0.334 C 
BRANCH  28  29
ATOM     29  O   UNL     1      37.425 -26.228 -15.421  0.00  0.00    -0.479 OA
ATOM     30  H   UNL     1      37.162 -25.451 -15.873  0.00  0.00    +0.295 HD
ENDBRANCH  28  29
ENDBRANCH  26  28
ENDBRANCH  23  26
ENDBRANCH   7  24
TORSDOF 6
ENDMDL
MODEL 2
REMARK VINA RESULT:     -11.6      1.479      5.284
REMARK  Name = 91617630
REMARK  6 active torsions:
REMARK  status: ('A' for Active; 'I' for Inactive)
REMARK    1  A    between atoms: N_4  and  C_10
REMARK    2  A    between atoms: N_5  and  C_16
REMARK    3  A    between atoms: C_7  and  C_24
REMARK    4  A    between atoms: N_23  and  C_26
REMARK    5  A    between atoms: C_26  and  C_28
REMARK    6  A    between atoms: C_28  and  O_29
REMARK                            x       y       z     vdW  Elec       q    Type
REMARK                         _______ _______ _______ _____ _____    ______ ____
ROOT
ATOM      1  O   UNL     1      31.853 -22.395 -17.241  0.00  0.00    -0.252 OA
ATOM      2  O   UNL     1      36.333 -22.269 -16.014  0.00  0.00    -0.273 OA
ATOM      3  O   UNL     1      33.154 -23.309 -12.873  0.00  0.00    -0.273 OA
ATOM      4  N   UNL     1      34.112 -22.414 -16.704  0.00  0.00    -0.215 N 
ATOM      5  N   UNL     1      32.458 -22.945 -15.067  0.00  0.00    -0.215 N 
ATOM      6  C   UNL     1      32.742 -22.589 -16.405  0.00  0.00    +0.319 C 
ATOM      7  C   UNL     1      34.803 -23.443 -14.600  0.00  0.00    +0.229 C 
ATOM      8  C   UNL     1      35.174 -22.636 -15.820  0.00  0.00    +0.250 C 
ATOM      9  C   UNL     1      33.408 -23.210 -14.074  0.00  0.00    +0.250 C 
ENDROOT
BRANCH   4  10
ATOM     10  C   UNL     1      34.423 -21.873 -18.005  0.00  0.00    +0.084 C 
ATOM     11  C   UNL     1      35.804 -21.213 -17.995  0.00  0.00    +0.020 C 
ATOM     12  C   UNL     1      33.339 -20.892 -18.456  0.00  0.00    +0.020 C 
ATOM     13  C   UNL     1      33.676 -20.265 -19.808  0.00  0.00    +0.002 C 
ATOM     14  C   UNL     1      36.137 -20.584 -19.345  0.00  0.00    +0.002 C 
ATOM     15  C   UNL     1      35.053 -19.609 -19.796  0.00  0.00    +0.000 C 
ENDBRANCH   4  10
BRANCH   5  16
ATOM     16  C   UNL     1      31.066 -22.950 -14.686  0.00  0.00    +0.084 C 
ATOM     17  C   UNL     1      30.309 -21.818 -15.388  0.00  0.00    +0.020 C 
ATOM     18  C   UNL     1      30.433 -24.311 -14.983  0.00  0.00    +0.020 C 
ATOM     19  C   UNL     1      28.946 -24.328 -14.640  0.00  0.00    +0.002 C 
ATOM     20  C   UNL     1      28.822 -21.838 -15.041  0.00  0.00    +0.002 C 
ATOM     21  C   UNL     1      28.194 -23.197 -15.336  0.00  0.00    +0.000 C 
ENDBRANCH   5  16
BRANCH   7  24
ATOM     22  O   UNL     1      36.488 -22.292 -13.356  0.00  0.00    -0.274 OA
ATOM     23  N   UNL     1      35.962 -24.486 -12.779  0.00  0.00    -0.294 N 
ATOM     24  C   UNL     1      35.837 -23.322 -13.518  0.00  0.00    +0.240 C 
ATOM     25  H   UNL     1      35.382 -25.248 -13.004  0.00  0.00    +0.150 HD
BRANCH  23  26
ATOM     26  C   UNL     1      36.904 -24.636 -11.693  0.00  0.00    +0.200 C 
BRANCH  26  28
ATOM     27  O   UNL     1      35.634 -24.362  -9.667  0.00  0.00    -0.248 OA
ATOM     28  C   UNL     1      36.475 -23.919 -10.440  0.00  0.00    +0.334 C 
BRANCH  28  29
ATOM     29  O   UNL     1      37.107 -22.737 -10.249  0.00  0.00    -0.479 OA
ATOM     30  H   UNL     1      37.589 -22.345 -10.951  0.00  0.00    +0.295 HD
ENDBRANCH  28  29
ENDBRANCH  26  28
ENDBRANCH  23  26
ENDBRANCH   7  24
TORSDOF 6
ENDMDL
MODEL 3
REMARK VINA RESULT:     -11.5      1.520      2.258
REMARK  Name = 91617630
REMARK  6 active torsions:
REMARK  status: ('A' for Active; 'I' for Inactive)
REMARK    1  A    between atoms: N_4  and  C_10
REMARK    2  A    between atoms: N_5  and  C_16
REMARK    3  A    between atoms: C_7  and  C_24
REMARK    4  A    between atoms: N_23  and  C_26
REMARK    5  A    between atoms: C_26  and  C_28
REMARK    6  A    between atoms: C_28  and  O_29
REMARK                            x       y       z     vdW  Elec       q    Type
REMARK                         _______ _______ _______ _____ _____    ______ ____
ROOT
ATOM      1  O   UNL     1      32.341 -22.006 -17.653  0.00  0.00    -0.252 OA
ATOM      2  O   UNL     1      33.297 -23.926 -13.531  0.00  0.00    -0.273 OA
ATOM      3  O   UNL     1      36.716 -22.267 -16.102  0.00  0.00    -0.273 OA
ATOM      4  N   UNL     1      32.754 -22.885 -15.544  0.00  0.00    -0.215 N 
ATOM      5  N   UNL     1      34.534 -22.032 -16.885  0.00  0.00    -0.215 N 
ATOM      6  C   UNL     1      33.147 -22.270 -16.754  0.00  0.00    +0.319 C 
ATOM      7  C   UNL     1      34.936 -22.493 -14.520  0.00  0.00    +0.229 C 
ATOM      8  C   UNL     1      33.601 -23.194 -14.474  0.00  0.00    +0.250 C 
ATOM      9  C   UNL     1      35.500 -22.277 -15.903  0.00  0.00    +0.250 C 
ENDROOT
BRANCH   4  10
ATOM     10  C   UNL     1      31.377 -23.309 -15.455  0.00  0.00    +0.084 C 
ATOM     11  C   UNL     1      30.525 -22.226 -14.788  0.00  0.00    +0.020 C 
ATOM     12  C   UNL     1      31.268 -24.641 -14.710  0.00  0.00    +0.020 C 
ATOM     13  C   UNL     1      29.814 -25.082 -14.556  0.00  0.00    +0.002 C 
ATOM     14  C   UNL     1      29.073 -22.670 -14.632  0.00  0.00    +0.002 C 
ATOM     15  C   UNL     1      28.966 -24.001 -13.893  0.00  0.00    +0.000 C 
ENDBRANCH   4  10
BRANCH   5  16
ATOM     16  C   UNL     1      34.987 -21.577 -18.178  0.00  0.00    +0.084 C 
ATOM     17  C   UNL     1      33.968 -20.618 -18.802  0.00  0.00    +0.020 C 
ATOM     18  C   UNL     1      36.366 -20.926 -18.064  0.00  0.00    +0.020 C 
ATOM     19  C   UNL     1      36.847 -20.386 -19.409  0.00  0.00    +0.002 C 
ATOM     20  C   UNL     1      34.452 -20.082 -20.147  0.00  0.00    +0.002 C 
ATOM     21  C   UNL     1      35.829 -19.435 -20.031  0.00  0.00    +0.000 C 
ENDBRANCH   5  16
BRANCH   7  24
ATOM     22  O   UNL     1      36.572 -24.132 -13.935  0.00  0.00    -0.274 OA
ATOM     23  N   UNL     1      36.016 -22.491 -12.380  0.00  0.00    -0.294 N 
ATOM     24  C   UNL     1      35.935 -23.136 -13.602  0.00  0.00    +0.240 C 
ATOM     25  H   UNL     1      35.452 -21.698 -12.231  0.00  0.00    +0.150 HD
BRANCH  23  26
ATOM     26  C   UNL     1      36.885 -22.927 -11.312  0.00  0.00    +0.200 C 
BRANCH  26  28
ATOM     27  O   UNL     1      35.690 -23.835  -9.430  0.00  0.00    -0.248 OA
ATOM     28  C   UNL     1      36.287 -24.033 -10.481  0.00  0.00    +0.334 C 
BRANCH  28  29
ATOM     29  O   UNL     1      36.473 -25.266 -11.008  0.00  0.00    -0.479 OA
ATOM     30  H   UNL     1      36.690 -25.360 -11.914  0.00  0.00    +0.295 HD
ENDBRANCH  28  29
ENDBRANCH  26  28
ENDBRANCH  23  26
ENDBRANCH   7  24
TORSDOF 6
ENDMDL
MODEL 4
REMARK VINA RESULT:     -11.4      1.841      6.688
REMARK  Name = 91617630
REMARK  6 active torsions:
REMARK  status: ('A' for Active; 'I' for Inactive)
REMARK    1  A    between atoms: N_4  and  C_10
REMARK    2  A    between atoms: N_5  and  C_16
REMARK    3  A    between atoms: C_7  and  C_24
REMARK    4  A    between atoms: N_23  and  C_26
REMARK    5  A    between atoms: C_26  and  C_28
REMARK    6  A    between atoms: C_28  and  O_29
REMARK                            x       y       z     vdW  Elec       q    Type
REMARK                         _______ _______ _______ _____ _____    ______ ____
ROOT
ATOM      1  O   UNL     1      33.280 -23.628 -12.446  0.00  0.00    -0.252 OA
ATOM      2  O   UNL     1      36.636 -23.114 -15.619  0.00  0.00    -0.273 OA
ATOM      3  O   UNL     1      32.269 -22.353 -16.801  0.00  0.00    -0.273 OA
ATOM      4  N   UNL     1      35.003 -23.290 -13.966  0.00  0.00    -0.215 N 
ATOM      5  N   UNL     1      32.731 -22.904 -14.584  0.00  0.00    -0.215 N 
ATOM      6  C   UNL     1      33.645 -23.281 -13.575  0.00  0.00    +0.319 C 
ATOM      7  C   UNL     1      34.518 -22.084 -16.033  0.00  0.00    +0.229 C 
ATOM      8  C   UNL     1      35.495 -22.891 -15.215  0.00  0.00    +0.250 C 
ATOM      9  C   UNL     1      33.069 -22.473 -15.872  0.00  0.00    +0.250 C 
ENDROOT
BRANCH   4  10
ATOM     10  C   UNL     1      35.942 -23.845 -13.021  0.00  0.00    +0.084 C 
ATOM     11  C   UNL     1      36.936 -22.776 -12.561  0.00  0.00    +0.020 C 
ATOM     12  C   UNL     1      36.662 -25.055 -13.621  0.00  0.00    +0.020 C 
ATOM     13  C   UNL     1      37.700 -25.625 -12.656  0.00  0.00    +0.002 C 
ATOM     14  C   UNL     1      37.974 -23.349 -11.600  0.00  0.00    +0.002 C 
ATOM     15  C   UNL     1      38.689 -24.558 -12.198  0.00  0.00    +0.000 C 
ENDBRANCH   4  10
BRANCH   5  16
ATOM     16  C   UNL     1      31.330 -23.063 -14.273  0.00  0.00    +0.084 C 
ATOM     17  C   UNL     1      30.503 -21.940 -14.907  0.00  0.00    +0.020 C 
ATOM     18  C   UNL     1      30.835 -24.439 -14.719  0.00  0.00    +0.020 C 
ATOM     19  C   UNL     1      29.342 -24.615 -14.450  0.00  0.00    +0.002 C 
ATOM     20  C   UNL     1      29.012 -22.119 -14.636  0.00  0.00    +0.002 C 
ATOM     21  C   UNL     1      28.520 -23.493 -15.079  0.00  0.00    +0.000 C 
ENDBRANCH   5  16
BRANCH   7  24
ATOM     22  O   UNL     1      34.426 -22.761 -18.323  0.00  0.00    -0.274 OA
ATOM     23  N   UNL     1      35.903 -21.070 -17.706  0.00  0.00    -0.294 N 
ATOM     24  C   UNL     1      34.923 -22.020 -17.478  0.00  0.00    +0.240 C 
ATOM     25  H   UNL     1      36.223 -20.535 -16.945  0.00  0.00    +0.150 HD
BRANCH  23  26
ATOM     26  C   UNL     1      36.481 -20.827 -19.008  0.00  0.00    +0.200 C 
BRANCH  26  28
ATOM     27  O   UNL     1      34.702 -19.795 -20.257  0.00  0.00    -0.248 OA
ATOM     28  C   UNL     1      35.811 -19.698 -19.747  0.00  0.00    +0.334 C 
BRANCH  28  29
ATOM     29  O   UNL     1      36.552 -18.566 -19.794  0.00  0.00    -0.479 OA
ATOM     30  H   UNL     1      36.988 -18.260 -19.023  0.00  0.00    +0.295 HD
ENDBRANCH  28  29
ENDBRANCH  26  28
ENDBRANCH  23  26
ENDBRANCH   7  24
TORSDOF 6
ENDMDL
MODEL 5
REMARK VINA RESULT:     -11.3      1.681      6.099
REMARK  Name = 91617630
REMARK  6 active torsions:
REMARK  status: ('A' for Active; 'I' for Inactive)
REMARK    1  A    between atoms: N_4  and  C_10
REMARK    2  A    between atoms: N_5  and  C_16
REMARK    3  A    between atoms: C_7  and  C_24
REMARK    4  A    between atoms: N_23  and  C_26
REMARK    5  A    between atoms: C_26  and  C_28
REMARK    6  A    between atoms: C_28  and  O_29
REMARK                            x       y       z     vdW  Elec       q    Type
REMARK                         _______ _______ _______ _____ _____    ______ ____
ROOT
ATOM      1  O   UNL     1      36.504 -23.022 -15.650  0.00  0.00    -0.252 OA
ATOM      2  O   UNL     1      32.901 -23.324 -12.730  0.00  0.00    -0.273 OA
ATOM      3  O   UNL     1      32.211 -21.898 -17.037  0.00  0.00    -0.273 OA
ATOM      4  N   UNL     1      34.724 -23.285 -14.181  0.00  0.00    -0.215 N 
ATOM      5  N   UNL     1      34.366 -22.533 -16.418  0.00  0.00    -0.215 N 
ATOM      6  C   UNL     1      35.287 -22.969 -15.439  0.00  0.00    +0.319 C 
ATOM      7  C   UNL     1      32.453 -23.250 -15.079  0.00  0.00    +0.229 C 
ATOM      8  C   UNL     1      33.359 -23.269 -13.872  0.00  0.00    +0.250 C 
ATOM      9  C   UNL     1      32.977 -22.474 -16.263  0.00  0.00    +0.250 C 
ENDROOT
BRANCH   4  10
ATOM     10  C   UNL     1      35.653 -23.554 -13.110  0.00  0.00    +0.084 C 
ATOM     11  C   UNL     1      36.620 -22.382 -12.932  0.00  0.00    +0.020 C 
ATOM     12  C   UNL     1      36.403 -24.864 -13.360  0.00  0.00    +0.020 C 
ATOM     13  C   UNL     1      37.431 -25.141 -12.265  0.00  0.00    +0.002 C 
ATOM     14  C   UNL     1      37.649 -22.662 -11.838  0.00  0.00    +0.002 C 
ATOM     15  C   UNL     1      38.394 -23.971 -12.088  0.00  0.00    +0.000 C 
ENDBRANCH   4  10
BRANCH   5  16
ATOM     16  C   UNL     1      34.929 -22.029 -17.648  0.00  0.00    +0.084 C 
ATOM     17  C   UNL     1      33.885 -21.229 -18.433  0.00  0.00    +0.020 C 
ATOM     18  C   UNL     1      36.175 -21.189 -17.363  0.00  0.00    +0.020 C 
ATOM     19  C   UNL     1      36.761 -20.598 -18.643  0.00  0.00    +0.002 C 
ATOM     20  C   UNL     1      34.475 -20.641 -19.712  0.00  0.00    +0.002 C 
ATOM     21  C   UNL     1      35.719 -19.805 -19.426  0.00  0.00    +0.000 C 
ENDBRANCH   5  16
BRANCH   7  24
ATOM     22  O   UNL     1      30.829 -21.956 -13.896  0.00  0.00    -0.274 OA
ATOM     23  N   UNL     1      30.101 -23.586 -15.390  0.00  0.00    -0.294 N 
ATOM     24  C   UNL     1      31.054 -22.842 -14.717  0.00  0.00    +0.240 C 
ATOM     25  H   UNL     1      30.405 -24.272 -16.027  0.00  0.00    +0.150 HD
BRANCH  23  26
ATOM     26  C   UNL     1      28.679 -23.406 -15.202  0.00  0.00    +0.200 C 
BRANCH  26  28
ATOM     27  O   UNL     1      28.107 -21.266 -16.146  0.00  0.00    -0.248 OA
ATOM     28  C   UNL     1      28.063 -22.488 -16.227  0.00  0.00    +0.334 C 
BRANCH  28  29
ATOM     29  O   UNL     1      27.455 -23.142 -17.244  0.00  0.00    -0.479 OA
ATOM     30  H   UNL     1      27.593 -24.062 -17.358  0.00  0.00    +0.295 HD
ENDBRANCH  28  29
ENDBRANCH  26  28
ENDBRANCH  23  26
ENDBRANCH   7  24
TORSDOF 6
ENDMDL
MODEL 6
REMARK VINA RESULT:     -10.3      1.433      5.305
REMARK  Name = 91617630
REMARK  6 active torsions:
REMARK  status: ('A' for Active; 'I' for Inactive)
REMARK    1  A    between atoms: N_4  and  C_10
REMARK    2  A    between atoms: N_5  and  C_16
REMARK    3  A    between atoms: C_7  and  C_24
REMARK    4  A    between atoms: N_23  and  C_26
REMARK    5  A    between atoms: C_26  and  C_28
REMARK    6  A    between atoms: C_28  and  O_29
REMARK                            x       y       z     vdW  Elec       q    Type
REMARK                         _______ _______ _______ _____ _____    ______ ____
ROOT
ATOM      1  O   UNL     1      32.561 -22.081 -18.000  0.00  0.00    -0.252 OA
ATOM      2  O   UNL     1      37.027 -21.669 -16.786  0.00  0.00    -0.273 OA
ATOM      3  O   UNL     1      34.008 -23.350 -13.767  0.00  0.00    -0.273 OA
ATOM      4  N   UNL     1      34.820 -21.947 -17.478  0.00  0.00    -0.215 N 
ATOM      5  N   UNL     1      33.248 -22.811 -15.904  0.00  0.00    -0.215 N 
ATOM      6  C   UNL     1      33.477 -22.283 -17.194  0.00  0.00    +0.319 C 
ATOM      7  C   UNL     1      35.636 -23.134 -15.506  0.00  0.00    +0.229 C 
ATOM      8  C   UNL     1      35.911 -22.164 -16.629  0.00  0.00    +0.250 C 
ATOM      9  C   UNL     1      34.233 -23.094 -14.951  0.00  0.00    +0.250 C 
ENDROOT
BRANCH   4  10
ATOM     10  C   UNL     1      35.059 -21.237 -18.711  0.00  0.00    +0.084 C 
ATOM     11  C   UNL     1      36.362 -20.438 -18.625  0.00  0.00    +0.020 C 
ATOM     12  C   UNL     1      33.873 -20.334 -19.055  0.00  0.00    +0.020 C 
ATOM     13  C   UNL     1      34.128 -19.531 -20.329  0.00  0.00    +0.002 C 
ATOM     14  C   UNL     1      36.613 -19.633 -19.898  0.00  0.00    +0.002 C 
ATOM     15  C   UNL     1      35.427 -18.737 -20.242  0.00  0.00    +0.000 C 
ENDBRANCH   4  10
BRANCH   5  16
ATOM     16  C   UNL     1      31.868 -22.990 -15.519  0.00  0.00    +0.084 C 
ATOM     17  C   UNL     1      31.585 -24.458 -15.185  0.00  0.00    +0.020 C 
ATOM     18  C   UNL     1      31.515 -22.075 -14.346  0.00  0.00    +0.020 C 
ATOM     19  C   UNL     1      30.075 -22.281 -13.883  0.00  0.00    +0.002 C 
ATOM     20  C   UNL     1      30.144 -24.661 -14.723  0.00  0.00    +0.002 C 
ATOM     21  C   UNL     1      29.794 -23.745 -13.555  0.00  0.00    +0.000 C 
ENDBRANCH   5  16
BRANCH   7  24
ATOM     22  O   UNL     1      36.605 -22.184 -13.539  0.00  0.00    -0.274 OA
ATOM     23  N   UNL     1      37.669 -23.984 -14.563  0.00  0.00    -0.294 N 
ATOM     24  C   UNL     1      36.670 -23.036 -14.421  0.00  0.00    +0.240 C 
ATOM     25  H   UNL     1      37.612 -24.617 -15.315  0.00  0.00    +0.150 HD
BRANCH  23  26
ATOM     26  C   UNL     1      38.795 -24.087 -13.663  0.00  0.00    +0.200 C 
BRANCH  26  28
ATOM     27  O   UNL     1      40.921 -24.768 -14.562  0.00  0.00    -0.248 OA
ATOM     28  C   UNL     1      39.824 -25.088 -14.121  0.00  0.00    +0.334 C 
BRANCH  28  29
ATOM     29  O   UNL     1      39.419 -26.374 -14.001  0.00  0.00    -0.479 OA
ATOM     30  H   UNL     1      38.969 -26.791 -14.710  0.00  0.00    +0.295 HD
ENDBRANCH  28  29
ENDBRANCH  26  28
ENDBRANCH  23  26
ENDBRANCH   7  24
TORSDOF 6
ENDMDL
MODEL 7
REMARK VINA RESULT:      -9.3     11.516     15.109
REMARK  Name = 91617630
REMARK  6 active torsions:
REMARK  status: ('A' for Active; 'I' for Inactive)
REMARK    1  A    between atoms: N_4  and  C_10
REMARK    2  A    between atoms: N_5  and  C_16
REMARK    3  A    between atoms: C_7  and  C_24
REMARK    4  A    between atoms: N_23  and  C_26
REMARK    5  A    between atoms: C_26  and  C_28
REMARK    6  A    between atoms: C_28  and  O_29
REMARK                            x       y       z     vdW  Elec       q    Type
REMARK                         _______ _______ _______ _____ _____    ______ ____
ROOT
ATOM      1  O   UNL     1      32.737  -7.814 -23.379  0.00  0.00    -0.252 OA
ATOM      2  O   UNL     1      33.977 -12.291 -23.293  0.00  0.00    -0.273 OA
ATOM      3  O   UNL     1      32.137 -10.380 -19.549  0.00  0.00    -0.273 OA
ATOM      4  N   UNL     1      33.282 -10.071 -23.421  0.00  0.00    -0.215 N 
ATOM      5  N   UNL     1      32.335  -9.075 -21.470  0.00  0.00    -0.215 N 
ATOM      6  C   UNL     1      32.765  -8.908 -22.806  0.00  0.00    +0.319 C 
ATOM      7  C   UNL     1      32.440 -11.509 -21.636  0.00  0.00    +0.229 C 
ATOM      8  C   UNL     1      33.327 -11.346 -22.846  0.00  0.00    +0.250 C 
ATOM      9  C   UNL     1      32.309 -10.283 -20.765  0.00  0.00    +0.250 C 
ENDROOT
BRANCH   4  10
ATOM     10  C   UNL     1      33.898  -9.895 -24.714  0.00  0.00    +0.084 C 
ATOM     11  C   UNL     1      33.793 -11.182 -25.536  0.00  0.00    +0.020 C 
ATOM     12  C   UNL     1      35.353  -9.446 -24.565  0.00  0.00    +0.020 C 
ATOM     13  C   UNL     1      36.040  -9.306 -25.922  0.00  0.00    +0.002 C 
ATOM     14  C   UNL     1      34.484 -11.042 -26.891  0.00  0.00    +0.002 C 
ATOM     15  C   UNL     1      35.933 -10.589 -26.740  0.00  0.00    +0.000 C 
ENDBRANCH   4  10
BRANCH   5  16
ATOM     16  C   UNL     1      31.975  -7.872 -20.757  0.00  0.00    +0.084 C 
ATOM     17  C   UNL     1      33.130  -7.405 -19.865  0.00  0.00    +0.020 C 
ATOM     18  C   UNL     1      31.550  -6.776 -21.736  0.00  0.00    +0.020 C 
ATOM     19  C   UNL     1      31.215  -5.474 -21.013  0.00  0.00    +0.002 C 
ATOM     20  C   UNL     1      32.791  -6.103 -19.144  0.00  0.00    +0.002 C 
ATOM     21  C   UNL     1      32.364  -5.012 -20.122  0.00  0.00    +0.000 C 
ENDBRANCH   5  16
BRANCH   7  24
ATOM     22  O   UNL     1      31.973 -13.353 -20.190  0.00  0.00    -0.274 OA
ATOM     23  N   UNL     1      34.159 -13.015 -20.913  0.00  0.00    -0.294 N 
ATOM     24  C   UNL     1      32.808 -12.726 -20.837  0.00  0.00    +0.240 C 
ATOM     25  H   UNL     1      34.732 -12.437 -21.468  0.00  0.00    +0.150 HD
BRANCH  23  26
ATOM     26  C   UNL     1      34.773 -14.122 -20.216  0.00  0.00    +0.200 C 
BRANCH  26  28
ATOM     27  O   UNL     1      35.331 -16.393 -20.788  0.00  0.00    -0.248 OA
ATOM     28  C   UNL     1      35.216 -15.225 -21.142  0.00  0.00    +0.334 C 
BRANCH  28  29
ATOM     29  O   UNL     1      35.477 -14.804 -22.402  0.00  0.00    -0.479 OA
ATOM     30  H   UNL     1      34.775 -14.519 -22.954  0.00  0.00    +0.295 HD
ENDBRANCH  28  29
ENDBRANCH  26  28
ENDBRANCH  23  26
ENDBRANCH   7  24
TORSDOF 6
ENDMDL
MODEL 8
REMARK VINA RESULT:      -8.8      2.058      5.661
REMARK  Name = 91617630
REMARK  6 active torsions:
REMARK  status: ('A' for Active; 'I' for Inactive)
REMARK    1  A    between atoms: N_4  and  C_10
REMARK    2  A    between atoms: N_5  and  C_16
REMARK    3  A    between atoms: C_7  and  C_24
REMARK    4  A    between atoms: N_23  and  C_26
REMARK    5  A    between atoms: C_26  and  C_28
REMARK    6  A    between atoms: C_28  and  O_29
REMARK                            x       y       z     vdW  Elec       q    Type
REMARK                         _______ _______ _______ _____ _____    ______ ____
ROOT
ATOM      1  O   UNL     1      37.200 -21.725 -17.021  0.00  0.00    -0.252 OA
ATOM      2  O   UNL     1      34.269 -23.351 -13.802  0.00  0.00    -0.273 OA
ATOM      3  O   UNL     1      32.629 -21.933 -17.846  0.00  0.00    -0.273 OA
ATOM      4  N   UNL     1      35.790 -22.637 -15.416  0.00  0.00    -0.215 N 
ATOM      5  N   UNL     1      34.936 -21.890 -17.516  0.00  0.00    -0.215 N 
ATOM      6  C   UNL     1      36.063 -22.075 -16.684  0.00  0.00    +0.319 C 
ATOM      7  C   UNL     1      33.524 -23.266 -16.073  0.00  0.00    +0.229 C 
ATOM      8  C   UNL     1      34.538 -23.077 -14.972  0.00  0.00    +0.250 C 
ATOM      9  C   UNL     1      33.627 -22.286 -17.217  0.00  0.00    +0.250 C 
ENDROOT
BRANCH   4  10
ATOM     10  C   UNL     1      36.885 -22.668 -14.476  0.00  0.00    +0.084 C 
ATOM     11  C   UNL     1      37.634 -24.000 -14.570  0.00  0.00    +0.020 C 
ATOM     12  C   UNL     1      36.385 -22.409 -13.054  0.00  0.00    +0.020 C 
ATOM     13  C   UNL     1      37.521 -22.492 -12.035  0.00  0.00    +0.002 C 
ATOM     14  C   UNL     1      38.766 -24.082 -13.549  0.00  0.00    +0.002 C 
ATOM     15  C   UNL     1      38.266 -23.819 -12.131  0.00  0.00    +0.000 C 
ENDBRANCH   4  10
BRANCH   5  16
ATOM     16  C   UNL     1      35.154 -21.152 -18.737  0.00  0.00    +0.084 C 
ATOM     17  C   UNL     1      33.925 -20.307 -19.086  0.00  0.00    +0.020 C 
ATOM     18  C   UNL     1      36.410 -20.287 -18.623  0.00  0.00    +0.020 C 
ATOM     19  C   UNL     1      36.636 -19.454 -19.882  0.00  0.00    +0.002 C 
ATOM     20  C   UNL     1      34.155 -19.476 -20.346  0.00  0.00    +0.002 C 
ATOM     21  C   UNL     1      35.410 -18.616 -20.232  0.00  0.00    +0.000 C 
ENDBRANCH   5  16
BRANCH   7  24
ATOM     22  O   UNL     1      31.356 -24.249 -15.862  0.00  0.00    -0.274 OA
ATOM     23  N   UNL     1      31.834 -22.307 -14.669  0.00  0.00    -0.294 N 
ATOM     24  C   UNL     1      32.125 -23.349 -15.532  0.00  0.00    +0.240 C 
ATOM     25  H   UNL     1      32.536 -21.643 -14.481  0.00  0.00    +0.150 HD
BRANCH  23  26
ATOM     26  C   UNL     1      30.547 -22.144 -14.032  0.00  0.00    +0.200 C 
BRANCH  26  28
ATOM     27  O   UNL     1      28.848 -23.835 -14.252  0.00  0.00    -0.248 OA
ATOM     28  C   UNL     1      29.880 -23.457 -13.711  0.00  0.00    +0.334 C 
BRANCH  28  29
ATOM     29  O   UNL     1      30.530 -24.178 -12.768  0.00  0.00    -0.479 OA
ATOM     30  H   UNL     1      31.461 -24.107 -12.682  0.00  0.00    +0.295 HD
ENDBRANCH  28  29
ENDBRANCH  26  28
ENDBRANCH  23  26
ENDBRANCH   7  24
TORSDOF 6
ENDMDL
MODEL 9
REMARK VINA RESULT:      -8.7     10.976     14.652
REMARK  Name = 91617630
REMARK  6 active torsions:
REMARK  status: ('A' for Active; 'I' for Inactive)
REMARK    1  A    between atoms: N_4  and  C_10
REMARK    2  A    between atoms: N_5  and  C_16
REMARK    3  A    between atoms: C_7  and  C_24
REMARK    4  A    between atoms: N_23  and  C_26
REMARK    5  A    between atoms: C_26  and  C_28
REMARK    6  A    between atoms: C_28  and  O_29
REMARK                            x       y       z     vdW  Elec       q    Type
REMARK                         _______ _______ _______ _____ _____    ______ ____
ROOT
ATOM      1  O   UNL     1      34.404 -12.555 -23.881  0.00  0.00    -0.252 OA
ATOM      2  O   UNL     1      32.287 -12.617 -19.745  0.00  0.00    -0.273 OA
ATOM      3  O   UNL     1      32.586  -8.676 -22.074  0.00  0.00    -0.273 OA
ATOM      4  N   UNL     1      33.271 -12.660 -21.857  0.00  0.00    -0.215 N 
ATOM      5  N   UNL     1      33.435 -10.608 -23.063  0.00  0.00    -0.215 N 
ATOM      6  C   UNL     1      33.737 -11.987 -23.009  0.00  0.00    +0.319 C 
ATOM      7  C   UNL     1      31.849 -10.782 -21.214  0.00  0.00    +0.229 C 
ATOM      8  C   UNL     1      32.494 -12.093 -20.840  0.00  0.00    +0.250 C 
ATOM      9  C   UNL     1      32.664  -9.904 -22.132  0.00  0.00    +0.250 C 
ENDROOT
BRANCH   4  10
ATOM     10  C   UNL     1      33.718 -14.021 -21.681  0.00  0.00    +0.084 C 
ATOM     11  C   UNL     1      34.652 -14.126 -20.473  0.00  0.00    +0.020 C 
ATOM     12  C   UNL     1      34.392 -14.538 -22.953  0.00  0.00    +0.020 C 
ATOM     13  C   UNL     1      34.922 -15.959 -22.771  0.00  0.00    +0.002 C 
ATOM     14  C   UNL     1      35.184 -15.547 -20.294  0.00  0.00    +0.002 C 
ATOM     15  C   UNL     1      35.852 -16.062 -21.566  0.00  0.00    +0.000 C 
ENDBRANCH   4  10
BRANCH   5  16
ATOM     16  C   UNL     1      34.053  -9.858 -24.131  0.00  0.00    +0.084 C 
ATOM     17  C   UNL     1      35.256  -9.065 -23.610  0.00  0.00    +0.020 C 
ATOM     18  C   UNL     1      34.454 -10.788 -25.277  0.00  0.00    +0.020 C 
ATOM     19  C   UNL     1      35.159 -10.029 -26.398  0.00  0.00    +0.002 C 
ATOM     20  C   UNL     1      35.958  -8.308 -24.734  0.00  0.00    +0.002 C 
ATOM     21  C   UNL     1      36.354  -9.237 -25.877  0.00  0.00    +0.000 C 
ENDBRANCH   5  16
BRANCH   7  24
ATOM     22  O   UNL     1      30.316 -10.322 -19.440  0.00  0.00    -0.274 OA
ATOM     23  N   UNL     1      32.226  -9.008 -19.647  0.00  0.00    -0.294 N 
ATOM     24  C   UNL     1      31.368 -10.034 -20.004  0.00  0.00    +0.240 C 
ATOM     25  H   UNL     1      33.044  -8.874 -20.179  0.00  0.00    +0.150 HD
BRANCH  23  26
ATOM     26  C   UNL     1      31.980  -8.123 -18.531  0.00  0.00    +0.200 C 
BRANCH  26  28
ATOM     27  O   UNL     1      32.480  -5.828 -18.008  0.00  0.00    -0.248 OA
ATOM     28  C   UNL     1      32.247  -6.677 -18.859  0.00  0.00    +0.334 C 
BRANCH  28  29
ATOM     29  O   UNL     1      32.205  -6.405 -20.185  0.00  0.00    -0.479 OA
ATOM     30  H   UNL     1      33.000  -6.254 -20.658  0.00  0.00    +0.295 HD
ENDBRANCH  28  29
ENDBRANCH  26  28
ENDBRANCH  23  26
ENDBRANCH   7  24
TORSDOF 6
ENDMDL
