MODEL 1
REMARK VINA RESULT:     -12.3      0.000      0.000
REMARK  Name = 447371
REMARK  8 active torsions:
REMARK  status: ('A' for Active; 'I' for Inactive)
REMARK    1  A    between atoms: N_3  and  C_14
REMARK    2  A    between atoms: N_4  and  C_18
REMARK    3  A    between atoms: C_11  and  C_26
REMARK    4  A    between atoms: C_14  and  C_15
REMARK    5  A    between atoms: C_15  and  C_16
REMARK    6  A    between atoms: C_18  and  C_20
REMARK    7  A    between atoms: C_26  and  C_27
REMARK    8  A    between atoms: C_32  and  N_34
REMARK                            x       y       z     vdW  Elec       q    Type
REMARK                         _______ _______ _______ _____ _____    ______ ____
ROOT
ATOM      1  O   UNL     1      32.982 -11.830 -22.453  0.00  0.00    -0.246 OA
ATOM      2  O   UNL     1      34.493 -14.867 -25.700  0.00  0.00    -0.265 OA
ATOM      3  N   UNL     1      34.053 -13.766 -21.735  0.00  0.00    -0.269 N 
ATOM      4  N   UNL     1      33.725 -13.328 -24.093  0.00  0.00    -0.243 N 
ATOM      5  N   UNL     1      35.463 -16.505 -23.402  0.00  0.00    -0.313 N 
ATOM      6  N   UNL     1      35.214 -15.888 -21.275  0.00  0.00    -0.304 N 
ATOM      7  C   UNL     1      34.675 -14.949 -22.113  0.00  0.00    +0.132 A 
ATOM      8  C   UNL     1      34.815 -15.303 -23.427  0.00  0.00    +0.133 A 
ATOM      9  C   UNL     1      33.545 -12.896 -22.730  0.00  0.00    +0.335 A 
ATOM     10  C   UNL     1      34.352 -14.525 -24.530  0.00  0.00    +0.280 A 
ATOM     11  C   UNL     1      35.682 -16.815 -22.085  0.00  0.00    +0.149 C 
ATOM     12  H   UNL     1      35.724 -17.046 -24.182  0.00  0.00    +0.148 HD
ATOM     13  H   UNL     1      35.245 -15.872 -20.291  0.00  0.00    +0.150 HD
ENDROOT
BRANCH   3  14
ATOM     14  C   UNL     1      33.928 -13.431 -20.321  0.00  0.00    +0.112 C 
BRANCH  14  15
ATOM     15  C   UNL     1      32.474 -13.354 -19.868  0.00  0.00    +0.025 C 
BRANCH  15  16
ATOM     16  C   UNL     1      32.171 -12.075 -19.084  0.00  0.00    +0.002 C 
ATOM     17  C   UNL     1      31.074 -11.262 -19.754  0.00  0.00    +0.000 C 
ENDBRANCH  15  16
ENDBRANCH  14  15
ENDBRANCH   3  14
BRANCH   4  18
ATOM     18  C   UNL     1      33.209 -12.443 -25.134  0.00  0.00    +0.143 C 
BRANCH  18  20
ATOM     19  F   UNL     1      34.678 -12.302 -27.545  0.00  0.00    -0.204 F 
ATOM     20  C   UNL     1      34.163 -11.325 -25.443  0.00  0.00    +0.028 C 
ATOM     21  C   UNL     1      34.852 -11.319 -26.650  0.00  0.00    +0.138 C 
ATOM     22  C   UNL     1      34.347 -10.306 -24.516  0.00  0.00    -0.000 C 
ATOM     23  C   UNL     1      35.738 -10.279 -26.934  0.00  0.00    +0.029 C 
ATOM     24  C   UNL     1      35.232  -9.266 -24.800  0.00  0.00    -0.000 C 
ATOM     25  C   UNL     1      35.928  -9.252 -26.009  0.00  0.00    +0.002 C 
ENDBRANCH  18  20
ENDBRANCH   4  18
BRANCH  11  26
ATOM     26  C   UNL     1      36.370 -18.060 -21.695  0.00  0.00    +0.067 C 
BRANCH  26  27
ATOM     27  C   UNL     1      35.556 -18.954 -20.769  0.00  0.00    -0.019 C 
ATOM     28  C   UNL     1      36.218 -19.716 -19.828  0.00  0.00    -0.003 C 
ATOM     29  C   UNL     1      34.183 -18.974 -20.899  0.00  0.00    -0.003 C 
ATOM     30  C   UNL     1      35.472 -20.534 -18.980  0.00  0.00    +0.014 C 
ATOM     31  C   UNL     1      33.438 -19.792 -20.051  0.00  0.00    +0.014 C 
ATOM     32  C   UNL     1      34.083 -20.573 -19.091  0.00  0.00    +0.050 C 
BRANCH  32  34
ATOM     33  O   UNL     1      34.944 -22.275 -16.760  0.00  0.00    -0.275 OA
ATOM     34  N   UNL     1      33.337 -21.392 -18.242  0.00  0.00    -0.284 N 
ATOM     35  C   UNL     1      33.792 -22.167 -17.168  0.00  0.00    +0.227 C 
ATOM     36  C   UNL     1      32.664 -22.913 -16.500  0.00  0.00    +0.095 C 
ATOM     37  H   UNL     1      32.370 -21.429 -18.421  0.00  0.00    +0.155 HD
ENDBRANCH  32  34
ENDBRANCH  26  27
ENDBRANCH  11  26
TORSDOF 8
ENDMDL
MODEL 2
REMARK VINA RESULT:     -11.8      3.523      9.814
REMARK  Name = 447371
REMARK  8 active torsions:
REMARK  status: ('A' for Active; 'I' for Inactive)
REMARK    1  A    between atoms: N_3  and  C_14
REMARK    2  A    between atoms: N_4  and  C_18
REMARK    3  A    between atoms: C_11  and  C_26
REMARK    4  A    between atoms: C_14  and  C_15
REMARK    5  A    between atoms: C_15  and  C_16
REMARK    6  A    between atoms: C_18  and  C_20
REMARK    7  A    between atoms: C_26  and  C_27
REMARK    8  A    between atoms: C_32  and  N_34
REMARK                            x       y       z     vdW  Elec       q    Type
REMARK                         _______ _______ _______ _____ _____    ______ ____
ROOT
ATOM      1  O   UNL     1      35.207 -15.707 -24.222  0.00  0.00    -0.246 OA
ATOM      2  O   UNL     1      35.340 -15.475 -19.535  0.00  0.00    -0.265 OA
ATOM      3  N   UNL     1      33.848 -14.146 -23.160  0.00  0.00    -0.269 N 
ATOM      4  N   UNL     1      35.292 -15.613 -21.884  0.00  0.00    -0.243 N 
ATOM      5  N   UNL     1      33.314 -13.299 -19.803  0.00  0.00    -0.313 N 
ATOM      6  N   UNL     1      32.528 -12.602 -21.769  0.00  0.00    -0.304 N 
ATOM      7  C   UNL     1      33.441 -13.607 -21.946  0.00  0.00    +0.132 A 
ATOM      8  C   UNL     1      33.940 -14.054 -20.753  0.00  0.00    +0.133 A 
ATOM      9  C   UNL     1      34.806 -15.189 -23.173  0.00  0.00    +0.335 A 
ATOM     10  C   UNL     1      34.907 -15.094 -20.619  0.00  0.00    +0.280 A 
ATOM     11  C   UNL     1      32.475 -12.439 -20.463  0.00  0.00    +0.149 C 
ATOM     12  H   UNL     1      33.443 -13.360 -18.828  0.00  0.00    +0.148 HD
ATOM     13  H   UNL     1      32.027 -12.112 -22.460  0.00  0.00    +0.150 HD
ENDROOT
BRANCH   3  14
ATOM     14  C   UNL     1      33.287 -13.637 -24.405  0.00  0.00    +0.112 C 
BRANCH  14  15
ATOM     15  C   UNL     1      34.202 -12.622 -25.083  0.00  0.00    +0.025 C 
BRANCH  15  16
ATOM     16  C   UNL     1      33.716 -11.182 -24.903  0.00  0.00    +0.002 C 
ATOM     17  C   UNL     1      34.488 -10.470 -23.803  0.00  0.00    +0.000 C 
ENDBRANCH  15  16
ENDBRANCH  14  15
ENDBRANCH   3  14
BRANCH   4  18
ATOM     18  C   UNL     1      36.282 -16.685 -21.877  0.00  0.00    +0.143 C 
BRANCH  18  20
ATOM     19  F   UNL     1      37.972 -18.338 -20.327  0.00  0.00    -0.204 F 
ATOM     20  C   UNL     1      35.787 -17.901 -21.147  0.00  0.00    +0.028 C 
ATOM     21  C   UNL     1      36.675 -18.668 -20.402  0.00  0.00    +0.138 C 
ATOM     22  C   UNL     1      34.443 -18.247 -21.225  0.00  0.00    -0.000 C 
ATOM     23  C   UNL     1      36.213 -19.797 -19.725  0.00  0.00    +0.029 C 
ATOM     24  C   UNL     1      33.981 -19.375 -20.548  0.00  0.00    -0.000 C 
ATOM     25  C   UNL     1      34.865 -20.151 -19.798  0.00  0.00    +0.002 C 
ENDBRANCH  18  20
ENDBRANCH   4  18
BRANCH  11  26
ATOM     26  C   UNL     1      31.639 -11.470 -19.729  0.00  0.00    +0.067 C 
BRANCH  26  27
ATOM     27  C   UNL     1      31.891 -10.019 -20.113  0.00  0.00    -0.019 C 
ATOM     28  C   UNL     1      31.703  -9.636 -21.425  0.00  0.00    -0.003 C 
ATOM     29  C   UNL     1      32.300  -9.133 -19.138  0.00  0.00    -0.003 C 
ATOM     30  C   UNL     1      31.933  -8.306 -21.776  0.00  0.00    +0.014 C 
ATOM     31  C   UNL     1      32.531  -7.803 -19.491  0.00  0.00    +0.014 C 
ATOM     32  C   UNL     1      32.347  -7.390 -20.810  0.00  0.00    +0.050 C 
BRANCH  32  34
ATOM     33  O   UNL     1      30.449  -5.059 -21.002  0.00  0.00    -0.275 OA
ATOM     34  N   UNL     1      32.578  -6.059 -21.163  0.00  0.00    -0.284 N 
ATOM     35  C   UNL     1      31.652  -5.011 -21.237  0.00  0.00    +0.227 C 
ATOM     36  C   UNL     1      32.305  -3.718 -21.658  0.00  0.00    +0.095 C 
ATOM     37  H   UNL     1      33.508  -5.829 -21.387  0.00  0.00    +0.155 HD
ENDBRANCH  32  34
ENDBRANCH  26  27
ENDBRANCH  11  26
TORSDOF 8
ENDMDL
MODEL 3
REMARK VINA RESULT:     -11.5      5.413     12.909
REMARK  Name = 447371
REMARK  8 active torsions:
REMARK  status: ('A' for Active; 'I' for Inactive)
REMARK    1  A    between atoms: N_3  and  C_14
REMARK    2  A    between atoms: N_4  and  C_18
REMARK    3  A    between atoms: C_11  and  C_26
REMARK    4  A    between atoms: C_14  and  C_15
REMARK    5  A    between atoms: C_15  and  C_16
REMARK    6  A    between atoms: C_18  and  C_20
REMARK    7  A    between atoms: C_26  and  C_27
REMARK    8  A    between atoms: C_32  and  N_34
REMARK                            x       y       z     vdW  Elec       q    Type
REMARK                         _______ _______ _______ _____ _____    ______ ____
ROOT
ATOM      1  O   UNL     1      34.737 -23.395 -11.498  0.00  0.00    -0.246 OA
ATOM      2  O   UNL     1      37.611 -22.548 -15.113  0.00  0.00    -0.265 OA
ATOM      3  N   UNL     1      33.794 -23.064 -13.599  0.00  0.00    -0.269 N 
ATOM      4  N   UNL     1      36.193 -22.973 -13.284  0.00  0.00    -0.243 N 
ATOM      5  N   UNL     1      35.131 -22.393 -16.767  0.00  0.00    -0.313 N 
ATOM      6  N   UNL     1      33.086 -22.677 -15.925  0.00  0.00    -0.304 N 
ATOM      7  C   UNL     1      34.032 -22.800 -14.942  0.00  0.00    +0.132 A 
ATOM      8  C   UNL     1      35.297 -22.631 -15.432  0.00  0.00    +0.133 A 
ATOM      9  C   UNL     1      34.887 -23.162 -12.703  0.00  0.00    +0.335 A 
ATOM     10  C   UNL     1      36.486 -22.702 -14.647  0.00  0.00    +0.280 A 
ATOM     11  C   UNL     1      33.783 -22.431 -17.015  0.00  0.00    +0.149 C 
ATOM     12  H   UNL     1      35.844 -22.227 -17.425  0.00  0.00    +0.148 HD
ATOM     13  H   UNL     1      32.109 -22.754 -15.836  0.00  0.00    +0.150 HD
ENDROOT
BRANCH   3  14
ATOM     14  C   UNL     1      32.427 -23.237 -13.124  0.00  0.00    +0.112 C 
BRANCH  14  15
ATOM     15  C   UNL     1      31.903 -24.650 -13.359  0.00  0.00    +0.025 C 
BRANCH  15  16
ATOM     16  C   UNL     1      30.573 -24.664 -14.115  0.00  0.00    +0.002 C 
ATOM     17  C   UNL     1      30.007 -23.260 -14.267  0.00  0.00    +0.000 C 
ENDBRANCH  15  16
ENDBRANCH  14  15
ENDBRANCH   3  14
BRANCH   4  18
ATOM     18  C   UNL     1      37.333 -23.072 -12.377  0.00  0.00    +0.143 C 
BRANCH  18  20
ATOM     19  F   UNL     1      36.696 -25.738 -13.070  0.00  0.00    -0.204 F 
ATOM     20  C   UNL     1      38.357 -24.053 -12.869  0.00  0.00    +0.028 C 
ATOM     21  C   UNL     1      37.973 -25.350 -13.193  0.00  0.00    +0.138 C 
ATOM     22  C   UNL     1      39.682 -23.655 -12.995  0.00  0.00    -0.000 C 
ATOM     23  C   UNL     1      38.927 -26.259 -13.648  0.00  0.00    +0.029 C 
ATOM     24  C   UNL     1      40.637 -24.563 -13.451  0.00  0.00    -0.000 C 
ATOM     25  C   UNL     1      40.260 -25.866 -13.778  0.00  0.00    +0.002 C 
ENDBRANCH  18  20
ENDBRANCH   4  18
BRANCH  11  26
ATOM     26  C   UNL     1      33.249 -22.215 -18.373  0.00  0.00    +0.067 C 
BRANCH  26  27
ATOM     27  C   UNL     1      33.825 -20.994 -19.078  0.00  0.00    -0.019 C 
ATOM     28  C   UNL     1      32.959 -20.087 -19.653  0.00  0.00    -0.003 C 
ATOM     29  C   UNL     1      35.194 -20.834 -19.121  0.00  0.00    -0.003 C 
ATOM     30  C   UNL     1      33.487 -18.970 -20.298  0.00  0.00    +0.014 C 
ATOM     31  C   UNL     1      35.722 -19.717 -19.767  0.00  0.00    +0.014 C 
ATOM     32  C   UNL     1      34.868 -18.784 -20.356  0.00  0.00    +0.050 C 
BRANCH  32  34
ATOM     33  O   UNL     1      34.565 -17.845 -23.202  0.00  0.00    -0.275 OA
ATOM     34  N   UNL     1      35.396 -17.666 -21.003  0.00  0.00    -0.284 N 
ATOM     35  C   UNL     1      35.223 -17.276 -22.337  0.00  0.00    +0.227 C 
ATOM     36  C   UNL     1      35.964 -15.999 -22.646  0.00  0.00    +0.095 C 
ATOM     37  H   UNL     1      35.961 -17.078 -20.451  0.00  0.00    +0.155 HD
ENDBRANCH  32  34
ENDBRANCH  26  27
ENDBRANCH  11  26
TORSDOF 8
ENDMDL
MODEL 4
REMARK VINA RESULT:     -11.3      3.571      5.352
REMARK  Name = 447371
REMARK  8 active torsions:
REMARK  status: ('A' for Active; 'I' for Inactive)
REMARK    1  A    between atoms: N_3  and  C_14
REMARK    2  A    between atoms: N_4  and  C_18
REMARK    3  A    between atoms: C_11  and  C_26
REMARK    4  A    between atoms: C_14  and  C_15
REMARK    5  A    between atoms: C_15  and  C_16
REMARK    6  A    between atoms: C_18  and  C_20
REMARK    7  A    between atoms: C_26  and  C_27
REMARK    8  A    between atoms: C_32  and  N_34
REMARK                            x       y       z     vdW  Elec       q    Type
REMARK                         _______ _______ _______ _____ _____    ______ ____
ROOT
ATOM      1  O   UNL     1      32.056  -8.134 -20.672  0.00  0.00    -0.246 OA
ATOM      2  O   UNL     1      35.515  -8.772 -23.783  0.00  0.00    -0.265 OA
ATOM      3  N   UNL     1      32.298 -10.240 -21.630  0.00  0.00    -0.269 N 
ATOM      4  N   UNL     1      33.788  -8.425 -22.221  0.00  0.00    -0.243 N 
ATOM      5  N   UNL     1      34.529 -11.583 -23.973  0.00  0.00    -0.313 N 
ATOM      6  N   UNL     1      32.794 -12.348 -22.801  0.00  0.00    -0.304 N 
ATOM      7  C   UNL     1      33.021 -11.028 -22.517  0.00  0.00    +0.132 A 
ATOM      8  C   UNL     1      34.083 -10.533 -23.223  0.00  0.00    +0.133 A 
ATOM      9  C   UNL     1      32.662  -8.883 -21.447  0.00  0.00    +0.335 A 
ATOM     10  C   UNL     1      34.558  -9.190 -23.137  0.00  0.00    +0.280 A 
ATOM     11  C   UNL     1      33.722 -12.653 -23.684  0.00  0.00    +0.149 C 
ATOM     12  H   UNL     1      35.287 -11.574 -24.602  0.00  0.00    +0.148 HD
ATOM     13  H   UNL     1      32.097 -12.935 -22.429  0.00  0.00    +0.150 HD
ENDROOT
BRANCH   3  14
ATOM     14  C   UNL     1      31.175 -10.813 -20.899  0.00  0.00    +0.112 C 
BRANCH  14  15
ATOM     15  C   UNL     1      31.605 -11.471 -19.593  0.00  0.00    +0.025 C 
BRANCH  15  16
ATOM     16  C   UNL     1      31.142 -10.689 -18.362  0.00  0.00    +0.002 C 
ATOM     17  C   UNL     1      32.224  -9.740 -17.869  0.00  0.00    +0.000 C 
ENDBRANCH  15  16
ENDBRANCH  14  15
ENDBRANCH   3  14
BRANCH   4  18
ATOM     18  C   UNL     1      34.180  -7.030 -22.044  0.00  0.00    +0.143 C 
BRANCH  18  20
ATOM     19  F   UNL     1      32.675  -5.001 -20.776  0.00  0.00    -0.204 F 
ATOM     20  C   UNL     1      33.277  -6.094 -22.796  0.00  0.00    +0.028 C 
ATOM     21  C   UNL     1      32.567  -5.118 -22.107  0.00  0.00    +0.138 C 
ATOM     22  C   UNL     1      33.161  -6.215 -24.175  0.00  0.00    -0.000 C 
ATOM     23  C   UNL     1      31.728  -4.251 -22.808  0.00  0.00    +0.029 C 
ATOM     24  C   UNL     1      32.324  -5.348 -24.877  0.00  0.00    -0.000 C 
ATOM     25  C   UNL     1      31.607  -4.365 -24.193  0.00  0.00    +0.002 C 
ENDBRANCH  18  20
ENDBRANCH   4  18
BRANCH  11  26
ATOM     26  C   UNL     1      33.930 -13.965 -24.326  0.00  0.00    +0.067 C 
BRANCH  26  27
ATOM     27  C   UNL     1      34.543 -15.014 -23.409  0.00  0.00    -0.019 C 
ATOM     28  C   UNL     1      34.826 -14.671 -22.102  0.00  0.00    -0.003 C 
ATOM     29  C   UNL     1      34.798 -16.272 -23.912  0.00  0.00    -0.003 C 
ATOM     30  C   UNL     1      35.387 -15.633 -21.262  0.00  0.00    +0.014 C 
ATOM     31  C   UNL     1      35.359 -17.233 -23.071  0.00  0.00    +0.014 C 
ATOM     32  C   UNL     1      35.654 -16.913 -21.746  0.00  0.00    +0.050 C 
BRANCH  32  34
ATOM     33  O   UNL     1      34.429 -19.348 -20.465  0.00  0.00    -0.275 OA
ATOM     34  N   UNL     1      36.216 -17.875 -20.905  0.00  0.00    -0.284 N 
ATOM     35  C   UNL     1      35.596 -18.993 -20.333  0.00  0.00    +0.227 C 
ATOM     36  C   UNL     1      36.553 -19.788 -19.481  0.00  0.00    +0.095 C 
ATOM     37  H   UNL     1      37.168 -17.751 -20.686  0.00  0.00    +0.155 HD
ENDBRANCH  32  34
ENDBRANCH  26  27
ENDBRANCH  11  26
TORSDOF 8
ENDMDL
MODEL 5
REMARK VINA RESULT:     -11.2      4.747     12.040
REMARK  Name = 447371
REMARK  8 active torsions:
REMARK  status: ('A' for Active; 'I' for Inactive)
REMARK    1  A    between atoms: N_3  and  C_14
REMARK    2  A    between atoms: N_4  and  C_18
REMARK    3  A    between atoms: C_11  and  C_26
REMARK    4  A    between atoms: C_14  and  C_15
REMARK    5  A    between atoms: C_15  and  C_16
REMARK    6  A    between atoms: C_18  and  C_20
REMARK    7  A    between atoms: C_26  and  C_27
REMARK    8  A    between atoms: C_32  and  N_34
REMARK                            x       y       z     vdW  Elec       q    Type
REMARK                         _______ _______ _______ _____ _____    ______ ____
ROOT
ATOM      1  O   UNL     1      34.381 -23.006 -14.296  0.00  0.00    -0.246 OA
ATOM      2  O   UNL     1      38.152 -20.729 -15.921  0.00  0.00    -0.265 OA
ATOM      3  N   UNL     1      34.416 -22.399 -16.541  0.00  0.00    -0.269 N 
ATOM      4  N   UNL     1      36.273 -21.870 -15.080  0.00  0.00    -0.243 N 
ATOM      5  N   UNL     1      36.745 -20.726 -18.553  0.00  0.00    -0.313 N 
ATOM      6  N   UNL     1      34.733 -21.635 -18.860  0.00  0.00    -0.304 N 
ATOM      7  C   UNL     1      35.132 -21.780 -17.558  0.00  0.00    +0.132 A 
ATOM      8  C   UNL     1      36.366 -21.231 -17.342  0.00  0.00    +0.133 A 
ATOM      9  C   UNL     1      34.971 -22.468 -15.240  0.00  0.00    +0.335 A 
ATOM     10  C   UNL     1      37.043 -21.228 -16.086  0.00  0.00    +0.280 A 
ATOM     11  C   UNL     1      35.730 -20.994 -19.434  0.00  0.00    +0.149 C 
ATOM     12  H   UNL     1      37.589 -20.260 -18.755  0.00  0.00    +0.148 HD
ATOM     13  H   UNL     1      33.893 -21.940 -19.272  0.00  0.00    +0.150 HD
ENDROOT
BRANCH   3  14
ATOM     14  C   UNL     1      33.104 -22.970 -16.821  0.00  0.00    +0.112 C 
BRANCH  14  15
ATOM     15  C   UNL     1      31.969 -22.000 -16.511  0.00  0.00    +0.025 C 
BRANCH  15  16
ATOM     16  C   UNL     1      30.856 -22.644 -15.682  0.00  0.00    +0.002 C 
ATOM     17  C   UNL     1      31.000 -22.309 -14.206  0.00  0.00    +0.000 C 
ENDBRANCH  15  16
ENDBRANCH  14  15
ENDBRANCH   3  14
BRANCH   4  18
ATOM     18  C   UNL     1      36.862 -21.932 -13.746  0.00  0.00    +0.143 C 
BRANCH  18  20
ATOM     19  F   UNL     1      36.198 -23.490 -11.482  0.00  0.00    -0.204 F 
ATOM     20  C   UNL     1      37.481 -23.272 -13.468  0.00  0.00    +0.028 C 
ATOM     21  C   UNL     1      37.107 -23.985 -12.335  0.00  0.00    +0.138 C 
ATOM     22  C   UNL     1      38.425 -23.786 -14.349  0.00  0.00    -0.000 C 
ATOM     23  C   UNL     1      37.684 -25.229 -12.079  0.00  0.00    +0.029 C 
ATOM     24  C   UNL     1      39.002 -25.030 -14.095  0.00  0.00    -0.000 C 
ATOM     25  C   UNL     1      38.632 -25.752 -12.959  0.00  0.00    +0.002 C 
ENDBRANCH  18  20
ENDBRANCH   4  18
BRANCH  11  26
ATOM     26  C   UNL     1      35.815 -20.583 -20.849  0.00  0.00    +0.067 C 
BRANCH  26  27
ATOM     27  C   UNL     1      35.615 -19.091 -21.073  0.00  0.00    -0.019 C 
ATOM     28  C   UNL     1      35.243 -18.651 -22.327  0.00  0.00    -0.003 C 
ATOM     29  C   UNL     1      35.812 -18.226 -20.017  0.00  0.00    -0.003 C 
ATOM     30  C   UNL     1      35.059 -17.283 -22.531  0.00  0.00    +0.014 C 
ATOM     31  C   UNL     1      35.629 -16.859 -20.223  0.00  0.00    +0.014 C 
ATOM     32  C   UNL     1      35.252 -16.387 -21.481  0.00  0.00    +0.050 C 
BRANCH  32  34
ATOM     33  O   UNL     1      34.141 -14.897 -23.850  0.00  0.00    -0.275 OA
ATOM     34  N   UNL     1      35.068 -15.019 -21.686  0.00  0.00    -0.284 N 
ATOM     35  C   UNL     1      34.546 -14.377 -22.816  0.00  0.00    +0.227 C 
ATOM     36  C   UNL     1      34.513 -12.879 -22.641  0.00  0.00    +0.095 C 
ATOM     37  H   UNL     1      35.341 -14.433 -20.945  0.00  0.00    +0.155 HD
ENDBRANCH  32  34
ENDBRANCH  26  27
ENDBRANCH  11  26
TORSDOF 8
ENDMDL
MODEL 6
REMARK VINA RESULT:     -10.8      1.990      2.588
REMARK  Name = 447371
REMARK  8 active torsions:
REMARK  status: ('A' for Active; 'I' for Inactive)
REMARK    1  A    between atoms: N_3  and  C_14
REMARK    2  A    between atoms: N_4  and  C_18
REMARK    3  A    between atoms: C_11  and  C_26
REMARK    4  A    between atoms: C_14  and  C_15
REMARK    5  A    between atoms: C_15  and  C_16
REMARK    6  A    between atoms: C_18  and  C_20
REMARK    7  A    between atoms: C_26  and  C_27
REMARK    8  A    between atoms: C_32  and  N_34
REMARK                            x       y       z     vdW  Elec       q    Type
REMARK                         _______ _______ _______ _____ _____    ______ ____
ROOT
ATOM      1  O   UNL     1      33.218 -10.872 -21.932  0.00  0.00    -0.246 OA
ATOM      2  O   UNL     1      33.826 -12.920 -26.113  0.00  0.00    -0.265 OA
ATOM      3  N   UNL     1      33.912 -13.092 -21.979  0.00  0.00    -0.269 N 
ATOM      4  N   UNL     1      33.512 -11.870 -24.031  0.00  0.00    -0.243 N 
ATOM      5  N   UNL     1      34.598 -15.353 -24.565  0.00  0.00    -0.313 N 
ATOM      6  N   UNL     1      34.637 -15.417 -22.338  0.00  0.00    -0.304 N 
ATOM      7  C   UNL     1      34.246 -14.180 -22.775  0.00  0.00    +0.132 A 
ATOM      8  C   UNL     1      34.214 -14.113 -24.141  0.00  0.00    +0.133 A 
ATOM      9  C   UNL     1      33.525 -11.874 -22.589  0.00  0.00    +0.335 A 
ATOM     10  C   UNL     1      33.845 -12.953 -24.886  0.00  0.00    +0.280 A 
ATOM     11  C   UNL     1      34.842 -16.102 -23.444  0.00  0.00    +0.149 C 
ATOM     12  H   UNL     1      34.684 -15.651 -25.500  0.00  0.00    +0.148 HD
ATOM     13  H   UNL     1      34.741 -15.724 -21.408  0.00  0.00    +0.150 HD
ENDROOT
BRANCH   3  14
ATOM     14  C   UNL     1      33.961 -13.213 -20.527  0.00  0.00    +0.112 C 
BRANCH  14  15
ATOM     15  C   UNL     1      32.611 -13.593 -19.928  0.00  0.00    +0.025 C 
BRANCH  15  16
ATOM     16  C   UNL     1      31.646 -12.408 -19.858  0.00  0.00    +0.002 C 
ATOM     17  C   UNL     1      31.995 -11.476 -18.707  0.00  0.00    +0.000 C 
ENDBRANCH  15  16
ENDBRANCH  14  15
ENDBRANCH   3  14
BRANCH   4  18
ATOM     18  C   UNL     1      33.118 -10.623 -24.678  0.00  0.00    +0.143 C 
BRANCH  18  20
ATOM     19  F   UNL     1      32.197  -8.269 -23.413  0.00  0.00    -0.204 F 
ATOM     20  C   UNL     1      34.028  -9.487 -24.308  0.00  0.00    +0.028 C 
ATOM     21  C   UNL     1      33.506  -8.358 -23.686  0.00  0.00    +0.138 C 
ATOM     22  C   UNL     1      35.385  -9.576 -24.592  0.00  0.00    -0.000 C 
ATOM     23  C   UNL     1      34.354  -7.304 -23.344  0.00  0.00    +0.029 C 
ATOM     24  C   UNL     1      36.233  -8.523 -24.249  0.00  0.00    -0.000 C 
ATOM     25  C   UNL     1      35.718  -7.386 -23.625  0.00  0.00    +0.002 C 
ENDBRANCH  18  20
ENDBRANCH   4  18
BRANCH  11  26
ATOM     26  C   UNL     1      35.283 -17.506 -23.542  0.00  0.00    +0.067 C 
BRANCH  26  27
ATOM     27  C   UNL     1      35.677 -18.127 -22.209  0.00  0.00    -0.019 C 
ATOM     28  C   UNL     1      34.751 -18.893 -21.532  0.00  0.00    -0.003 C 
ATOM     29  C   UNL     1      36.947 -17.903 -21.719  0.00  0.00    -0.003 C 
ATOM     30  C   UNL     1      35.113 -19.462 -20.310  0.00  0.00    +0.014 C 
ATOM     31  C   UNL     1      37.308 -18.471 -20.498  0.00  0.00    +0.014 C 
ATOM     32  C   UNL     1      36.390 -19.251 -19.793  0.00  0.00    +0.050 C 
BRANCH  32  34
ATOM     33  O   UNL     1      35.477 -21.800 -18.475  0.00  0.00    -0.275 OA
ATOM     34  N   UNL     1      36.752 -19.819 -18.571  0.00  0.00    -0.284 N 
ATOM     35  C   UNL     1      36.291 -21.014 -18.003  0.00  0.00    +0.227 C 
ATOM     36  C   UNL     1      36.931 -21.277 -16.663  0.00  0.00    +0.095 C 
ATOM     37  H   UNL     1      37.413 -19.317 -18.042  0.00  0.00    +0.155 HD
ENDBRANCH  32  34
ENDBRANCH  26  27
ENDBRANCH  11  26
TORSDOF 8
ENDMDL
MODEL 7
REMARK VINA RESULT:     -10.8      2.084      3.705
REMARK  Name = 447371
REMARK  8 active torsions:
REMARK  status: ('A' for Active; 'I' for Inactive)
REMARK    1  A    between atoms: N_3  and  C_14
REMARK    2  A    between atoms: N_4  and  C_18
REMARK    3  A    between atoms: C_11  and  C_26
REMARK    4  A    between atoms: C_14  and  C_15
REMARK    5  A    between atoms: C_15  and  C_16
REMARK    6  A    between atoms: C_18  and  C_20
REMARK    7  A    between atoms: C_26  and  C_27
REMARK    8  A    between atoms: C_32  and  N_34
REMARK                            x       y       z     vdW  Elec       q    Type
REMARK                         _______ _______ _______ _____ _____    ______ ____
ROOT
ATOM      1  O   UNL     1      32.932 -13.141 -24.634  0.00  0.00    -0.246 OA
ATOM      2  O   UNL     1      34.121 -13.318 -20.095  0.00  0.00    -0.265 OA
ATOM      3  N   UNL     1      34.249 -14.917 -23.911  0.00  0.00    -0.269 N 
ATOM      4  N   UNL     1      33.511 -13.204 -22.366  0.00  0.00    -0.243 N 
ATOM      5  N   UNL     1      35.574 -15.828 -20.799  0.00  0.00    -0.313 N 
ATOM      6  N   UNL     1      35.626 -16.669 -22.863  0.00  0.00    -0.304 N 
ATOM      7  C   UNL     1      34.890 -15.514 -22.832  0.00  0.00    +0.132 A 
ATOM      8  C   UNL     1      34.841 -14.977 -21.575  0.00  0.00    +0.133 A 
ATOM      9  C   UNL     1      33.523 -13.717 -23.713  0.00  0.00    +0.335 A 
ATOM     10  C   UNL     1      34.149 -13.777 -21.233  0.00  0.00    +0.280 A 
ATOM     11  C   UNL     1      36.025 -16.830 -21.618  0.00  0.00    +0.149 C 
ATOM     12  H   UNL     1      35.745 -15.740 -19.833  0.00  0.00    +0.148 HD
ATOM     13  H   UNL     1      35.813 -17.245 -23.638  0.00  0.00    +0.150 HD
ENDROOT
BRANCH   3  14
ATOM     14  C   UNL     1      34.329 -15.528 -25.232  0.00  0.00    +0.112 C 
BRANCH  14  15
ATOM     15  C   UNL     1      33.121 -16.405 -25.542  0.00  0.00    +0.025 C 
BRANCH  15  16
ATOM     16  C   UNL     1      33.312 -17.851 -25.082  0.00  0.00    +0.002 C 
ATOM     17  C   UNL     1      32.166 -18.737 -25.547  0.00  0.00    +0.000 C 
ENDBRANCH  15  16
ENDBRANCH  14  15
ENDBRANCH   3  14
BRANCH   4  18
ATOM     18  C   UNL     1      32.767 -11.970 -22.142  0.00  0.00    +0.143 C 
BRANCH  18  20
ATOM     19  F   UNL     1      32.016  -9.313 -21.533  0.00  0.00    -0.204 F 
ATOM     20  C   UNL     1      33.486 -10.773 -22.694  0.00  0.00    +0.028 C 
ATOM     21  C   UNL     1      33.063  -9.494 -22.351  0.00  0.00    +0.138 C 
ATOM     22  C   UNL     1      34.570 -10.957 -23.544  0.00  0.00    -0.000 C 
ATOM     23  C   UNL     1      33.733  -8.383 -22.867  0.00  0.00    +0.029 C 
ATOM     24  C   UNL     1      35.241  -9.847 -24.058  0.00  0.00    -0.000 C 
ATOM     25  C   UNL     1      34.822  -8.560 -23.720  0.00  0.00    +0.002 C 
ENDBRANCH  18  20
ENDBRANCH   4  18
BRANCH  11  26
ATOM     26  C   UNL     1      36.856 -17.931 -21.095  0.00  0.00    +0.067 C 
BRANCH  26  27
ATOM     27  C   UNL     1      36.078 -18.973 -20.304  0.00  0.00    -0.019 C 
ATOM     28  C   UNL     1      34.701 -18.977 -20.383  0.00  0.00    -0.003 C 
ATOM     29  C   UNL     1      36.774 -19.881 -19.533  0.00  0.00    -0.003 C 
ATOM     30  C   UNL     1      33.988 -19.932 -19.659  0.00  0.00    +0.014 C 
ATOM     31  C   UNL     1      36.061 -20.835 -18.808  0.00  0.00    +0.014 C 
ATOM     32  C   UNL     1      34.667 -20.861 -18.871  0.00  0.00    +0.050 C 
BRANCH  32  34
ATOM     33  O   UNL     1      35.141 -21.978 -16.114  0.00  0.00    -0.275 OA
ATOM     34  N   UNL     1      33.954 -21.816 -18.145  0.00  0.00    -0.284 N 
ATOM     35  C   UNL     1      34.222 -22.303 -16.860  0.00  0.00    +0.227 C 
ATOM     36  C   UNL     1      33.208 -23.334 -16.431  0.00  0.00    +0.095 C 
ATOM     37  H   UNL     1      33.165 -22.196 -18.594  0.00  0.00    +0.155 HD
ENDBRANCH  32  34
ENDBRANCH  26  27
ENDBRANCH  11  26
TORSDOF 8
ENDMDL
MODEL 8
REMARK VINA RESULT:     -10.8      3.918      7.504
REMARK  Name = 447371
REMARK  8 active torsions:
REMARK  status: ('A' for Active; 'I' for Inactive)
REMARK    1  A    between atoms: N_3  and  C_14
REMARK    2  A    between atoms: N_4  and  C_18
REMARK    3  A    between atoms: C_11  and  C_26
REMARK    4  A    between atoms: C_14  and  C_15
REMARK    5  A    between atoms: C_15  and  C_16
REMARK    6  A    between atoms: C_18  and  C_20
REMARK    7  A    between atoms: C_26  and  C_27
REMARK    8  A    between atoms: C_32  and  N_34
REMARK                            x       y       z     vdW  Elec       q    Type
REMARK                         _______ _______ _______ _____ _____    ______ ____
ROOT
ATOM      1  O   UNL     1      37.511 -19.024 -20.410  0.00  0.00    -0.246 OA
ATOM      2  O   UNL     1      32.898 -19.220 -21.264  0.00  0.00    -0.265 OA
ATOM      3  N   UNL     1      36.180 -20.287 -18.980  0.00  0.00    -0.269 N 
ATOM      4  N   UNL     1      35.213 -19.104 -20.858  0.00  0.00    -0.243 N 
ATOM      5  N   UNL     1      32.748 -20.978 -18.857  0.00  0.00    -0.313 N 
ATOM      6  N   UNL     1      34.533 -21.539 -17.645  0.00  0.00    -0.304 N 
ATOM      7  C   UNL     1      34.895 -20.725 -18.685  0.00  0.00    +0.132 A 
ATOM      8  C   UNL     1      33.817 -20.366 -19.446  0.00  0.00    +0.133 A 
ATOM      9  C   UNL     1      36.390 -19.444 -20.098  0.00  0.00    +0.335 A 
ATOM     10  C   UNL     1      33.882 -19.525 -20.597  0.00  0.00    +0.280 A 
ATOM     11  C   UNL     1      33.229 -21.672 -17.777  0.00  0.00    +0.149 C 
ATOM     12  H   UNL     1      31.810 -20.931 -19.152  0.00  0.00    +0.148 HD
ATOM     13  H   UNL     1      35.114 -21.934 -16.956  0.00  0.00    +0.150 HD
ENDROOT
BRANCH   3  14
ATOM     14  C   UNL     1      37.298 -20.698 -18.139  0.00  0.00    +0.112 C 
BRANCH  14  15
ATOM     15  C   UNL     1      36.841 -21.236 -16.787  0.00  0.00    +0.025 C 
BRANCH  15  16
ATOM     16  C   UNL     1      37.977 -21.291 -15.763  0.00  0.00    +0.002 C 
ATOM     17  C   UNL     1      37.964 -22.601 -14.990  0.00  0.00    +0.000 C 
ENDBRANCH  15  16
ENDBRANCH  14  15
ENDBRANCH   3  14
BRANCH   4  18
ATOM     18  C   UNL     1      35.410 -18.237 -22.015  0.00  0.00    +0.143 C 
BRANCH  18  20
ATOM     19  F   UNL     1      35.232 -16.202 -23.970  0.00  0.00    -0.204 F 
ATOM     20  C   UNL     1      35.226 -16.787 -21.669  0.00  0.00    +0.028 C 
ATOM     21  C   UNL     1      35.146 -15.839 -22.682  0.00  0.00    +0.138 C 
ATOM     22  C   UNL     1      35.139 -16.408 -20.334  0.00  0.00    -0.000 C 
ATOM     23  C   UNL     1      34.976 -14.493 -22.356  0.00  0.00    +0.029 C 
ATOM     24  C   UNL     1      34.968 -15.063 -20.008  0.00  0.00    -0.000 C 
ATOM     25  C   UNL     1      34.887 -14.105 -21.019  0.00  0.00    +0.002 C 
ENDBRANCH  18  20
ENDBRANCH   4  18
BRANCH  11  26
ATOM     26  C   UNL     1      32.331 -22.457 -16.910  0.00  0.00    +0.067 C 
BRANCH  26  27
ATOM     27  C   UNL     1      32.938 -22.827 -15.563  0.00  0.00    -0.019 C 
ATOM     28  C   UNL     1      32.252 -22.500 -14.412  0.00  0.00    -0.003 C 
ATOM     29  C   UNL     1      34.154 -23.477 -15.536  0.00  0.00    -0.003 C 
ATOM     30  C   UNL     1      32.808 -22.840 -13.178  0.00  0.00    +0.014 C 
ATOM     31  C   UNL     1      34.710 -23.815 -14.303  0.00  0.00    +0.014 C 
ATOM     32  C   UNL     1      34.037 -23.497 -13.123  0.00  0.00    +0.050 C 
BRANCH  32  34
ATOM     33  O   UNL     1      36.458 -22.405 -11.703  0.00  0.00    -0.275 OA
ATOM     34  N   UNL     1      34.593 -23.836 -11.889  0.00  0.00    -0.284 N 
ATOM     35  C   UNL     1      35.729 -23.293 -11.274  0.00  0.00    +0.227 C 
ATOM     36  C   UNL     1      36.000 -23.936  -9.937  0.00  0.00    +0.095 C 
ATOM     37  H   UNL     1      34.129 -24.545 -11.389  0.00  0.00    +0.155 HD
ENDBRANCH  32  34
ENDBRANCH  26  27
ENDBRANCH  11  26
TORSDOF 8
ENDMDL
MODEL 9
REMARK VINA RESULT:     -10.8      2.286      4.361
REMARK  Name = 447371
REMARK  8 active torsions:
REMARK  status: ('A' for Active; 'I' for Inactive)
REMARK    1  A    between atoms: N_3  and  C_14
REMARK    2  A    between atoms: N_4  and  C_18
REMARK    3  A    between atoms: C_11  and  C_26
REMARK    4  A    between atoms: C_14  and  C_15
REMARK    5  A    between atoms: C_15  and  C_16
REMARK    6  A    between atoms: C_18  and  C_20
REMARK    7  A    between atoms: C_26  and  C_27
REMARK    8  A    between atoms: C_32  and  N_34
REMARK                            x       y       z     vdW  Elec       q    Type
REMARK                         _______ _______ _______ _____ _____    ______ ____
ROOT
ATOM      1  O   UNL     1      33.762 -13.484 -24.741  0.00  0.00    -0.246 OA
ATOM      2  O   UNL     1      35.222 -13.519 -20.278  0.00  0.00    -0.265 OA
ATOM      3  N   UNL     1      34.582 -15.478 -23.868  0.00  0.00    -0.269 N 
ATOM      4  N   UNL     1      34.485 -13.474 -22.513  0.00  0.00    -0.243 N 
ATOM      5  N   UNL     1      35.850 -16.401 -20.736  0.00  0.00    -0.313 N 
ATOM      6  N   UNL     1      35.494 -17.432 -22.680  0.00  0.00    -0.304 N 
ATOM      7  C   UNL     1      35.116 -16.118 -22.757  0.00  0.00    +0.132 A 
ATOM      8  C   UNL     1      35.324 -15.461 -21.575  0.00  0.00    +0.133 A 
ATOM      9  C   UNL     1      34.241 -14.106 -23.785  0.00  0.00    +0.335 A 
ATOM     10  C   UNL     1      35.027 -14.084 -21.351  0.00  0.00    +0.280 A 
ATOM     11  C   UNL     1      35.932 -17.571 -21.446  0.00  0.00    +0.149 C 
ATOM     12  H   UNL     1      36.118 -16.265 -19.798  0.00  0.00    +0.148 HD
ATOM     13  H   UNL     1      35.448 -18.117 -23.386  0.00  0.00    +0.150 HD
ENDROOT
BRANCH   3  14
ATOM     14  C   UNL     1      34.379 -16.221 -25.106  0.00  0.00    +0.112 C 
BRANCH  14  15
ATOM     15  C   UNL     1      33.002 -16.872 -25.175  0.00  0.00    +0.025 C 
BRANCH  15  16
ATOM     16  C   UNL     1      33.066 -18.396 -25.058  0.00  0.00    +0.002 C 
ATOM     17  C   UNL     1      31.928 -19.059 -25.819  0.00  0.00    +0.000 C 
ENDBRANCH  15  16
ENDBRANCH  14  15
ENDBRANCH   3  14
BRANCH   4  18
ATOM     18  C   UNL     1      34.137 -12.060 -22.408  0.00  0.00    +0.143 C 
BRANCH  18  20
ATOM     19  F   UNL     1      32.625  -9.673 -22.349  0.00  0.00    -0.204 F 
ATOM     20  C   UNL     1      33.017 -11.828 -21.435  0.00  0.00    +0.028 C 
ATOM     21  C   UNL     1      32.314 -10.630 -21.463  0.00  0.00    +0.138 C 
ATOM     22  C   UNL     1      32.695 -12.818 -20.514  0.00  0.00    -0.000 C 
ATOM     23  C   UNL     1      31.274 -10.417 -20.558  0.00  0.00    +0.029 C 
ATOM     24  C   UNL     1      31.655 -12.606 -19.609  0.00  0.00    -0.000 C 
ATOM     25  C   UNL     1      30.944 -11.406 -19.631  0.00  0.00    +0.002 C 
ENDBRANCH  18  20
ENDBRANCH   4  18
BRANCH  11  26
ATOM     26  C   UNL     1      36.461 -18.803 -20.832  0.00  0.00    +0.067 C 
BRANCH  26  27
ATOM     27  C   UNL     1      35.433 -19.586 -20.027  0.00  0.00    -0.019 C 
ATOM     28  C   UNL     1      35.874 -20.502 -19.094  0.00  0.00    -0.003 C 
ATOM     29  C   UNL     1      34.092 -19.355 -20.256  0.00  0.00    -0.003 C 
ATOM     30  C   UNL     1      34.930 -21.218 -18.357  0.00  0.00    +0.014 C 
ATOM     31  C   UNL     1      33.150 -20.071 -19.519  0.00  0.00    +0.014 C 
ATOM     32  C   UNL     1      33.569 -21.003 -18.569  0.00  0.00    +0.050 C 
BRANCH  32  34
ATOM     33  O   UNL     1      33.821 -22.421 -15.924  0.00  0.00    -0.275 OA
ATOM     34  N   UNL     1      32.626 -21.720 -17.832  0.00  0.00    -0.284 N 
ATOM     35  C   UNL     1      32.798 -22.365 -16.600  0.00  0.00    +0.227 C 
ATOM     36  C   UNL     1      31.528 -23.030 -16.135  0.00  0.00    +0.095 C 
ATOM     37  H   UNL     1      31.727 -21.780 -18.227  0.00  0.00    +0.155 HD
ENDBRANCH  32  34
ENDBRANCH  26  27
ENDBRANCH  11  26
TORSDOF 8
ENDMDL
