MODEL 1
REMARK VINA RESULT:     -12.2      0.000      0.000
REMARK  Name = 6918314
REMARK  8 active torsions:
REMARK  status: ('A' for Active; 'I' for Inactive)
REMARK    1  A    between atoms: N_1  and  C_22
REMARK    2  A    between atoms: N_2  and  C_9
REMARK    3  A    between atoms: C_16  and  C_19
REMARK    4  A    between atoms: C_22  and  C_23
REMARK    5  A    between atoms: C_23  and  C_24
REMARK    6  A    between atoms: C_24  and  C_25
REMARK    7  A    between atoms: C_25  and  C_27
REMARK    8  A    between atoms: C_33  and  C_37
REMARK                            x       y       z     vdW  Elec       q    Type
REMARK                         _______ _______ _______ _____ _____    ______ ____
ROOT
ATOM      1  N   UNL     1      35.890 -20.462 -19.400  0.00  0.00    +0.389 N 
ATOM      2  N   UNL     1      35.427 -17.990 -20.754  0.00  0.00    -0.312 N 
ATOM      3  C   UNL     1      34.526 -19.942 -19.549  0.00  0.00    -0.055 C 
ATOM      4  C   UNL     1      36.836 -19.350 -19.259  0.00  0.00    -0.055 C 
ATOM      5  C   UNL     1      34.410 -19.048 -20.786  0.00  0.00    +0.068 C 
ATOM      6  C   UNL     1      36.798 -18.436 -20.485  0.00  0.00    +0.068 C 
ATOM      7  H   UNL     1      36.132 -20.996 -20.235  0.00  0.00    -0.080 HD
ENDROOT
BRANCH   2   9
ATOM      8  O   UNL     1      34.546 -13.381 -23.673  0.00  0.00    -0.449 OA
ATOM      9  C   UNL     1      35.208 -16.843 -21.526  0.00  0.00    +0.048 C 
ATOM     10  C   UNL     1      34.965 -15.594 -20.904  0.00  0.00    +0.018 C 
ATOM     11  C   UNL     1      35.223 -16.911 -22.937  0.00  0.00    +0.018 C 
ATOM     12  C   UNL     1      34.746 -14.451 -21.693  0.00  0.00    +0.039 C 
ATOM     13  C   UNL     1      34.776 -14.585 -23.078  0.00  0.00    +0.146 C 
ATOM     14  C   UNL     1      35.010 -15.788 -23.742  0.00  0.00    +0.039 C 
ATOM     15  C   UNL     1      34.482 -13.079 -21.444  0.00  0.00    +0.045 C 
ATOM     16  C   UNL     1      34.369 -12.476 -22.675  0.00  0.00    +0.198 C 
BRANCH  16  19
ATOM     17  O   UNL     1      33.118 -10.455 -22.653  0.00  0.00    -0.267 OA
ATOM     18  N   UNL     1      35.005 -10.487 -23.915  0.00  0.00    -0.323 N 
ATOM     19  C   UNL     1      34.109 -11.125 -23.041  0.00  0.00    +0.277 C 
ATOM     20  H   UNL     1      34.849  -9.553 -24.184  0.00  0.00    +0.145 HD
ATOM     21  H   UNL     1      35.788 -10.975 -24.258  0.00  0.00    +0.145 HD
ENDBRANCH  16  19
ENDBRANCH   2   9
BRANCH   1  22
ATOM     22  C   UNL     1      35.974 -21.357 -18.247  0.00  0.00    -0.077 C 
BRANCH  22  23
ATOM     23  C   UNL     1      37.092 -20.908 -17.307  0.00  0.00    -0.022 C 
BRANCH  23  24
ATOM     24  C   UNL     1      36.786 -21.295 -15.859  0.00  0.00    +0.003 C 
BRANCH  24  25
ATOM     25  C   UNL     1      35.702 -22.374 -15.787  0.00  0.00    +0.028 C 
BRANCH  25  27
ATOM     26  N   UNL     1      35.013 -23.812 -12.502  0.00  0.00    -0.312 N 
ATOM     27  C   UNL     1      35.683 -23.076 -14.462  0.00  0.00    -0.006 C 
ATOM     28  C   UNL     1      36.728 -23.857 -13.928  0.00  0.00    +0.011 C 
ATOM     29  C   UNL     1      34.642 -23.058 -13.582  0.00  0.00    +0.058 C 
ATOM     30  C   UNL     1      36.282 -24.314 -12.686  0.00  0.00    +0.048 C 
ATOM     31  C   UNL     1      38.015 -24.231 -14.366  0.00  0.00    +0.011 C 
ATOM     32  C   UNL     1      37.062 -25.127 -11.856  0.00  0.00    +0.015 C 
ATOM     33  C   UNL     1      38.805 -25.044 -13.546  0.00  0.00    +0.069 C 
ATOM     34  C   UNL     1      38.335 -25.485 -12.311  0.00  0.00    +0.012 C 
ATOM     35  H   UNL     1      34.453 -23.974 -11.708  0.00  0.00    +0.152 HD
BRANCH  33  37
ATOM     36  N   UNL     1      41.173 -25.736 -14.339  0.00  0.00    -0.191 NA
ATOM     37  C   UNL     1      40.113 -25.426 -13.983  0.00  0.00    +0.100 C 
ENDBRANCH  33  37
ENDBRANCH  25  27
ENDBRANCH  24  25
ENDBRANCH  23  24
ENDBRANCH  22  23
ENDBRANCH   1  22
TORSDOF 8
ENDMDL
MODEL 2
REMARK VINA RESULT:     -12.0      4.554     11.964
REMARK  Name = 6918314
REMARK  8 active torsions:
REMARK  status: ('A' for Active; 'I' for Inactive)
REMARK    1  A    between atoms: N_1  and  C_22
REMARK    2  A    between atoms: N_2  and  C_9
REMARK    3  A    between atoms: C_16  and  C_19
REMARK    4  A    between atoms: C_22  and  C_23
REMARK    5  A    between atoms: C_23  and  C_24
REMARK    6  A    between atoms: C_24  and  C_25
REMARK    7  A    between atoms: C_25  and  C_27
REMARK    8  A    between atoms: C_33  and  C_37
REMARK                            x       y       z     vdW  Elec       q    Type
REMARK                         _______ _______ _______ _____ _____    ______ ____
ROOT
ATOM      1  N   UNL     1      34.872 -15.971 -24.319  0.00  0.00    +0.389 N 
ATOM      2  N   UNL     1      34.975 -17.806 -22.134  0.00  0.00    -0.312 N 
ATOM      3  C   UNL     1      34.997 -15.479 -22.943  0.00  0.00    -0.055 C 
ATOM      4  C   UNL     1      34.067 -17.197 -24.341  0.00  0.00    -0.055 C 
ATOM      5  C   UNL     1      35.674 -16.518 -22.047  0.00  0.00    +0.068 C 
ATOM      6  C   UNL     1      34.711 -18.294 -23.491  0.00  0.00    +0.068 C 
ATOM      7  H   UNL     1      35.803 -16.183 -24.679  0.00  0.00    -0.080 HD
ENDROOT
BRANCH   2   9
ATOM      8  O   UNL     1      35.509 -21.434 -17.999  0.00  0.00    -0.449 OA
ATOM      9  C   UNL     1      35.149 -18.721 -21.088  0.00  0.00    +0.048 C 
ATOM     10  C   UNL     1      34.029 -19.341 -20.483  0.00  0.00    +0.018 C 
ATOM     11  C   UNL     1      36.443 -19.039 -20.618  0.00  0.00    +0.018 C 
ATOM     12  C   UNL     1      34.220 -20.258 -19.434  0.00  0.00    +0.039 C 
ATOM     13  C   UNL     1      35.519 -20.529 -19.018  0.00  0.00    +0.146 C 
ATOM     14  C   UNL     1      36.657 -19.948 -19.576  0.00  0.00    +0.039 C 
ATOM     15  C   UNL     1      33.378 -21.051 -18.612  0.00  0.00    +0.045 C 
ATOM     16  C   UNL     1      34.208 -21.744 -17.761  0.00  0.00    +0.198 C 
BRANCH  16  19
ATOM     17  O   UNL     1      34.778 -23.431 -16.187  0.00  0.00    -0.267 OA
ATOM     18  N   UNL     1      32.599 -22.805 -16.285  0.00  0.00    -0.323 N 
ATOM     19  C   UNL     1      33.926 -22.682 -16.728  0.00  0.00    +0.277 C 
ATOM     20  H   UNL     1      32.376 -23.446 -15.571  0.00  0.00    +0.145 HD
ATOM     21  H   UNL     1      31.892 -22.252 -16.687  0.00  0.00    +0.145 HD
ENDBRANCH  16  19
ENDBRANCH   2   9
BRANCH   1  22
ATOM     22  C   UNL     1      34.274 -14.949 -25.178  0.00  0.00    -0.077 C 
BRANCH  22  23
ATOM     23  C   UNL     1      33.646 -13.844 -24.329  0.00  0.00    -0.022 C 
BRANCH  23  24
ATOM     24  C   UNL     1      33.745 -12.487 -25.028  0.00  0.00    +0.003 C 
BRANCH  24  25
ATOM     25  C   UNL     1      34.514 -11.474 -24.174  0.00  0.00    +0.028 C 
BRANCH  25  27
ATOM     26  N   UNL     1      32.414  -8.946 -22.582  0.00  0.00    -0.312 N 
ATOM     27  C   UNL     1      33.604 -10.640 -23.323  0.00  0.00    -0.006 C 
ATOM     28  C   UNL     1      32.980 -11.057 -22.129  0.00  0.00    +0.011 C 
ATOM     29  C   UNL     1      33.250  -9.350 -23.588  0.00  0.00    +0.058 C 
ATOM     30  C   UNL     1      32.231  -9.968 -21.677  0.00  0.00    +0.048 C 
ATOM     31  C   UNL     1      32.967 -12.248 -21.377  0.00  0.00    +0.011 C 
ATOM     32  C   UNL     1      31.468 -10.011 -20.505  0.00  0.00    +0.015 C 
ATOM     33  C   UNL     1      32.209 -12.305 -20.202  0.00  0.00    +0.069 C 
ATOM     34  C   UNL     1      31.471 -11.204 -19.774  0.00  0.00    +0.012 C 
ATOM     35  H   UNL     1      32.003  -8.054 -22.514  0.00  0.00    +0.152 HD
BRANCH  33  37
ATOM     36  N   UNL     1      32.179 -14.489 -18.808  0.00  0.00    -0.191 NA
ATOM     37  C   UNL     1      32.193 -13.511 -19.432  0.00  0.00    +0.100 C 
ENDBRANCH  33  37
ENDBRANCH  25  27
ENDBRANCH  24  25
ENDBRANCH  23  24
ENDBRANCH  22  23
ENDBRANCH   1  22
TORSDOF 8
ENDMDL
MODEL 3
REMARK VINA RESULT:     -11.9      4.629     12.174
REMARK  Name = 6918314
REMARK  8 active torsions:
REMARK  status: ('A' for Active; 'I' for Inactive)
REMARK    1  A    between atoms: N_1  and  C_22
REMARK    2  A    between atoms: N_2  and  C_9
REMARK    3  A    between atoms: C_16  and  C_19
REMARK    4  A    between atoms: C_22  and  C_23
REMARK    5  A    between atoms: C_23  and  C_24
REMARK    6  A    between atoms: C_24  and  C_25
REMARK    7  A    between atoms: C_25  and  C_27
REMARK    8  A    between atoms: C_33  and  C_37
REMARK                            x       y       z     vdW  Elec       q    Type
REMARK                         _______ _______ _______ _____ _____    ______ ____
ROOT
ATOM      1  N   UNL     1      35.283 -16.371 -24.037  0.00  0.00    +0.389 N 
ATOM      2  N   UNL     1      35.210 -18.166 -21.816  0.00  0.00    -0.312 N 
ATOM      3  C   UNL     1      35.446 -15.866 -22.669  0.00  0.00    -0.055 C 
ATOM      4  C   UNL     1      34.370 -17.520 -24.040  0.00  0.00    -0.055 C 
ATOM      5  C   UNL     1      36.021 -16.944 -21.749  0.00  0.00    +0.068 C 
ATOM      6  C   UNL     1      34.909 -18.654 -23.165  0.00  0.00    +0.068 C 
ATOM      7  H   UNL     1      36.193 -16.674 -24.386  0.00  0.00    -0.080 HD
ENDROOT
BRANCH   2   9
ATOM      8  O   UNL     1      35.393 -21.751 -17.614  0.00  0.00    -0.449 OA
ATOM      9  C   UNL     1      35.295 -19.072 -20.752  0.00  0.00    +0.048 C 
ATOM     10  C   UNL     1      34.121 -19.614 -20.175  0.00  0.00    +0.018 C 
ATOM     11  C   UNL     1      36.551 -19.459 -20.235  0.00  0.00    +0.018 C 
ATOM     12  C   UNL     1      34.223 -20.523 -19.107  0.00  0.00    +0.039 C 
ATOM     13  C   UNL     1      35.490 -20.865 -18.645  0.00  0.00    +0.146 C 
ATOM     14  C   UNL     1      36.677 -20.362 -19.175  0.00  0.00    +0.039 C 
ATOM     15  C   UNL     1      33.309 -21.252 -18.301  0.00  0.00    +0.045 C 
ATOM     16  C   UNL     1      34.069 -21.979 -17.414  0.00  0.00    +0.198 C 
BRANCH  16  19
ATOM     17  O   UNL     1      34.497 -23.628 -15.757  0.00  0.00    -0.267 OA
ATOM     18  N   UNL     1      32.341 -22.970 -16.025  0.00  0.00    -0.323 N 
ATOM     19  C   UNL     1      33.698 -22.881 -16.377  0.00  0.00    +0.277 C 
ATOM     20  H   UNL     1      32.058 -23.586 -15.312  0.00  0.00    +0.145 HD
ATOM     21  H   UNL     1      31.674 -22.418 -16.493  0.00  0.00    +0.145 HD
ENDBRANCH  16  19
ENDBRANCH   2   9
BRANCH   1  22
ATOM     22  C   UNL     1      34.784 -15.316 -24.918  0.00  0.00    -0.077 C 
BRANCH  22  23
ATOM     23  C   UNL     1      33.459 -14.768 -24.392  0.00  0.00    -0.022 C 
BRANCH  23  24
ATOM     24  C   UNL     1      33.501 -13.244 -24.266  0.00  0.00    +0.003 C 
BRANCH  24  25
ATOM     25  C   UNL     1      34.323 -12.808 -23.049  0.00  0.00    +0.028 C 
BRANCH  25  27
ATOM     26  N   UNL     1      32.452 -13.149 -19.931  0.00  0.00    -0.312 N 
ATOM     27  C   UNL     1      33.483 -12.673 -21.813  0.00  0.00    -0.006 C 
ATOM     28  C   UNL     1      32.800 -11.510 -21.405  0.00  0.00    +0.011 C 
ATOM     29  C   UNL     1      33.264 -13.665 -20.905  0.00  0.00    +0.058 C 
ATOM     30  C   UNL     1      32.154 -11.833 -20.209  0.00  0.00    +0.048 C 
ATOM     31  C   UNL     1      32.657 -10.206 -21.921  0.00  0.00    +0.011 C 
ATOM     32  C   UNL     1      31.368 -10.916 -19.504  0.00  0.00    +0.015 C 
ATOM     33  C   UNL     1      31.874  -9.278 -21.225  0.00  0.00    +0.069 C 
ATOM     34  C   UNL     1      31.241  -9.629 -20.035  0.00  0.00    +0.012 C 
ATOM     35  H   UNL     1      32.129 -13.645 -19.144  0.00  0.00    +0.152 HD
BRANCH  33  37
ATOM     36  N   UNL     1      31.602  -6.878 -22.164  0.00  0.00    -0.191 NA
ATOM     37  C   UNL     1      31.724  -7.953 -21.744  0.00  0.00    +0.100 C 
ENDBRANCH  33  37
ENDBRANCH  25  27
ENDBRANCH  24  25
ENDBRANCH  23  24
ENDBRANCH  22  23
ENDBRANCH   1  22
TORSDOF 8
ENDMDL
MODEL 4
REMARK VINA RESULT:     -11.8      2.484      5.050
REMARK  Name = 6918314
REMARK  8 active torsions:
REMARK  status: ('A' for Active; 'I' for Inactive)
REMARK    1  A    between atoms: N_1  and  C_22
REMARK    2  A    between atoms: N_2  and  C_9
REMARK    3  A    between atoms: C_16  and  C_19
REMARK    4  A    between atoms: C_22  and  C_23
REMARK    5  A    between atoms: C_23  and  C_24
REMARK    6  A    between atoms: C_24  and  C_25
REMARK    7  A    between atoms: C_25  and  C_27
REMARK    8  A    between atoms: C_33  and  C_37
REMARK                            x       y       z     vdW  Elec       q    Type
REMARK                         _______ _______ _______ _____ _____    ______ ____
ROOT
ATOM      1  N   UNL     1      35.811 -16.122 -22.030  0.00  0.00    +0.389 N 
ATOM      2  N   UNL     1      34.179 -13.789 -21.817  0.00  0.00    -0.312 N 
ATOM      3  C   UNL     1      34.957 -15.710 -23.149  0.00  0.00    -0.055 C 
ATOM      4  C   UNL     1      35.167 -15.780 -20.757  0.00  0.00    -0.055 C 
ATOM      5  C   UNL     1      34.707 -14.201 -23.123  0.00  0.00    +0.068 C 
ATOM      6  C   UNL     1      34.922 -14.274 -20.650  0.00  0.00    +0.068 C 
ATOM      7  H   UNL     1      36.700 -15.624 -22.092  0.00  0.00    -0.080 HD
ENDROOT
BRANCH   2   9
ATOM      8  O   UNL     1      31.506  -8.954 -21.640  0.00  0.00    -0.449 OA
ATOM      9  C   UNL     1      33.481 -12.577 -21.742  0.00  0.00    +0.048 C 
ATOM     10  C   UNL     1      33.764 -11.528 -22.651  0.00  0.00    +0.018 C 
ATOM     11  C   UNL     1      32.486 -12.379 -20.760  0.00  0.00    +0.018 C 
ATOM     12  C   UNL     1      33.055 -10.317 -22.563  0.00  0.00    +0.039 C 
ATOM     13  C   UNL     1      32.086 -10.186 -21.573  0.00  0.00    +0.146 C 
ATOM     14  C   UNL     1      31.767 -11.184 -20.654  0.00  0.00    +0.039 C 
ATOM     15  C   UNL     1      33.055  -9.085 -23.268  0.00  0.00    +0.045 C 
ATOM     16  C   UNL     1      32.101  -8.295 -22.670  0.00  0.00    +0.198 C 
BRANCH  16  19
ATOM     17  O   UNL     1      31.673  -6.438 -24.089  0.00  0.00    -0.267 OA
ATOM     18  N   UNL     1      31.215  -6.177 -21.882  0.00  0.00    -0.323 N 
ATOM     19  C   UNL     1      31.667  -6.969 -22.950  0.00  0.00    +0.277 C 
ATOM     20  H   UNL     1      30.910  -5.255 -22.047  0.00  0.00    +0.145 HD
ATOM     21  H   UNL     1      31.205  -6.542 -20.968  0.00  0.00    +0.145 HD
ENDBRANCH  16  19
ENDBRANCH   2   9
BRANCH   1  22
ATOM     22  C   UNL     1      36.088 -17.557 -22.096  0.00  0.00    -0.077 C 
BRANCH  22  23
ATOM     23  C   UNL     1      36.176 -18.146 -20.689  0.00  0.00    -0.022 C 
BRANCH  23  24
ATOM     24  C   UNL     1      35.323 -19.410 -20.565  0.00  0.00    +0.003 C 
BRANCH  24  25
ATOM     25  C   UNL     1      35.924 -20.391 -19.554  0.00  0.00    +0.028 C 
BRANCH  25  27
ATOM     26  N   UNL     1      32.946 -21.917 -18.090  0.00  0.00    -0.312 N 
ATOM     27  C   UNL     1      34.873 -21.074 -18.729  0.00  0.00    -0.006 C 
ATOM     28  C   UNL     1      35.062 -21.625 -17.446  0.00  0.00    +0.011 C 
ATOM     29  C   UNL     1      33.578 -21.259 -19.111  0.00  0.00    +0.058 C 
ATOM     30  C   UNL     1      33.829 -22.154 -17.060  0.00  0.00    +0.048 C 
ATOM     31  C   UNL     1      36.154 -21.736 -16.561  0.00  0.00    +0.011 C 
ATOM     32  C   UNL     1      33.631 -22.789 -15.829  0.00  0.00    +0.015 C 
ATOM     33  C   UNL     1      35.971 -22.369 -15.326  0.00  0.00    +0.069 C 
ATOM     34  C   UNL     1      34.728 -22.887 -14.968  0.00  0.00    +0.012 C 
ATOM     35  H   UNL     1      31.998 -22.182 -18.092  0.00  0.00    +0.152 HD
BRANCH  33  37
ATOM     36  N   UNL     1      37.969 -22.576 -13.689  0.00  0.00    -0.191 NA
ATOM     37  C   UNL     1      37.074 -22.483 -14.423  0.00  0.00    +0.100 C 
ENDBRANCH  33  37
ENDBRANCH  25  27
ENDBRANCH  24  25
ENDBRANCH  23  24
ENDBRANCH  22  23
ENDBRANCH   1  22
TORSDOF 8
ENDMDL
MODEL 5
REMARK VINA RESULT:     -11.7      2.557      4.439
REMARK  Name = 6918314
REMARK  8 active torsions:
REMARK  status: ('A' for Active; 'I' for Inactive)
REMARK    1  A    between atoms: N_1  and  C_22
REMARK    2  A    between atoms: N_2  and  C_9
REMARK    3  A    between atoms: C_16  and  C_19
REMARK    4  A    between atoms: C_22  and  C_23
REMARK    5  A    between atoms: C_23  and  C_24
REMARK    6  A    between atoms: C_24  and  C_25
REMARK    7  A    between atoms: C_25  and  C_27
REMARK    8  A    between atoms: C_33  and  C_37
REMARK                            x       y       z     vdW  Elec       q    Type
REMARK                         _______ _______ _______ _____ _____    ______ ____
ROOT
ATOM      1  N   UNL     1      36.117 -20.035 -18.838  0.00  0.00    +0.389 N 
ATOM      2  N   UNL     1      35.420 -18.407 -21.079  0.00  0.00    -0.312 N 
ATOM      3  C   UNL     1      37.145 -19.611 -19.796  0.00  0.00    -0.055 C 
ATOM      4  C   UNL     1      34.840 -20.234 -19.532  0.00  0.00    -0.055 C 
ATOM      5  C   UNL     1      36.754 -18.298 -20.477  0.00  0.00    +0.068 C 
ATOM      6  C   UNL     1      34.371 -18.943 -20.206  0.00  0.00    +0.068 C 
ATOM      7  H   UNL     1      35.999 -19.304 -18.137  0.00  0.00    -0.080 HD
ENDROOT
BRANCH   2   9
ATOM      8  O   UNL     1      34.112 -14.749 -25.010  0.00  0.00    -0.449 OA
ATOM      9  C   UNL     1      35.084 -17.510 -22.100  0.00  0.00    +0.048 C 
ATOM     10  C   UNL     1      35.065 -16.115 -21.853  0.00  0.00    +0.018 C 
ATOM     11  C   UNL     1      34.756 -17.979 -23.392  0.00  0.00    +0.018 C 
ATOM     12  C   UNL     1      34.725 -15.227 -22.889  0.00  0.00    +0.039 C 
ATOM     13  C   UNL     1      34.413 -15.753 -24.138  0.00  0.00    +0.146 C 
ATOM     14  C   UNL     1      34.415 -17.114 -24.437  0.00  0.00    +0.039 C 
ATOM     15  C   UNL     1      34.602 -13.819 -23.021  0.00  0.00    +0.045 C 
ATOM     16  C   UNL     1      34.229 -13.582 -24.323  0.00  0.00    +0.198 C 
BRANCH  16  19
ATOM     17  O   UNL     1      33.876 -11.238 -24.482  0.00  0.00    -0.267 OA
ATOM     18  N   UNL     1      33.756 -12.432 -26.408  0.00  0.00    -0.323 N 
ATOM     19  C   UNL     1      33.962 -12.371 -25.020  0.00  0.00    +0.277 C 
ATOM     20  H   UNL     1      33.570 -11.609 -26.915  0.00  0.00    +0.145 HD
ATOM     21  H   UNL     1      33.798 -13.298 -26.874  0.00  0.00    +0.145 HD
ENDBRANCH  16  19
ENDBRANCH   2   9
BRANCH   1  22
ATOM     22  C   UNL     1      36.527 -21.261 -18.155  0.00  0.00    -0.077 C 
BRANCH  22  23
ATOM     23  C   UNL     1      37.055 -20.939 -16.758  0.00  0.00    -0.022 C 
BRANCH  23  24
ATOM     24  C   UNL     1      36.389 -21.819 -15.698  0.00  0.00    +0.003 C 
BRANCH  24  25
ATOM     25  C   UNL     1      35.010 -22.300 -16.159  0.00  0.00    +0.028 C 
BRANCH  25  27
ATOM     26  N   UNL     1      33.810 -24.196 -13.278  0.00  0.00    -0.312 N 
ATOM     27  C   UNL     1      34.256 -22.999 -15.067  0.00  0.00    -0.006 C 
ATOM     28  C   UNL     1      32.855 -23.010 -14.910  0.00  0.00    +0.011 C 
ATOM     29  C   UNL     1      34.826 -23.725 -14.065  0.00  0.00    +0.058 C 
ATOM     30  C   UNL     1      32.594 -23.774 -13.770  0.00  0.00    +0.048 C 
ATOM     31  C   UNL     1      31.770 -22.452 -15.614  0.00  0.00    +0.011 C 
ATOM     32  C   UNL     1      31.298 -24.009 -13.299  0.00  0.00    +0.015 C 
ATOM     33  C   UNL     1      30.468 -22.678 -15.154  0.00  0.00    +0.069 C 
ATOM     34  C   UNL     1      30.237 -23.445 -14.014  0.00  0.00    +0.012 C 
ATOM     35  H   UNL     1      33.929 -24.754 -12.476  0.00  0.00    +0.152 HD
BRANCH  33  37
ATOM     36  N   UNL     1      28.464 -21.659 -16.443  0.00  0.00    -0.191 NA
ATOM     37  C   UNL     1      29.362 -22.116 -15.865  0.00  0.00    +0.100 C 
ENDBRANCH  33  37
ENDBRANCH  25  27
ENDBRANCH  24  25
ENDBRANCH  23  24
ENDBRANCH  22  23
ENDBRANCH   1  22
TORSDOF 8
ENDMDL
MODEL 6
REMARK VINA RESULT:     -11.6      2.966      6.270
REMARK  Name = 6918314
REMARK  8 active torsions:
REMARK  status: ('A' for Active; 'I' for Inactive)
REMARK    1  A    between atoms: N_1  and  C_22
REMARK    2  A    between atoms: N_2  and  C_9
REMARK    3  A    between atoms: C_16  and  C_19
REMARK    4  A    between atoms: C_22  and  C_23
REMARK    5  A    between atoms: C_23  and  C_24
REMARK    6  A    between atoms: C_24  and  C_25
REMARK    7  A    between atoms: C_25  and  C_27
REMARK    8  A    between atoms: C_33  and  C_37
REMARK                            x       y       z     vdW  Elec       q    Type
REMARK                         _______ _______ _______ _____ _____    ______ ____
ROOT
ATOM      1  N   UNL     1      34.315 -15.528 -23.434  0.00  0.00    +0.389 N 
ATOM      2  N   UNL     1      34.088 -12.682 -23.341  0.00  0.00    -0.312 N 
ATOM      3  C   UNL     1      35.077 -14.754 -22.447  0.00  0.00    -0.055 C 
ATOM      4  C   UNL     1      34.171 -14.754 -24.672  0.00  0.00    -0.055 C 
ATOM      5  C   UNL     1      34.371 -13.438 -22.115  0.00  0.00    +0.068 C 
ATOM      6  C   UNL     1      33.435 -13.437 -24.415  0.00  0.00    +0.068 C 
ATOM      7  H   UNL     1      33.387 -15.720 -23.056  0.00  0.00    -0.080 HD
ENDROOT
BRANCH   2   9
ATOM      8  O   UNL     1      33.137  -7.268 -22.777  0.00  0.00    -0.449 OA
ATOM      9  C   UNL     1      33.870 -11.304 -23.228  0.00  0.00    +0.048 C 
ATOM     10  C   UNL     1      33.025 -10.790 -22.214  0.00  0.00    +0.018 C 
ATOM     11  C   UNL     1      34.487 -10.402 -24.124  0.00  0.00    +0.018 C 
ATOM     12  C   UNL     1      32.816  -9.404 -22.114  0.00  0.00    +0.039 C 
ATOM     13  C   UNL     1      33.454  -8.569 -23.026  0.00  0.00    +0.146 C 
ATOM     14  C   UNL     1      34.295  -9.019 -24.043  0.00  0.00    +0.039 C 
ATOM     15  C   UNL     1      32.069  -8.547 -21.264  0.00  0.00    +0.045 C 
ATOM     16  C   UNL     1      32.298  -7.265 -21.708  0.00  0.00    +0.198 C 
BRANCH  16  19
ATOM     17  O   UNL     1      31.883  -5.610 -20.053  0.00  0.00    -0.267 OA
ATOM     18  N   UNL     1      31.197  -5.150 -22.167  0.00  0.00    -0.323 N 
ATOM     19  C   UNL     1      31.815  -6.009 -21.244  0.00  0.00    +0.277 C 
ATOM     20  H   UNL     1      30.854  -4.276 -21.873  0.00  0.00    +0.145 HD
ATOM     21  H   UNL     1      31.105  -5.424 -23.108  0.00  0.00    +0.145 HD
ENDBRANCH  16  19
ENDBRANCH   2   9
BRANCH   1  22
ATOM     22  C   UNL     1      34.972 -16.807 -23.702  0.00  0.00    -0.077 C 
BRANCH  22  23
ATOM     23  C   UNL     1      35.716 -17.292 -22.459  0.00  0.00    -0.022 C 
BRANCH  23  24
ATOM     24  C   UNL     1      35.207 -18.663 -22.009  0.00  0.00    +0.003 C 
BRANCH  24  25
ATOM     25  C   UNL     1      35.684 -18.999 -20.594  0.00  0.00    +0.028 C 
BRANCH  25  27
ATOM     26  N   UNL     1      32.853 -20.893 -19.279  0.00  0.00    -0.312 N 
ATOM     27  C   UNL     1      34.709 -19.865 -19.854  0.00  0.00    -0.006 C 
ATOM     28  C   UNL     1      34.993 -20.630 -18.704  0.00  0.00    +0.011 C 
ATOM     29  C   UNL     1      33.400 -20.035 -20.194  0.00  0.00    +0.058 C 
ATOM     30  C   UNL     1      33.803 -21.274 -18.357  0.00  0.00    +0.048 C 
ATOM     31  C   UNL     1      36.138 -20.851 -17.914  0.00  0.00    +0.011 C 
ATOM     32  C   UNL     1      33.701 -22.128 -17.254  0.00  0.00    +0.015 C 
ATOM     33  C   UNL     1      36.051 -21.703 -16.807  0.00  0.00    +0.069 C 
ATOM     34  C   UNL     1      34.850 -22.332 -16.484  0.00  0.00    +0.012 C 
ATOM     35  H   UNL     1      31.916 -21.195 -19.278  0.00  0.00    +0.152 HD
BRANCH  33  37
ATOM     36  N   UNL     1      38.149 -22.114 -15.344  0.00  0.00    -0.191 NA
ATOM     37  C   UNL     1      37.209 -21.930 -16.000  0.00  0.00    +0.100 C 
ENDBRANCH  33  37
ENDBRANCH  25  27
ENDBRANCH  24  25
ENDBRANCH  23  24
ENDBRANCH  22  23
ENDBRANCH   1  22
TORSDOF 8
ENDMDL
MODEL 7
REMARK VINA RESULT:     -11.4      4.524     13.416
REMARK  Name = 6918314
REMARK  8 active torsions:
REMARK  status: ('A' for Active; 'I' for Inactive)
REMARK    1  A    between atoms: N_1  and  C_22
REMARK    2  A    between atoms: N_2  and  C_9
REMARK    3  A    between atoms: C_16  and  C_19
REMARK    4  A    between atoms: C_22  and  C_23
REMARK    5  A    between atoms: C_23  and  C_24
REMARK    6  A    between atoms: C_24  and  C_25
REMARK    7  A    between atoms: C_25  and  C_27
REMARK    8  A    between atoms: C_33  and  C_37
REMARK                            x       y       z     vdW  Elec       q    Type
REMARK                         _______ _______ _______ _____ _____    ______ ____
ROOT
ATOM      1  N   UNL     1      34.542 -16.010 -23.756  0.00  0.00    +0.389 N 
ATOM      2  N   UNL     1      35.097 -17.956 -21.741  0.00  0.00    -0.312 N 
ATOM      3  C   UNL     1      34.628 -17.433 -24.103  0.00  0.00    -0.055 C 
ATOM      4  C   UNL     1      35.473 -15.704 -22.665  0.00  0.00    -0.055 C 
ATOM      5  C   UNL     1      34.274 -18.314 -22.903  0.00  0.00    +0.068 C 
ATOM      6  C   UNL     1      35.149 -16.527 -21.416  0.00  0.00    +0.068 C 
ATOM      7  H   UNL     1      33.592 -15.804 -23.445  0.00  0.00    -0.080 HD
ENDROOT
BRANCH   2   9
ATOM      8  O   UNL     1      35.533 -21.714 -17.712  0.00  0.00    -0.449 OA
ATOM      9  C   UNL     1      35.246 -18.905 -20.722  0.00  0.00    +0.048 C 
ATOM     10  C   UNL     1      34.108 -19.489 -20.112  0.00  0.00    +0.018 C 
ATOM     11  C   UNL     1      36.531 -19.297 -20.286  0.00  0.00    +0.018 C 
ATOM     12  C   UNL     1      34.275 -20.441 -19.090  0.00  0.00    +0.039 C 
ATOM     13  C   UNL     1      35.567 -20.784 -18.707  0.00  0.00    +0.146 C 
ATOM     14  C   UNL     1      36.721 -20.242 -19.272  0.00  0.00    +0.039 C 
ATOM     15  C   UNL     1      33.411 -21.216 -18.273  0.00  0.00    +0.045 C 
ATOM     16  C   UNL     1      34.223 -21.969 -17.457  0.00  0.00    +0.198 C 
BRANCH  16  19
ATOM     17  O   UNL     1      34.756 -23.668 -15.883  0.00  0.00    -0.267 OA
ATOM     18  N   UNL     1      32.576 -23.058 -16.044  0.00  0.00    -0.323 N 
ATOM     19  C   UNL     1      33.915 -22.920 -16.443  0.00  0.00    +0.277 C 
ATOM     20  H   UNL     1      32.335 -23.708 -15.344  0.00  0.00    +0.145 HD
ATOM     21  H   UNL     1      31.878 -22.505 -16.463  0.00  0.00    +0.145 HD
ENDBRANCH  16  19
ENDBRANCH   2   9
BRANCH   1  22
ATOM     22  C   UNL     1      34.829 -15.179 -24.925  0.00  0.00    -0.077 C 
BRANCH  22  23
ATOM     23  C   UNL     1      33.663 -14.231 -25.201  0.00  0.00    -0.022 C 
BRANCH  23  24
ATOM     24  C   UNL     1      33.950 -12.829 -24.659  0.00  0.00    +0.003 C 
BRANCH  24  25
ATOM     25  C   UNL     1      33.716 -11.759 -25.730  0.00  0.00    +0.028 C 
BRANCH  25  27
ATOM     26  N   UNL     1      36.063  -8.961 -25.731  0.00  0.00    -0.312 N 
ATOM     27  C   UNL     1      34.539 -10.528 -25.493  0.00  0.00    -0.006 C 
ATOM     28  C   UNL     1      34.366  -9.611 -24.436  0.00  0.00    +0.011 C 
ATOM     29  C   UNL     1      35.577 -10.119 -26.276  0.00  0.00    +0.058 C 
ATOM     30  C   UNL     1      35.342  -8.627 -24.606  0.00  0.00    +0.048 C 
ATOM     31  C   UNL     1      33.481  -9.507 -23.344  0.00  0.00    +0.011 C 
ATOM     32  C   UNL     1      35.479  -7.541 -23.734  0.00  0.00    +0.015 C 
ATOM     33  C   UNL     1      33.606  -8.426 -22.464  0.00  0.00    +0.069 C 
ATOM     34  C   UNL     1      34.590  -7.458 -22.658  0.00  0.00    +0.012 C 
ATOM     35  H   UNL     1      36.818  -8.442 -26.090  0.00  0.00    +0.152 HD
BRANCH  33  37
ATOM     36  N   UNL     1      31.986  -8.225 -20.452  0.00  0.00    -0.191 NA
ATOM     37  C   UNL     1      32.712  -8.315 -21.353  0.00  0.00    +0.100 C 
ENDBRANCH  33  37
ENDBRANCH  25  27
ENDBRANCH  24  25
ENDBRANCH  23  24
ENDBRANCH  22  23
ENDBRANCH   1  22
TORSDOF 8
ENDMDL
MODEL 8
REMARK VINA RESULT:     -11.3      4.624     12.760
REMARK  Name = 6918314
REMARK  8 active torsions:
REMARK  status: ('A' for Active; 'I' for Inactive)
REMARK    1  A    between atoms: N_1  and  C_22
REMARK    2  A    between atoms: N_2  and  C_9
REMARK    3  A    between atoms: C_16  and  C_19
REMARK    4  A    between atoms: C_22  and  C_23
REMARK    5  A    between atoms: C_23  and  C_24
REMARK    6  A    between atoms: C_24  and  C_25
REMARK    7  A    between atoms: C_25  and  C_27
REMARK    8  A    between atoms: C_33  and  C_37
REMARK                            x       y       z     vdW  Elec       q    Type
REMARK                         _______ _______ _______ _____ _____    ______ ____
ROOT
ATOM      1  N   UNL     1      35.470 -16.388 -23.873  0.00  0.00    +0.389 N 
ATOM      2  N   UNL     1      35.304 -18.223 -21.691  0.00  0.00    -0.312 N 
ATOM      3  C   UNL     1      35.661 -15.921 -22.496  0.00  0.00    -0.055 C 
ATOM      4  C   UNL     1      34.496 -17.485 -23.899  0.00  0.00    -0.055 C 
ATOM      5  C   UNL     1      36.180 -17.048 -21.600  0.00  0.00    +0.068 C 
ATOM      6  C   UNL     1      34.975 -18.665 -23.050  0.00  0.00    +0.068 C 
ATOM      7  H   UNL     1      36.361 -16.731 -24.232  0.00  0.00    -0.080 HD
ENDROOT
BRANCH   2   9
ATOM      8  O   UNL     1      35.303 -21.900 -17.566  0.00  0.00    -0.449 OA
ATOM      9  C   UNL     1      35.342 -19.154 -20.647  0.00  0.00    +0.048 C 
ATOM     10  C   UNL     1      34.142 -19.637 -20.070  0.00  0.00    +0.018 C 
ATOM     11  C   UNL     1      36.577 -19.628 -20.150  0.00  0.00    +0.018 C 
ATOM     12  C   UNL     1      34.198 -20.573 -19.022  0.00  0.00    +0.039 C 
ATOM     13  C   UNL     1      35.445 -21.000 -18.579  0.00  0.00    +0.146 C 
ATOM     14  C   UNL     1      36.657 -20.559 -19.109  0.00  0.00    +0.039 C 
ATOM     15  C   UNL     1      33.248 -21.261 -18.223  0.00  0.00    +0.045 C 
ATOM     16  C   UNL     1      33.968 -22.052 -17.358  0.00  0.00    +0.198 C 
BRANCH  16  19
ATOM     17  O   UNL     1      34.311 -23.749 -15.731  0.00  0.00    -0.267 OA
ATOM     18  N   UNL     1      32.193 -22.975 -15.984  0.00  0.00    -0.323 N 
ATOM     19  C   UNL     1      33.552 -22.951 -16.337  0.00  0.00    +0.277 C 
ATOM     20  H   UNL     1      31.878 -23.588 -15.281  0.00  0.00    +0.145 HD
ATOM     21  H   UNL     1      31.555 -22.380 -16.440  0.00  0.00    +0.145 HD
ENDBRANCH  16  19
ENDBRANCH   2   9
BRANCH   1  22
ATOM     22  C   UNL     1      35.026 -15.289 -24.731  0.00  0.00    -0.077 C 
BRANCH  22  23
ATOM     23  C   UNL     1      33.509 -15.131 -24.649  0.00  0.00    -0.022 C 
BRANCH  23  24
ATOM     24  C   UNL     1      33.122 -13.704 -24.255  0.00  0.00    +0.003 C 
BRANCH  24  25
ATOM     25  C   UNL     1      33.626 -13.357 -22.852  0.00  0.00    +0.028 C 
BRANCH  25  27
ATOM     26  N   UNL     1      32.094 -10.434 -21.288  0.00  0.00    -0.312 N 
ATOM     27  C   UNL     1      33.158 -12.007 -22.396  0.00  0.00    -0.006 C 
ATOM     28  C   UNL     1      33.577 -10.768 -22.921  0.00  0.00    +0.011 C 
ATOM     29  C   UNL     1      32.254 -11.789 -21.399  0.00  0.00    +0.058 C 
ATOM     30  C   UNL     1      32.891  -9.785 -22.205  0.00  0.00    +0.048 C 
ATOM     31  C   UNL     1      34.471 -10.368 -23.935  0.00  0.00    +0.011 C 
ATOM     32  C   UNL     1      33.054  -8.418 -22.453  0.00  0.00    +0.015 C 
ATOM     33  C   UNL     1      34.644  -9.004 -24.194  0.00  0.00    +0.069 C 
ATOM     34  C   UNL     1      33.946  -8.045 -23.463  0.00  0.00    +0.012 C 
ATOM     35  H   UNL     1      31.497  -9.988 -20.645  0.00  0.00    +0.152 HD
BRANCH  33  37
ATOM     36  N   UNL     1      36.282  -8.256 -26.057  0.00  0.00    -0.191 NA
ATOM     37  C   UNL     1      35.549  -8.591 -25.222  0.00  0.00    +0.100 C 
ENDBRANCH  33  37
ENDBRANCH  25  27
ENDBRANCH  24  25
ENDBRANCH  23  24
ENDBRANCH  22  23
ENDBRANCH   1  22
TORSDOF 8
ENDMDL
MODEL 9
REMARK VINA RESULT:     -11.2      3.993     12.259
REMARK  Name = 6918314
REMARK  8 active torsions:
REMARK  status: ('A' for Active; 'I' for Inactive)
REMARK    1  A    between atoms: N_1  and  C_22
REMARK    2  A    between atoms: N_2  and  C_9
REMARK    3  A    between atoms: C_16  and  C_19
REMARK    4  A    between atoms: C_22  and  C_23
REMARK    5  A    between atoms: C_23  and  C_24
REMARK    6  A    between atoms: C_24  and  C_25
REMARK    7  A    between atoms: C_25  and  C_27
REMARK    8  A    between atoms: C_33  and  C_37
REMARK                            x       y       z     vdW  Elec       q    Type
REMARK                         _______ _______ _______ _____ _____    ______ ____
ROOT
ATOM      1  N   UNL     1      34.966 -17.199 -22.612  0.00  0.00    +0.389 N 
ATOM      2  N   UNL     1      35.313 -19.085 -20.496  0.00  0.00    -0.312 N 
ATOM      3  C   UNL     1      34.510 -18.585 -22.771  0.00  0.00    -0.055 C 
ATOM      4  C   UNL     1      36.171 -17.163 -21.775  0.00  0.00    -0.055 C 
ATOM      5  C   UNL     1      34.176 -19.212 -21.416  0.00  0.00    +0.068 C 
ATOM      6  C   UNL     1      35.894 -17.743 -20.387  0.00  0.00    +0.068 C 
ATOM      7  H   UNL     1      34.231 -16.660 -22.154  0.00  0.00    -0.080 HD
ENDROOT
BRANCH   2   9
ATOM      8  O   UNL     1      35.713 -22.497 -16.167  0.00  0.00    -0.449 OA
ATOM      9  C   UNL     1      35.378 -19.961 -19.405  0.00  0.00    +0.048 C 
ATOM     10  C   UNL     1      36.560 -20.058 -18.631  0.00  0.00    +0.018 C 
ATOM     11  C   UNL     1      34.268 -20.763 -19.059  0.00  0.00    +0.018 C 
ATOM     12  C   UNL     1      36.610 -20.943 -17.540  0.00  0.00    +0.039 C 
ATOM     13  C   UNL     1      35.482 -21.704 -17.251  0.00  0.00    +0.146 C 
ATOM     14  C   UNL     1      34.294 -21.649 -17.978  0.00  0.00    +0.039 C 
ATOM     15  C   UNL     1      37.578 -21.303 -16.567  0.00  0.00    +0.045 C 
ATOM     16  C   UNL     1      36.986 -22.247 -15.760  0.00  0.00    +0.198 C 
BRANCH  16  19
ATOM     17  O   UNL     1      37.745 -22.442 -13.516  0.00  0.00    -0.267 OA
ATOM     18  N   UNL     1      37.699 -24.340 -14.759  0.00  0.00    -0.323 N 
ATOM     19  C   UNL     1      37.475 -22.960 -14.630  0.00  0.00    +0.277 C 
ATOM     20  H   UNL     1      38.038 -24.858 -13.993  0.00  0.00    +0.145 HD
ATOM     21  H   UNL     1      37.518 -24.790 -15.615  0.00  0.00    +0.145 HD
ENDBRANCH  16  19
ENDBRANCH   2   9
BRANCH   1  22
ATOM     22  C   UNL     1      35.230 -16.593 -23.917  0.00  0.00    -0.077 C 
BRANCH  22  23
ATOM     23  C   UNL     1      34.405 -15.318 -24.086  0.00  0.00    -0.022 C 
BRANCH  23  24
ATOM     24  C   UNL     1      34.817 -14.254 -23.067  0.00  0.00    +0.003 C 
BRANCH  24  25
ATOM     25  C   UNL     1      33.824 -13.088 -23.045  0.00  0.00    +0.028 C 
BRANCH  25  27
ATOM     26  N   UNL     1      32.480 -13.278 -19.655  0.00  0.00    -0.312 N 
ATOM     27  C   UNL     1      33.210 -12.888 -21.691  0.00  0.00    -0.006 C 
ATOM     28  C   UNL     1      32.672 -11.681 -21.201  0.00  0.00    +0.011 C 
ATOM     29  C   UNL     1      33.088 -13.855 -20.738  0.00  0.00    +0.058 C 
ATOM     30  C   UNL     1      32.216 -11.951 -19.909  0.00  0.00    +0.048 C 
ATOM     31  C   UNL     1      32.522 -10.377 -21.714  0.00  0.00    +0.011 C 
ATOM     32  C   UNL     1      31.613 -10.979 -19.103  0.00  0.00    +0.015 C 
ATOM     33  C   UNL     1      31.920  -9.395 -20.919  0.00  0.00    +0.069 C 
ATOM     34  C   UNL     1      31.474  -9.693 -19.633  0.00  0.00    +0.012 C 
ATOM     35  H   UNL     1      32.264 -13.745 -18.815  0.00  0.00    +0.152 HD
BRANCH  33  37
ATOM     36  N   UNL     1      31.635  -6.995 -21.852  0.00  0.00    -0.191 NA
ATOM     37  C   UNL     1      31.763  -8.070 -21.434  0.00  0.00    +0.100 C 
ENDBRANCH  33  37
ENDBRANCH  25  27
ENDBRANCH  24  25
ENDBRANCH  23  24
ENDBRANCH  22  23
ENDBRANCH   1  22
TORSDOF 8
ENDMDL
