MODEL 1
REMARK VINA RESULT:     -11.5      0.000      0.000
REMARK  Name = 11979006
REMARK  7 active torsions:
REMARK  status: ('A' for Active; 'I' for Inactive)
REMARK    1  A    between atoms: C_1  and  N_2
REMARK    2  A    between atoms: C_1  and  C_22
REMARK    3  A    between atoms: C_3  and  N_9
REMARK    4  A    between atoms: C_4  and  O_18
REMARK    5  A    between atoms: C_10  and  C_14
REMARK    6  A    between atoms: N_21  and  C_25
REMARK    7  A    between atoms: C_28  and  N_32
REMARK                            x       y       z     vdW  Elec       q    Type
REMARK                         _______ _______ _______ _____ _____    ______ ____
ROOT
ATOM      1  C   UNL     1      36.210 -19.889 -20.148  0.00  0.00    +0.010 C 
ENDROOT
BRANCH   1   2
ATOM      2  N   UNL     1      35.727 -20.337 -18.850  0.00  0.00    +0.396 N 
ATOM      3  C   UNL     1      36.074 -21.334 -16.793  0.00  0.00    +0.076 C 
ATOM      4  C   UNL     1      34.998 -22.147 -17.517  0.00  0.00    +0.106 C 
ATOM      5  C   UNL     1      36.817 -20.623 -17.916  0.00  0.00    -0.054 C 
ATOM      6  C   UNL     1      34.950 -21.579 -18.937  0.00  0.00    -0.045 C 
ATOM      7  H   UNL     1      35.152 -19.563 -18.520  0.00  0.00    -0.079 HD
BRANCH   3   9
ATOM      8  O   UNL     1      35.539 -22.244 -14.179  0.00  0.00    -0.270 OA
ATOM      9  N   UNL     1      36.942 -22.156 -15.997  0.00  0.00    -0.302 N 
ATOM     10  C   UNL     1      36.605 -22.568 -14.704  0.00  0.00    +0.252 C 
ATOM     11  H   UNL     1      37.806 -22.440 -16.374  0.00  0.00    +0.150 HD
BRANCH  10  14
ATOM     12 CL   UNL     1      40.954 -25.733 -13.673  0.00  0.00    -0.075 Cl
ATOM     13  S   UNL     1      38.909 -23.982 -14.925  0.00  0.00    -0.071 S 
ATOM     14  C   UNL     1      37.583 -23.433 -14.028  0.00  0.00    +0.084 C 
ATOM     15  C   UNL     1      37.554 -23.857 -12.745  0.00  0.00    +0.012 C 
ATOM     16  C   UNL     1      38.681 -24.683 -12.464  0.00  0.00    +0.019 C 
ATOM     17  C   UNL     1      39.499 -24.832 -13.562  0.00  0.00    +0.087 C 
ENDBRANCH  10  14
ENDBRANCH   3   9
BRANCH   4  18
ATOM     18  O   UNL     1      33.751 -21.967 -16.859  0.00  0.00    -0.385 OA
ATOM     19  H   UNL     1      33.040 -22.331 -17.408  0.00  0.00    +0.210 HD
ENDBRANCH   4  18
ENDBRANCH   1   2
BRANCH   1  22
ATOM     20  O   UNL     1      34.200 -19.017 -21.159  0.00  0.00    -0.277 OA
ATOM     21  N   UNL     1      35.906 -17.544 -20.501  0.00  0.00    -0.284 N 
ATOM     22  C   UNL     1      35.303 -18.789 -20.671  0.00  0.00    +0.205 C 
ATOM     23  H   UNL     1      36.798 -17.548 -20.084  0.00  0.00    +0.155 HD
BRANCH  21  25
ATOM     24  F   UNL     1      35.652 -16.789 -23.160  0.00  0.00    -0.203 F 
ATOM     25  C   UNL     1      35.387 -16.276 -20.857  0.00  0.00    +0.078 C 
ATOM     26  C   UNL     1      35.277 -15.937 -22.195  0.00  0.00    +0.155 C 
ATOM     27  C   UNL     1      35.001 -15.401 -19.855  0.00  0.00    +0.018 C 
ATOM     28  C   UNL     1      34.373 -13.793 -21.546  0.00  0.00    +0.061 C 
ATOM     29  C   UNL     1      34.766 -14.687 -22.542  0.00  0.00    +0.046 C 
ATOM     30  C   UNL     1      34.491 -14.150 -20.202  0.00  0.00    +0.017 C 
BRANCH  28  32
ATOM     31  O   UNL     1      32.052 -12.544 -20.353  0.00  0.00    -0.269 OA
ATOM     32  N   UNL     1      33.842 -12.493 -21.907  0.00  0.00    -0.233 N 
ATOM     33  C   UNL     1      32.717 -11.972 -21.217  0.00  0.00    +0.257 C 
ATOM     34  C   UNL     1      34.417 -11.757 -22.946  0.00  0.00    +0.072 C 
ATOM     35  C   UNL     1      32.264 -10.605 -21.620  0.00  0.00    +0.059 C 
ATOM     36  C   UNL     1      33.972 -10.550 -23.309  0.00  0.00    +0.017 C 
ATOM     37  C   UNL     1      32.866  -9.956 -22.619  0.00  0.00    +0.006 C 
ENDBRANCH  28  32
ENDBRANCH  21  25
ENDBRANCH   1  22
TORSDOF 7
ENDMDL
MODEL 2
REMARK VINA RESULT:     -11.2      5.113     11.947
REMARK  Name = 11979006
REMARK  7 active torsions:
REMARK  status: ('A' for Active; 'I' for Inactive)
REMARK    1  A    between atoms: C_1  and  N_2
REMARK    2  A    between atoms: C_1  and  C_22
REMARK    3  A    between atoms: C_3  and  N_9
REMARK    4  A    between atoms: C_4  and  O_18
REMARK    5  A    between atoms: C_10  and  C_14
REMARK    6  A    between atoms: N_21  and  C_25
REMARK    7  A    between atoms: C_28  and  N_32
REMARK                            x       y       z     vdW  Elec       q    Type
REMARK                         _______ _______ _______ _____ _____    ______ ____
ROOT
ATOM      1  C   UNL     1      35.012 -19.774 -20.530  0.00  0.00    +0.010 C 
ENDROOT
BRANCH   1   2
ATOM      2  N   UNL     1      35.397 -18.487 -21.088  0.00  0.00    +0.396 N 
ATOM      3  C   UNL     1      35.170 -16.191 -21.231  0.00  0.00    +0.076 C 
ATOM      4  C   UNL     1      34.909 -16.761 -22.626  0.00  0.00    +0.106 C 
ATOM      5  C   UNL     1      34.898 -17.362 -20.297  0.00  0.00    -0.054 C 
ATOM      6  C   UNL     1      34.868 -18.279 -22.441  0.00  0.00    -0.045 C 
ATOM      7  H   UNL     1      36.417 -18.513 -21.090  0.00  0.00    -0.079 HD
BRANCH   3   9
ATOM      8  O   UNL     1      35.203 -13.732 -22.610  0.00  0.00    -0.270 OA
ATOM      9  N   UNL     1      34.344 -15.052 -20.937  0.00  0.00    -0.302 N 
ATOM     10  C   UNL     1      34.419 -13.864 -21.669  0.00  0.00    +0.252 C 
ATOM     11  H   UNL     1      33.702 -15.111 -20.193  0.00  0.00    +0.150 HD
BRANCH  10  14
ATOM     12 CL   UNL     1      31.464  -9.254 -21.600  0.00  0.00    -0.075 Cl
ATOM     13  S   UNL     1      33.317 -11.468 -22.297  0.00  0.00    -0.071 S 
ATOM     14  C   UNL     1      33.486 -12.801 -21.269  0.00  0.00    +0.084 C 
ATOM     15  C   UNL     1      32.727 -12.753 -20.152  0.00  0.00    +0.012 C 
ATOM     16  C   UNL     1      31.954 -11.556 -20.121  0.00  0.00    +0.019 C 
ATOM     17  C   UNL     1      32.178 -10.768 -21.228  0.00  0.00    +0.087 C 
ENDBRANCH  10  14
ENDBRANCH   3   9
BRANCH   4  18
ATOM     18  O   UNL     1      35.971 -16.386 -23.494  0.00  0.00    -0.385 OA
ATOM     19  H   UNL     1      35.752 -15.548 -23.930  0.00  0.00    +0.210 HD
ENDBRANCH   4  18
ENDBRANCH   1   2
BRANCH   1  22
ATOM     20  O   UNL     1      37.025 -19.620 -19.209  0.00  0.00    -0.277 OA
ATOM     21  N   UNL     1      35.250 -20.970 -18.474  0.00  0.00    -0.284 N 
ATOM     22  C   UNL     1      35.902 -20.095 -19.342  0.00  0.00    +0.205 C 
ATOM     23  H   UNL     1      34.343 -21.248 -18.738  0.00  0.00    +0.155 HD
BRANCH  21  25
ATOM     24  F   UNL     1      33.662 -22.591 -16.874  0.00  0.00    -0.203 F 
ATOM     25  C   UNL     1      35.739 -21.505 -17.258  0.00  0.00    +0.078 C 
ATOM     26  C   UNL     1      34.915 -22.309 -16.489  0.00  0.00    +0.155 C 
ATOM     27  C   UNL     1      37.034 -21.210 -16.865  0.00  0.00    +0.018 C 
ATOM     28  C   UNL     1      36.701 -22.548 -14.879  0.00  0.00    +0.061 C 
ATOM     29  C   UNL     1      35.400 -22.834 -15.291  0.00  0.00    +0.046 C 
ATOM     30  C   UNL     1      37.518 -21.735 -15.666  0.00  0.00    +0.017 C 
BRANCH  28  32
ATOM     31  O   UNL     1      37.845 -25.184 -14.551  0.00  0.00    -0.269 OA
ATOM     32  N   UNL     1      37.204 -23.093 -13.634  0.00  0.00    -0.233 N 
ATOM     33  C   UNL     1      37.780 -24.391 -13.612  0.00  0.00    +0.257 C 
ATOM     34  C   UNL     1      37.106 -22.361 -12.449  0.00  0.00    +0.072 C 
ATOM     35  C   UNL     1      38.317 -24.858 -12.296  0.00  0.00    +0.059 C 
ATOM     36  C   UNL     1      37.565 -22.815 -11.278  0.00  0.00    +0.017 C 
ATOM     37  C   UNL     1      38.195 -24.100 -11.204  0.00  0.00    +0.006 C 
ENDBRANCH  28  32
ENDBRANCH  21  25
ENDBRANCH   1  22
TORSDOF 7
ENDMDL
MODEL 3
REMARK VINA RESULT:     -11.0      6.526     12.779
REMARK  Name = 11979006
REMARK  7 active torsions:
REMARK  status: ('A' for Active; 'I' for Inactive)
REMARK    1  A    between atoms: C_1  and  N_2
REMARK    2  A    between atoms: C_1  and  C_22
REMARK    3  A    between atoms: C_3  and  N_9
REMARK    4  A    between atoms: C_4  and  O_18
REMARK    5  A    between atoms: C_10  and  C_14
REMARK    6  A    between atoms: N_21  and  C_25
REMARK    7  A    between atoms: C_28  and  N_32
REMARK                            x       y       z     vdW  Elec       q    Type
REMARK                         _______ _______ _______ _____ _____    ______ ____
ROOT
ATOM      1  C   UNL     1      33.868 -13.040 -25.191  0.00  0.00    +0.010 C 
ENDROOT
BRANCH   1   2
ATOM      2  N   UNL     1      34.492 -11.782 -24.810  0.00  0.00    +0.396 N 
ATOM      3  C   UNL     1      34.557  -9.860 -23.528  0.00  0.00    +0.076 C 
ATOM      4  C   UNL     1      34.488  -9.426 -24.994  0.00  0.00    +0.106 C 
ATOM      5  C   UNL     1      33.989 -11.272 -23.534  0.00  0.00    -0.054 C 
ATOM      6  C   UNL     1      34.242 -10.713 -25.784  0.00  0.00    -0.045 C 
ATOM      7  H   UNL     1      35.485 -12.006 -24.753  0.00  0.00    -0.079 HD
BRANCH   3   9
ATOM      8  O   UNL     1      35.427  -7.331 -22.635  0.00  0.00    -0.270 OA
ATOM      9  N   UNL     1      33.826  -8.979 -22.659  0.00  0.00    -0.302 N 
ATOM     10  C   UNL     1      34.326  -7.737 -22.260  0.00  0.00    +0.252 C 
ATOM     11  H   UNL     1      32.941  -9.260 -22.333  0.00  0.00    +0.150 HD
BRANCH  10  14
ATOM     12 CL   UNL     1      30.527  -4.207 -20.500  0.00  0.00    -0.075 Cl
ATOM     13  S   UNL     1      32.356  -5.877 -22.137  0.00  0.00    -0.071 S 
ATOM     14  C   UNL     1      33.447  -6.936 -21.395  0.00  0.00    +0.084 C 
ATOM     15  C   UNL     1      33.401  -6.940 -20.044  0.00  0.00    +0.012 C 
ATOM     16  C   UNL     1      32.416  -6.023 -19.573  0.00  0.00    +0.019 C 
ATOM     17  C   UNL     1      31.773  -5.380 -20.607  0.00  0.00    +0.087 C 
ENDBRANCH  10  14
ENDBRANCH   3   9
BRANCH   4  18
ATOM     18  O   UNL     1      35.725  -8.833 -25.367  0.00  0.00    -0.385 OA
ATOM     19  H   UNL     1      36.457  -9.352 -24.999  0.00  0.00    +0.210 HD
ENDBRANCH   4  18
ENDBRANCH   1   2
BRANCH   1  22
ATOM     20  O   UNL     1      32.944 -13.714 -23.066  0.00  0.00    -0.277 OA
ATOM     21  N   UNL     1      34.651 -14.991 -24.052  0.00  0.00    -0.284 N 
ATOM     22  C   UNL     1      33.747 -13.934 -23.969  0.00  0.00    +0.205 C 
ATOM     23  H   UNL     1      35.220 -15.013 -24.856  0.00  0.00    +0.155 HD
BRANCH  21  25
ATOM     24  F   UNL     1      34.247 -17.645 -24.757  0.00  0.00    -0.203 F 
ATOM     25  C   UNL     1      34.848 -16.036 -23.118  0.00  0.00    +0.078 C 
ATOM     26  C   UNL     1      34.636 -17.347 -23.509  0.00  0.00    +0.155 C 
ATOM     27  C   UNL     1      35.250 -15.722 -21.830  0.00  0.00    +0.018 C 
ATOM     28  C   UNL     1      35.234 -18.075 -21.284  0.00  0.00    +0.061 C 
ATOM     29  C   UNL     1      34.831 -18.374 -22.586  0.00  0.00    +0.046 C 
ATOM     30  C   UNL     1      35.444 -16.749 -20.907  0.00  0.00    +0.017 C 
BRANCH  28  32
ATOM     31  O   UNL     1      33.132 -19.622 -20.039  0.00  0.00    -0.269 OA
ATOM     32  N   UNL     1      35.436 -19.144 -20.325  0.00  0.00    -0.233 N 
ATOM     33  C   UNL     1      34.319 -19.856 -19.815  0.00  0.00    +0.257 C 
ATOM     34  C   UNL     1      36.720 -19.464 -19.881  0.00  0.00    +0.072 C 
ATOM     35  C   UNL     1      34.619 -20.972 -18.867  0.00  0.00    +0.059 C 
ATOM     36  C   UNL     1      36.959 -20.447 -19.007  0.00  0.00    +0.017 C 
ATOM     37  C   UNL     1      35.874 -21.228 -18.491  0.00  0.00    +0.006 C 
ENDBRANCH  28  32
ENDBRANCH  21  25
ENDBRANCH   1  22
TORSDOF 7
ENDMDL
MODEL 4
REMARK VINA RESULT:     -10.9      4.841     11.496
REMARK  Name = 11979006
REMARK  7 active torsions:
REMARK  status: ('A' for Active; 'I' for Inactive)
REMARK    1  A    between atoms: C_1  and  N_2
REMARK    2  A    between atoms: C_1  and  C_22
REMARK    3  A    between atoms: C_3  and  N_9
REMARK    4  A    between atoms: C_4  and  O_18
REMARK    5  A    between atoms: C_10  and  C_14
REMARK    6  A    between atoms: N_21  and  C_25
REMARK    7  A    between atoms: C_28  and  N_32
REMARK                            x       y       z     vdW  Elec       q    Type
REMARK                         _______ _______ _______ _____ _____    ______ ____
ROOT
ATOM      1  C   UNL     1      34.518 -17.745 -23.922  0.00  0.00    +0.010 C 
ENDROOT
BRANCH   1   2
ATOM      2  N   UNL     1      34.671 -16.323 -24.191  0.00  0.00    +0.396 N 
ATOM      3  C   UNL     1      34.376 -14.107 -23.603  0.00  0.00    +0.076 C 
ATOM      4  C   UNL     1      33.661 -14.322 -24.939  0.00  0.00    +0.106 C 
ATOM      5  C   UNL     1      34.457 -15.502 -22.999  0.00  0.00    -0.054 C 
ATOM      6  C   UNL     1      33.707 -15.831 -25.183  0.00  0.00    -0.045 C 
ATOM      7  H   UNL     1      35.628 -16.238 -24.531  0.00  0.00    -0.079 HD
BRANCH   3   9
ATOM      8  O   UNL     1      34.280 -11.310 -23.946  0.00  0.00    -0.270 OA
ATOM      9  N   UNL     1      33.684 -13.180 -22.751  0.00  0.00    -0.302 N 
ATOM     10  C   UNL     1      33.683 -11.803 -22.988  0.00  0.00    +0.252 C 
ATOM     11  H   UNL     1      33.193 -13.527 -21.972  0.00  0.00    +0.150 HD
BRANCH  10  14
ATOM     12 CL   UNL     1      30.622 -10.225 -18.730  0.00  0.00    -0.075 Cl
ATOM     13  S   UNL     1      32.218 -11.762 -20.706  0.00  0.00    -0.071 S 
ATOM     14  C   UNL     1      32.903 -10.987 -22.046  0.00  0.00    +0.084 C 
ATOM     15  C   UNL     1      32.657  -9.660 -22.118  0.00  0.00    +0.012 C 
ATOM     16  C   UNL     1      31.860  -9.237 -21.015  0.00  0.00    +0.019 C 
ATOM     17  C   UNL     1      31.551 -10.280 -20.170  0.00  0.00    +0.087 C 
ENDBRANCH  10  14
ENDBRANCH   3   9
BRANCH   4  18
ATOM     18  O   UNL     1      34.357 -13.623 -25.963  0.00  0.00    -0.385 OA
ATOM     19  H   UNL     1      34.856 -14.254 -26.504  0.00  0.00    +0.210 HD
ENDBRANCH   4  18
ENDBRANCH   1   2
BRANCH   1  22
ATOM     20  O   UNL     1      36.264 -17.532 -22.271  0.00  0.00    -0.277 OA
ATOM     21  N   UNL     1      34.546 -19.101 -21.954  0.00  0.00    -0.284 N 
ATOM     22  C   UNL     1      35.233 -18.094 -22.629  0.00  0.00    +0.205 C 
ATOM     23  H   UNL     1      33.728 -19.435 -22.389  0.00  0.00    +0.155 HD
BRANCH  21  25
ATOM     24  F   UNL     1      32.587 -19.987 -20.198  0.00  0.00    -0.203 F 
ATOM     25  C   UNL     1      34.886 -19.701 -20.718  0.00  0.00    +0.078 C 
ATOM     26  C   UNL     1      33.879 -20.130 -19.870  0.00  0.00    +0.155 C 
ATOM     27  C   UNL     1      36.223 -19.846 -20.385  0.00  0.00    +0.018 C 
ATOM     28  C   UNL     1      35.559 -20.874 -18.301  0.00  0.00    +0.061 C 
ATOM     29  C   UNL     1      34.218 -20.721 -18.652  0.00  0.00    +0.046 C 
ATOM     30  C   UNL     1      36.562 -20.436 -19.167  0.00  0.00    +0.017 C 
BRANCH  28  32
ATOM     31  O   UNL     1      33.781 -22.458 -16.660  0.00  0.00    -0.269 OA
ATOM     32  N   UNL     1      35.911 -21.487 -17.035  0.00  0.00    -0.233 N 
ATOM     33  C   UNL     1      34.956 -22.277 -16.342  0.00  0.00    +0.257 C 
ATOM     34  C   UNL     1      37.176 -21.288 -16.479  0.00  0.00    +0.072 C 
ATOM     35  C   UNL     1      35.415 -22.911 -15.068  0.00  0.00    +0.059 C 
ATOM     36  C   UNL     1      37.552 -21.840 -15.321  0.00  0.00    +0.017 C 
ATOM     37  C   UNL     1      36.644 -22.683 -14.600  0.00  0.00    +0.006 C 
ENDBRANCH  28  32
ENDBRANCH  21  25
ENDBRANCH   1  22
TORSDOF 7
ENDMDL
MODEL 5
REMARK VINA RESULT:     -10.7      5.554      7.854
REMARK  Name = 11979006
REMARK  7 active torsions:
REMARK  status: ('A' for Active; 'I' for Inactive)
REMARK    1  A    between atoms: C_1  and  N_2
REMARK    2  A    between atoms: C_1  and  C_22
REMARK    3  A    between atoms: C_3  and  N_9
REMARK    4  A    between atoms: C_4  and  O_18
REMARK    5  A    between atoms: C_10  and  C_14
REMARK    6  A    between atoms: N_21  and  C_25
REMARK    7  A    between atoms: C_28  and  N_32
REMARK                            x       y       z     vdW  Elec       q    Type
REMARK                         _______ _______ _______ _____ _____    ______ ____
ROOT
ATOM      1  C   UNL     1      34.935 -23.660 -15.286  0.00  0.00    +0.010 C 
ENDROOT
BRANCH   1   2
ATOM      2  N   UNL     1      33.684 -23.637 -14.543  0.00  0.00    +0.396 N 
ATOM      3  C   UNL     1      31.409 -23.245 -14.417  0.00  0.00    +0.076 C 
ATOM      4  C   UNL     1      32.084 -22.342 -13.383  0.00  0.00    +0.106 C 
ATOM      5  C   UNL     1      32.514 -23.550 -15.419  0.00  0.00    -0.054 C 
ATOM      6  C   UNL     1      33.585 -22.483 -13.642  0.00  0.00    -0.045 C 
ATOM      7  H   UNL     1      33.690 -24.514 -14.023  0.00  0.00    -0.079 HD
BRANCH   3   9
ATOM      8  O   UNL     1      28.747 -24.162 -14.262  0.00  0.00    -0.270 OA
ATOM      9  N   UNL     1      30.269 -22.622 -15.032  0.00  0.00    -0.302 N 
ATOM     10  C   UNL     1      28.977 -23.139 -14.908  0.00  0.00    +0.252 C 
ATOM     11  H   UNL     1      30.403 -21.803 -15.560  0.00  0.00    +0.150 HD
BRANCH  10  14
ATOM     12 CL   UNL     1      25.703 -20.936 -18.706  0.00  0.00    -0.075 Cl
ATOM     13  S   UNL     1      27.813 -22.440 -17.256  0.00  0.00    -0.071 S 
ATOM     14  C   UNL     1      27.910 -22.371 -15.568  0.00  0.00    +0.084 C 
ATOM     15  C   UNL     1      26.973 -21.596 -14.979  0.00  0.00    +0.012 C 
ATOM     16  C   UNL     1      26.115 -21.015 -15.958  0.00  0.00    +0.019 C 
ATOM     17  C   UNL     1      26.460 -21.392 -17.236  0.00  0.00    +0.087 C 
ENDBRANCH  10  14
ENDBRANCH   3   9
BRANCH   4  18
ATOM     18  O   UNL     1      31.752 -22.794 -12.076  0.00  0.00    -0.385 OA
ATOM     19  H   UNL     1      32.562 -23.041 -11.604  0.00  0.00    +0.210 HD
ENDBRANCH   4  18
ENDBRANCH   1   2
BRANCH   1  22
ATOM     20  O   UNL     1      35.545 -21.327 -15.377  0.00  0.00    -0.277 OA
ATOM     21  N   UNL     1      34.807 -22.415 -17.322  0.00  0.00    -0.284 N 
ATOM     22  C   UNL     1      35.138 -22.320 -15.972  0.00  0.00    +0.205 C 
ATOM     23  H   UNL     1      34.499 -23.297 -17.633  0.00  0.00    +0.155 HD
BRANCH  21  25
ATOM     24  F   UNL     1      37.229 -21.339 -18.149  0.00  0.00    -0.203 F 
ATOM     25  C   UNL     1      34.860 -21.392 -18.299  0.00  0.00    +0.078 C 
ATOM     26  C   UNL     1      36.088 -20.882 -18.684  0.00  0.00    +0.155 C 
ATOM     27  C   UNL     1      33.678 -20.924 -18.849  0.00  0.00    +0.018 C 
ATOM     28  C   UNL     1      34.956 -19.390 -20.211  0.00  0.00    +0.061 C 
ATOM     29  C   UNL     1      36.137 -19.874 -19.647  0.00  0.00    +0.046 C 
ATOM     30  C   UNL     1      33.726 -19.915 -19.812  0.00  0.00    +0.017 C 
BRANCH  28  32
ATOM     31  O   UNL     1      35.644 -16.627 -19.703  0.00  0.00    -0.269 OA
ATOM     32  N   UNL     1      35.007 -18.342 -21.211  0.00  0.00    -0.233 N 
ATOM     33  C   UNL     1      35.399 -17.029 -20.840  0.00  0.00    +0.257 C 
ATOM     34  C   UNL     1      34.651 -18.608 -22.535  0.00  0.00    +0.072 C 
ATOM     35  C   UNL     1      35.471 -16.020 -21.942  0.00  0.00    +0.059 C 
ATOM     36  C   UNL     1      34.692 -17.679 -23.496  0.00  0.00    +0.017 C 
ATOM     37  C   UNL     1      35.122 -16.347 -23.188  0.00  0.00    +0.006 C 
ENDBRANCH  28  32
ENDBRANCH  21  25
ENDBRANCH   1  22
TORSDOF 7
ENDMDL
MODEL 6
REMARK VINA RESULT:     -10.6      4.825     11.948
REMARK  Name = 11979006
REMARK  7 active torsions:
REMARK  status: ('A' for Active; 'I' for Inactive)
REMARK    1  A    between atoms: C_1  and  N_2
REMARK    2  A    between atoms: C_1  and  C_22
REMARK    3  A    between atoms: C_3  and  N_9
REMARK    4  A    between atoms: C_4  and  O_18
REMARK    5  A    between atoms: C_10  and  C_14
REMARK    6  A    between atoms: N_21  and  C_25
REMARK    7  A    between atoms: C_28  and  N_32
REMARK                            x       y       z     vdW  Elec       q    Type
REMARK                         _______ _______ _______ _____ _____    ______ ____
ROOT
ATOM      1  C   UNL     1      34.176 -20.068 -20.140  0.00  0.00    +0.010 C 
ENDROOT
BRANCH   1   2
ATOM      2  N   UNL     1      35.084 -18.990 -20.501  0.00  0.00    +0.396 N 
ATOM      3  C   UNL     1      35.487 -16.789 -21.083  0.00  0.00    +0.076 C 
ATOM      4  C   UNL     1      36.010 -17.664 -22.224  0.00  0.00    +0.106 C 
ATOM      5  C   UNL     1      34.463 -17.670 -20.382  0.00  0.00    -0.054 C 
ATOM      6  C   UNL     1      35.542 -19.083 -21.892  0.00  0.00    -0.045 C 
ATOM      7  H   UNL     1      35.861 -19.092 -19.849  0.00  0.00    -0.079 HD
BRANCH   3   9
ATOM      8  O   UNL     1      35.116 -14.457 -19.542  0.00  0.00    -0.270 OA
ATOM      9  N   UNL     1      34.919 -15.555 -21.551  0.00  0.00    -0.302 N 
ATOM     10  C   UNL     1      34.768 -14.439 -20.724  0.00  0.00    +0.252 C 
ATOM     11  H   UNL     1      34.625 -15.493 -22.488  0.00  0.00    +0.150 HD
BRANCH  10  14
ATOM     12 CL   UNL     1      31.749  -9.977 -21.703  0.00  0.00    -0.075 Cl
ATOM     13  S   UNL     1      32.976 -12.413 -20.531  0.00  0.00    -0.071 S 
ATOM     14  C   UNL     1      34.200 -13.240 -21.357  0.00  0.00    +0.084 C 
ATOM     15  C   UNL     1      34.542 -12.701 -22.548  0.00  0.00    +0.012 C 
ATOM     16  C   UNL     1      33.761 -11.539 -22.815  0.00  0.00    +0.019 C 
ATOM     17  C   UNL     1      32.871 -11.269 -21.800  0.00  0.00    +0.087 C 
ENDBRANCH  10  14
ENDBRANCH   3   9
BRANCH   4  18
ATOM     18  O   UNL     1      37.429 -17.595 -22.257  0.00  0.00    -0.385 OA
ATOM     19  H   UNL     1      37.741 -17.009 -21.550  0.00  0.00    +0.210 HD
ENDBRANCH   4  18
ENDBRANCH   1   2
BRANCH   1  22
ATOM     20  O   UNL     1      35.657 -21.950 -19.846  0.00  0.00    -0.277 OA
ATOM     21  N   UNL     1      34.661 -20.948 -17.971  0.00  0.00    -0.284 N 
ATOM     22  C   UNL     1      34.927 -21.110 -19.329  0.00  0.00    +0.205 C 
ATOM     23  H   UNL     1      34.050 -20.213 -17.733  0.00  0.00    +0.155 HD
BRANCH  21  25
ATOM     24  F   UNL     1      37.290 -20.675 -17.119  0.00  0.00    -0.203 F 
ATOM     25  C   UNL     1      35.166 -21.714 -16.894  0.00  0.00    +0.078 C 
ATOM     26  C   UNL     1      36.483 -21.549 -16.499  0.00  0.00    +0.155 C 
ATOM     27  C   UNL     1      34.329 -22.615 -16.257  0.00  0.00    +0.018 C 
ATOM     28  C   UNL     1      36.148 -23.218 -14.785  0.00  0.00    +0.061 C 
ATOM     29  C   UNL     1      36.978 -22.306 -15.437  0.00  0.00    +0.046 C 
ATOM     30  C   UNL     1      34.823 -23.373 -15.195  0.00  0.00    +0.017 C 
BRANCH  28  32
ATOM     31  O   UNL     1      37.061 -25.956 -14.969  0.00  0.00    -0.269 OA
ATOM     32  N   UNL     1      36.663 -24.006 -13.682  0.00  0.00    -0.233 N 
ATOM     33  C   UNL     1      37.118 -25.331 -13.911  0.00  0.00    +0.257 C 
ATOM     34  C   UNL     1      36.694 -23.478 -12.390  0.00  0.00    +0.072 C 
ATOM     35  C   UNL     1      37.677 -26.055 -12.728  0.00  0.00    +0.059 C 
ATOM     36  C   UNL     1      37.169 -24.160 -11.342  0.00  0.00    +0.017 C 
ATOM     37  C   UNL     1      37.682 -25.485 -11.521  0.00  0.00    +0.006 C 
ENDBRANCH  28  32
ENDBRANCH  21  25
ENDBRANCH   1  22
TORSDOF 7
ENDMDL
MODEL 7
REMARK VINA RESULT:     -10.6      1.556      2.023
REMARK  Name = 11979006
REMARK  7 active torsions:
REMARK  status: ('A' for Active; 'I' for Inactive)
REMARK    1  A    between atoms: C_1  and  N_2
REMARK    2  A    between atoms: C_1  and  C_22
REMARK    3  A    between atoms: C_3  and  N_9
REMARK    4  A    between atoms: C_4  and  O_18
REMARK    5  A    between atoms: C_10  and  C_14
REMARK    6  A    between atoms: N_21  and  C_25
REMARK    7  A    between atoms: C_28  and  N_32
REMARK                            x       y       z     vdW  Elec       q    Type
REMARK                         _______ _______ _______ _____ _____    ______ ____
ROOT
ATOM      1  C   UNL     1      35.723 -20.343 -20.129  0.00  0.00    +0.010 C 
ENDROOT
BRANCH   1   2
ATOM      2  N   UNL     1      35.326 -20.684 -18.771  0.00  0.00    +0.396 N 
ATOM      3  C   UNL     1      35.795 -21.556 -16.682  0.00  0.00    +0.076 C 
ATOM      4  C   UNL     1      34.639 -22.372 -17.266  0.00  0.00    +0.106 C 
ATOM      5  C   UNL     1      36.474 -20.951 -17.903  0.00  0.00    -0.054 C 
ATOM      6  C   UNL     1      34.502 -21.898 -18.714  0.00  0.00    -0.045 C 
ATOM      7  H   UNL     1      34.805 -19.868 -18.453  0.00  0.00    -0.079 HD
BRANCH   3   9
ATOM      8  O   UNL     1      35.404 -22.316 -13.995  0.00  0.00    -0.270 OA
ATOM      9  N   UNL     1      36.693 -22.358 -15.897  0.00  0.00    -0.302 N 
ATOM     10  C   UNL     1      36.428 -22.693 -14.566  0.00  0.00    +0.252 C 
ATOM     11  H   UNL     1      37.525 -22.682 -16.310  0.00  0.00    +0.150 HD
BRANCH  10  14
ATOM     12 CL   UNL     1      40.883 -25.719 -13.573  0.00  0.00    -0.075 Cl
ATOM     13  S   UNL     1      38.793 -24.000 -14.795  0.00  0.00    -0.071 S 
ATOM     14  C   UNL     1      37.427 -23.546 -13.906  0.00  0.00    +0.084 C 
ATOM     15  C   UNL     1      37.389 -24.027 -12.643  0.00  0.00    +0.012 C 
ATOM     16  C   UNL     1      38.543 -24.818 -12.373  0.00  0.00    +0.019 C 
ATOM     17  C   UNL     1      39.390 -24.885 -13.457  0.00  0.00    +0.087 C 
ENDBRANCH  10  14
ENDBRANCH   3   9
BRANCH   4  18
ATOM     18  O   UNL     1      33.453 -22.100 -16.531  0.00  0.00    -0.385 OA
ATOM     19  H   UNL     1      32.782 -21.732 -17.126  0.00  0.00    +0.210 HD
ENDBRANCH   4  18
ENDBRANCH   1   2
BRANCH   1  22
ATOM     20  O   UNL     1      33.736 -18.996 -20.377  0.00  0.00    -0.277 OA
ATOM     21  N   UNL     1      35.774 -18.240 -21.264  0.00  0.00    -0.284 N 
ATOM     22  C   UNL     1      34.937 -19.129 -20.593  0.00  0.00    +0.205 C 
ATOM     23  H   UNL     1      36.719 -18.508 -21.342  0.00  0.00    +0.155 HD
BRANCH  21  25
ATOM     24  F   UNL     1      35.454 -15.962 -19.709  0.00  0.00    -0.203 F 
ATOM     25  C   UNL     1      35.428 -16.997 -21.846  0.00  0.00    +0.078 C 
ATOM     26  C   UNL     1      35.277 -15.885 -21.036  0.00  0.00    +0.155 C 
ATOM     27  C   UNL     1      35.246 -16.923 -23.217  0.00  0.00    +0.018 C 
ATOM     28  C   UNL     1      34.748 -14.569 -22.992  0.00  0.00    +0.061 C 
ATOM     29  C   UNL     1      34.935 -14.662 -21.613  0.00  0.00    +0.046 C 
ATOM     30  C   UNL     1      34.903 -15.700 -23.794  0.00  0.00    +0.017 C 
BRANCH  28  32
ATOM     31  O   UNL     1      34.099 -14.159 -25.781  0.00  0.00    -0.269 OA
ATOM     32  N   UNL     1      34.391 -13.298 -23.591  0.00  0.00    -0.233 N 
ATOM     33  C   UNL     1      34.054 -13.235 -24.969  0.00  0.00    +0.257 C 
ATOM     34  C   UNL     1      34.398 -12.129 -22.828  0.00  0.00    +0.072 C 
ATOM     35  C   UNL     1      33.653 -11.894 -25.495  0.00  0.00    +0.059 C 
ATOM     36  C   UNL     1      34.067 -10.935 -23.330  0.00  0.00    +0.017 C 
ATOM     37  C   UNL     1      33.676 -10.818 -24.704  0.00  0.00    +0.006 C 
ENDBRANCH  28  32
ENDBRANCH  21  25
ENDBRANCH   1  22
TORSDOF 7
ENDMDL
MODEL 8
REMARK VINA RESULT:     -10.5      3.580      5.401
REMARK  Name = 11979006
REMARK  7 active torsions:
REMARK  status: ('A' for Active; 'I' for Inactive)
REMARK    1  A    between atoms: C_1  and  N_2
REMARK    2  A    between atoms: C_1  and  C_22
REMARK    3  A    between atoms: C_3  and  N_9
REMARK    4  A    between atoms: C_4  and  O_18
REMARK    5  A    between atoms: C_10  and  C_14
REMARK    6  A    between atoms: N_21  and  C_25
REMARK    7  A    between atoms: C_28  and  N_32
REMARK                            x       y       z     vdW  Elec       q    Type
REMARK                         _______ _______ _______ _____ _____    ______ ____
ROOT
ATOM      1  C   UNL     1      34.019 -17.217 -24.329  0.00  0.00    +0.010 C 
ENDROOT
BRANCH   1   2
ATOM      2  N   UNL     1      34.953 -17.798 -23.376  0.00  0.00    +0.396 N 
ATOM      3  C   UNL     1      35.415 -19.160 -21.567  0.00  0.00    +0.076 C 
ATOM      4  C   UNL     1      35.857 -17.743 -21.194  0.00  0.00    +0.106 C 
ATOM      5  C   UNL     1      34.388 -18.949 -22.670  0.00  0.00    -0.054 C 
ATOM      6  C   UNL     1      35.348 -16.851 -22.327  0.00  0.00    -0.045 C 
ATOM      7  H   UNL     1      35.751 -18.072 -23.948  0.00  0.00    -0.079 HD
BRANCH   3   9
ATOM      8  O   UNL     1      36.917 -20.534 -19.615  0.00  0.00    -0.270 OA
ATOM      9  N   UNL     1      34.876 -19.882 -20.447  0.00  0.00    -0.302 N 
ATOM     10  C   UNL     1      35.689 -20.540 -19.519  0.00  0.00    +0.252 C 
ATOM     11  H   UNL     1      33.900 -19.915 -20.329  0.00  0.00    +0.150 HD
BRANCH  10  14
ATOM     12 CL   UNL     1      34.594 -22.948 -14.725  0.00  0.00    -0.075 Cl
ATOM     13  S   UNL     1      35.888 -21.599 -17.031  0.00  0.00    -0.071 S 
ATOM     14  C   UNL     1      34.991 -21.207 -18.411  0.00  0.00    +0.084 C 
ATOM     15  C   UNL     1      33.686 -21.558 -18.355  0.00  0.00    +0.012 C 
ATOM     16  C   UNL     1      33.389 -22.187 -17.111  0.00  0.00    +0.019 C 
ATOM     17  C   UNL     1      34.496 -22.273 -16.298  0.00  0.00    +0.087 C 
ENDBRANCH  10  14
ENDBRANCH   3   9
BRANCH   4  18
ATOM     18  O   UNL     1      37.275 -17.699 -21.112  0.00  0.00    -0.385 OA
ATOM     19  H   UNL     1      37.558 -16.797 -20.893  0.00  0.00    +0.210 HD
ENDBRANCH   4  18
ENDBRANCH   1   2
BRANCH   1  22
ATOM     20  O   UNL     1      35.352 -15.555 -25.462  0.00  0.00    -0.277 OA
ATOM     21  N   UNL     1      33.693 -14.881 -23.943  0.00  0.00    -0.284 N 
ATOM     22  C   UNL     1      34.454 -15.800 -24.662  0.00  0.00    +0.205 C 
ATOM     23  H   UNL     1      33.008 -15.258 -23.345  0.00  0.00    +0.155 HD
BRANCH  21  25
ATOM     24  F   UNL     1      34.032 -13.413 -21.611  0.00  0.00    -0.203 F 
ATOM     25  C   UNL     1      33.788 -13.469 -23.973  0.00  0.00    +0.078 C 
ATOM     26  C   UNL     1      33.957 -12.773 -22.787  0.00  0.00    +0.155 C 
ATOM     27  C   UNL     1      33.709 -12.813 -25.190  0.00  0.00    +0.018 C 
ATOM     28  C   UNL     1      33.973 -10.706 -24.038  0.00  0.00    +0.061 C 
ATOM     29  C   UNL     1      34.050 -11.382 -22.820  0.00  0.00    +0.046 C 
ATOM     30  C   UNL     1      33.802 -11.422 -25.223  0.00  0.00    +0.017 C 
BRANCH  28  32
ATOM     31  O   UNL     1      36.325  -9.204 -24.796  0.00  0.00    -0.269 OA
ATOM     32  N   UNL     1      34.069  -9.260 -24.071  0.00  0.00    -0.233 N 
ATOM     33  C   UNL     1      35.272  -8.641 -24.501  0.00  0.00    +0.257 C 
ATOM     34  C   UNL     1      32.994  -8.469 -23.661  0.00  0.00    +0.072 C 
ATOM     35  C   UNL     1      35.269  -7.146 -24.550  0.00  0.00    +0.059 C 
ATOM     36  C   UNL     1      33.028  -7.133 -23.683  0.00  0.00    +0.017 C 
ATOM     37  C   UNL     1      34.201  -6.454 -24.149  0.00  0.00    +0.006 C 
ENDBRANCH  28  32
ENDBRANCH  21  25
ENDBRANCH   1  22
TORSDOF 7
ENDMDL
MODEL 9
REMARK VINA RESULT:     -10.4      4.883     11.923
REMARK  Name = 11979006
REMARK  7 active torsions:
REMARK  status: ('A' for Active; 'I' for Inactive)
REMARK    1  A    between atoms: C_1  and  N_2
REMARK    2  A    between atoms: C_1  and  C_22
REMARK    3  A    between atoms: C_3  and  N_9
REMARK    4  A    between atoms: C_4  and  O_18
REMARK    5  A    between atoms: C_10  and  C_14
REMARK    6  A    between atoms: N_21  and  C_25
REMARK    7  A    between atoms: C_28  and  N_32
REMARK                            x       y       z     vdW  Elec       q    Type
REMARK                         _______ _______ _______ _____ _____    ______ ____
ROOT
ATOM      1  C   UNL     1      34.207 -20.088 -20.069  0.00  0.00    +0.010 C 
ENDROOT
BRANCH   1   2
ATOM      2  N   UNL     1      35.124 -19.020 -20.438  0.00  0.00    +0.396 N 
ATOM      3  C   UNL     1      35.542 -16.829 -21.044  0.00  0.00    +0.076 C 
ATOM      4  C   UNL     1      36.067 -17.720 -22.171  0.00  0.00    +0.106 C 
ATOM      5  C   UNL     1      34.509 -17.696 -20.338  0.00  0.00    -0.054 C 
ATOM      6  C   UNL     1      35.590 -19.132 -21.825  0.00  0.00    -0.045 C 
ATOM      7  H   UNL     1      35.895 -19.119 -19.779  0.00  0.00    -0.079 HD
BRANCH   3   9
ATOM      8  O   UNL     1      35.129 -14.491 -19.522  0.00  0.00    -0.270 OA
ATOM      9  N   UNL     1      34.984 -15.597 -21.531  0.00  0.00    -0.302 N 
ATOM     10  C   UNL     1      34.810 -14.479 -20.711  0.00  0.00    +0.252 C 
ATOM     11  H   UNL     1      34.713 -15.539 -22.475  0.00  0.00    +0.150 HD
BRANCH  10  14
ATOM     12 CL   UNL     1      31.854  -9.988 -21.753  0.00  0.00    -0.075 Cl
ATOM     13  S   UNL     1      33.052 -12.421 -20.544  0.00  0.00    -0.071 S 
ATOM     14  C   UNL     1      34.256 -13.283 -21.363  0.00  0.00    +0.084 C 
ATOM     15  C   UNL     1      34.597 -12.772 -22.567  0.00  0.00    +0.012 C 
ATOM     16  C   UNL     1      33.833 -11.603 -22.850  0.00  0.00    +0.019 C 
ATOM     17  C   UNL     1      32.955 -11.300 -21.833  0.00  0.00    +0.087 C 
ENDBRANCH  10  14
ENDBRANCH   3   9
BRANCH   4  18
ATOM     18  O   UNL     1      37.488 -17.659 -22.196  0.00  0.00    -0.385 OA
ATOM     19  H   UNL     1      37.807 -17.241 -21.381  0.00  0.00    +0.210 HD
ENDBRANCH   4  18
ENDBRANCH   1   2
BRANCH   1  22
ATOM     20  O   UNL     1      35.657 -21.997 -19.791  0.00  0.00    -0.277 OA
ATOM     21  N   UNL     1      34.720 -20.961 -17.904  0.00  0.00    -0.284 N 
ATOM     22  C   UNL     1      34.954 -21.139 -19.266  0.00  0.00    +0.205 C 
ATOM     23  H   UNL     1      34.128 -20.212 -17.659  0.00  0.00    +0.155 HD
BRANCH  21  25
ATOM     24  F   UNL     1      33.116 -22.763 -16.530  0.00  0.00    -0.203 F 
ATOM     25  C   UNL     1      35.232 -21.729 -16.831  0.00  0.00    +0.078 C 
ATOM     26  C   UNL     1      34.399 -22.617 -16.171  0.00  0.00    +0.155 C 
ATOM     27  C   UNL     1      36.559 -21.574 -16.464  0.00  0.00    +0.018 C 
ATOM     28  C   UNL     1      36.241 -23.228 -14.732  0.00  0.00    +0.061 C 
ATOM     29  C   UNL     1      34.907 -23.372 -15.114  0.00  0.00    +0.046 C 
ATOM     30  C   UNL     1      37.067 -22.329 -15.407  0.00  0.00    +0.017 C 
BRANCH  28  32
ATOM     31  O   UNL     1      36.451 -22.334 -11.989  0.00  0.00    -0.269 OA
ATOM     32  N   UNL     1      36.768 -24.013 -13.633  0.00  0.00    -0.233 N 
ATOM     33  C   UNL     1      36.780 -23.472 -12.320  0.00  0.00    +0.257 C 
ATOM     34  C   UNL     1      37.286 -25.290 -13.858  0.00  0.00    +0.072 C 
ATOM     35  C   UNL     1      37.297 -24.366 -11.238  0.00  0.00    +0.059 C 
ATOM     36  C   UNL     1      37.773 -26.057 -12.877  0.00  0.00    +0.017 C 
ATOM     37  C   UNL     1      37.770 -25.580 -11.526  0.00  0.00    +0.006 C 
ENDBRANCH  28  32
ENDBRANCH  21  25
ENDBRANCH   1  22
TORSDOF 7
ENDMDL
