MODEL 1
REMARK VINA RESULT:     -11.7      0.000      0.000
REMARK  Name = 456199
REMARK  5 active torsions:
REMARK  status: ('A' for Active; 'I' for Inactive)
REMARK    1  A    between atoms: O_1  and  C_5
REMARK    2  A    between atoms: O_1  and  C_14
REMARK    3  A    between atoms: C_14  and  C_15
REMARK    4  A    between atoms: C_20  and  O_21
REMARK    5  A    between atoms: O_21  and  C_25
REMARK                            x       y       z     vdW  Elec       q    Type
REMARK                         _______ _______ _______ _____ _____    ______ ____
ROOT
ATOM      1  O   UNL     1      33.389 -22.084 -17.030  0.00  0.00    -0.346 OA
ENDROOT
BRANCH   1   5
ATOM      2  O   UNL     1      32.653 -23.532 -13.721  0.00  0.00    -0.438 OA
ATOM      3  N   UNL     1      34.962 -22.956 -13.847  0.00  0.00    -0.242 N 
ATOM      4  N   UNL     1      34.195 -23.896 -11.991  0.00  0.00    -0.333 NA
ATOM      5  C   UNL     1      33.638 -22.887 -15.886  0.00  0.00    +0.179 C 
ATOM      6  C   UNL     1      34.920 -22.436 -15.194  0.00  0.00    +0.130 C 
ATOM      7  C   UNL     1      32.461 -22.768 -14.917  0.00  0.00    +0.241 C 
ATOM      8  C   UNL     1      33.872 -23.457 -13.187  0.00  0.00    +0.345 C 
ATOM      9  C   UNL     1      36.041 -23.059 -13.025  0.00  0.00    +0.181 C 
ATOM     10  C   UNL     1      35.543 -23.642 -11.880  0.00  0.00    +0.274 C 
ATOM     11  O   UNL     1      37.458 -23.729 -10.606  0.00  0.00    -0.124 OA
ATOM     12  O   UNL     1      35.590 -24.507  -9.748  0.00  0.00    -0.124 OA
ATOM     13  N   UNL     1      36.223 -23.972 -10.701  0.00  0.00    +0.085 N 
ENDBRANCH   1   5
BRANCH   1  14
ATOM     14  C   UNL     1      34.285 -22.397 -18.085  0.00  0.00    +0.169 C 
BRANCH  14  15
ATOM     15  C   UNL     1      34.544 -21.158 -18.890  0.00  0.00    +0.007 C 
ATOM     16  C   UNL     1      35.850 -20.721 -19.080  0.00  0.00    +0.001 C 
ATOM     17  C   UNL     1      33.476 -20.458 -19.439  0.00  0.00    +0.001 C 
ATOM     18  C   UNL     1      36.091 -19.568 -19.828  0.00  0.00    +0.037 C 
ATOM     19  C   UNL     1      33.715 -19.305 -20.188  0.00  0.00    +0.037 C 
ATOM     20  C   UNL     1      35.023 -18.861 -20.382  0.00  0.00    +0.147 C 
BRANCH  20  21
ATOM     21  O   UNL     1      35.259 -17.736 -21.112  0.00  0.00    -0.404 OA
BRANCH  21  25
ATOM     22  F   UNL     1      37.116 -17.940 -22.431  0.00  0.00    -0.133 F 
ATOM     23  F   UNL     1      35.395 -16.813 -23.168  0.00  0.00    -0.133 F 
ATOM     24  F   UNL     1      35.265 -18.990 -23.025  0.00  0.00    -0.133 F 
ATOM     25  C   UNL     1      35.768 -17.885 -22.432  0.00  0.00    +0.575 C 
ENDBRANCH  21  25
ENDBRANCH  20  21
ENDBRANCH  14  15
ENDBRANCH   1  14
TORSDOF 5
ENDMDL
MODEL 2
REMARK VINA RESULT:     -11.6      1.407      2.172
REMARK  Name = 456199
REMARK  5 active torsions:
REMARK  status: ('A' for Active; 'I' for Inactive)
REMARK    1  A    between atoms: O_1  and  C_5
REMARK    2  A    between atoms: O_1  and  C_14
REMARK    3  A    between atoms: C_14  and  C_15
REMARK    4  A    between atoms: C_20  and  O_21
REMARK    5  A    between atoms: O_21  and  C_25
REMARK                            x       y       z     vdW  Elec       q    Type
REMARK                         _______ _______ _______ _____ _____    ______ ____
ROOT
ATOM      1  O   UNL     1      34.563 -22.715 -17.115  0.00  0.00    -0.346 OA
ENDROOT
BRANCH   1   5
ATOM      2  O   UNL     1      36.863 -21.870 -14.361  0.00  0.00    -0.438 OA
ATOM      3  N   UNL     1      35.229 -23.425 -13.591  0.00  0.00    -0.242 N 
ATOM      4  N   UNL     1      36.749 -22.674 -12.161  0.00  0.00    -0.333 NA
ATOM      5  C   UNL     1      34.917 -22.402 -15.776  0.00  0.00    +0.179 C 
ATOM      6  C   UNL     1      34.526 -23.548 -14.847  0.00  0.00    +0.130 C 
ATOM      7  C   UNL     1      36.425 -22.164 -15.693  0.00  0.00    +0.241 C 
ATOM      8  C   UNL     1      36.328 -22.629 -13.405  0.00  0.00    +0.345 C 
ATOM      9  C   UNL     1      34.938 -24.030 -12.408  0.00  0.00    +0.181 C 
ATOM     10  C   UNL     1      35.892 -23.552 -11.537  0.00  0.00    +0.274 C 
ATOM     11  O   UNL     1      35.281 -24.667  -9.618  0.00  0.00    -0.124 OA
ATOM     12  O   UNL     1      37.010 -23.312  -9.539  0.00  0.00    -0.124 OA
ATOM     13  N   UNL     1      36.067 -23.855 -10.181  0.00  0.00    +0.085 N 
ENDBRANCH   1   5
BRANCH   1  14
ATOM     14  C   UNL     1      33.524 -21.869 -17.585  0.00  0.00    +0.169 C 
BRANCH  14  15
ATOM     15  C   UNL     1      34.056 -21.011 -18.695  0.00  0.00    +0.007 C 
ATOM     16  C   UNL     1      33.181 -20.230 -19.440  0.00  0.00    +0.001 C 
ATOM     17  C   UNL     1      35.419 -21.008 -18.969  0.00  0.00    +0.001 C 
ATOM     18  C   UNL     1      33.676 -19.432 -20.473  0.00  0.00    +0.037 C 
ATOM     19  C   UNL     1      35.915 -20.211 -20.001  0.00  0.00    +0.037 C 
ATOM     20  C   UNL     1      35.043 -19.423 -20.753  0.00  0.00    +0.147 C 
BRANCH  20  21
ATOM     21  O   UNL     1      35.525 -18.645 -21.760  0.00  0.00    -0.404 OA
BRANCH  21  25
ATOM     22  F   UNL     1      37.637 -17.813 -21.486  0.00  0.00    -0.133 F 
ATOM     23  F   UNL     1      36.042 -17.156 -20.145  0.00  0.00    -0.133 F 
ATOM     24  F   UNL     1      36.047 -16.466 -22.219  0.00  0.00    -0.133 F 
ATOM     25  C   UNL     1      36.323 -17.518 -21.417  0.00  0.00    +0.575 C 
ENDBRANCH  21  25
ENDBRANCH  20  21
ENDBRANCH  14  15
ENDBRANCH   1  14
TORSDOF 5
ENDMDL
MODEL 3
REMARK VINA RESULT:     -11.1      1.669      2.605
REMARK  Name = 456199
REMARK  5 active torsions:
REMARK  status: ('A' for Active; 'I' for Inactive)
REMARK    1  A    between atoms: O_1  and  C_5
REMARK    2  A    between atoms: O_1  and  C_14
REMARK    3  A    between atoms: C_14  and  C_15
REMARK    4  A    between atoms: C_20  and  O_21
REMARK    5  A    between atoms: O_21  and  C_25
REMARK                            x       y       z     vdW  Elec       q    Type
REMARK                         _______ _______ _______ _____ _____    ______ ____
ROOT
ATOM      1  O   UNL     1      35.538 -21.659 -17.347  0.00  0.00    -0.346 OA
ENDROOT
BRANCH   1   5
ATOM      2  O   UNL     1      37.810 -21.739 -14.446  0.00  0.00    -0.438 OA
ATOM      3  N   UNL     1      35.817 -22.942 -13.936  0.00  0.00    -0.242 N 
ATOM      4  N   UNL     1      37.384 -22.762 -12.378  0.00  0.00    -0.333 NA
ATOM      5  C   UNL     1      35.877 -21.610 -15.970  0.00  0.00    +0.179 C 
ATOM      6  C   UNL     1      35.178 -22.736 -15.215  0.00  0.00    +0.130 C 
ATOM      7  C   UNL     1      37.392 -21.752 -15.816  0.00  0.00    +0.241 C 
ATOM      8  C   UNL     1      37.058 -22.462 -13.616  0.00  0.00    +0.345 C 
ATOM      9  C   UNL     1      35.325 -23.604 -12.854  0.00  0.00    +0.181 C 
ATOM     10  C   UNL     1      36.312 -23.481 -11.901  0.00  0.00    +0.274 C 
ATOM     11  O   UNL     1      35.349 -24.648 -10.167  0.00  0.00    -0.124 OA
ATOM     12  O   UNL     1      37.338 -23.766  -9.861  0.00  0.00    -0.124 OA
ATOM     13  N   UNL     1      36.333 -23.984 -10.594  0.00  0.00    +0.085 N 
ENDBRANCH   1   5
BRANCH   1  14
ATOM     14  C   UNL     1      36.606 -21.195 -18.159  0.00  0.00    +0.169 C 
BRANCH  14  15
ATOM     15  C   UNL     1      36.064 -20.243 -19.184  0.00  0.00    +0.007 C 
ATOM     16  C   UNL     1      34.723 -20.308 -19.543  0.00  0.00    +0.001 C 
ATOM     17  C   UNL     1      36.909 -19.304 -19.765  0.00  0.00    +0.001 C 
ATOM     18  C   UNL     1      34.219 -19.422 -20.496  0.00  0.00    +0.037 C 
ATOM     19  C   UNL     1      36.406 -18.418 -20.718  0.00  0.00    +0.037 C 
ATOM     20  C   UNL     1      35.061 -18.477 -21.083  0.00  0.00    +0.147 C 
BRANCH  20  21
ATOM     21  O   UNL     1      34.569 -17.613 -22.013  0.00  0.00    -0.404 OA
BRANCH  21  25
ATOM     22  F   UNL     1      33.487 -18.178 -23.946  0.00  0.00    -0.133 F 
ATOM     23  F   UNL     1      35.412 -19.103 -23.484  0.00  0.00    -0.133 F 
ATOM     24  F   UNL     1      35.352 -16.999 -24.073  0.00  0.00    -0.133 F 
ATOM     25  C   UNL     1      34.695 -17.960 -23.387  0.00  0.00    +0.575 C 
ENDBRANCH  21  25
ENDBRANCH  20  21
ENDBRANCH  14  15
ENDBRANCH   1  14
TORSDOF 5
ENDMDL
MODEL 4
REMARK VINA RESULT:     -10.6      5.212      8.942
REMARK  Name = 456199
REMARK  5 active torsions:
REMARK  status: ('A' for Active; 'I' for Inactive)
REMARK    1  A    between atoms: O_1  and  C_5
REMARK    2  A    between atoms: O_1  and  C_14
REMARK    3  A    between atoms: C_14  and  C_15
REMARK    4  A    between atoms: C_20  and  O_21
REMARK    5  A    between atoms: O_21  and  C_25
REMARK                            x       y       z     vdW  Elec       q    Type
REMARK                         _______ _______ _______ _____ _____    ______ ____
ROOT
ATOM      1  O   UNL     1      34.472 -23.035 -16.546  0.00  0.00    -0.346 OA
ENDROOT
BRANCH   1   5
ATOM      2  O   UNL     1      33.078 -20.619 -18.956  0.00  0.00    -0.438 OA
ATOM      3  N   UNL     1      35.459 -20.532 -19.020  0.00  0.00    -0.242 N 
ATOM      4  N   UNL     1      34.303 -19.164 -20.328  0.00  0.00    -0.333 NA
ATOM      5  C   UNL     1      34.394 -21.798 -17.237  0.00  0.00    +0.179 C 
ATOM      6  C   UNL     1      35.680 -21.549 -18.019  0.00  0.00    +0.130 C 
ATOM      7  C   UNL     1      33.206 -21.829 -18.199  0.00  0.00    +0.241 C 
ATOM      8  C   UNL     1      34.220 -20.127 -19.438  0.00  0.00    +0.345 C 
ATOM      9  C   UNL     1      36.392 -19.805 -19.692  0.00  0.00    +0.181 C 
ATOM     10  C   UNL     1      35.654 -18.965 -20.498  0.00  0.00    +0.274 C 
ATOM     11  O   UNL     1      37.352 -17.834 -21.564  0.00  0.00    -0.124 OA
ATOM     12  O   UNL     1      35.274 -17.323 -22.065  0.00  0.00    -0.124 OA
ATOM     13  N   UNL     1      36.111 -18.005 -21.409  0.00  0.00    +0.085 N 
ENDBRANCH   1   5
BRANCH   1  14
ATOM     14  C   UNL     1      34.641 -22.837 -15.150  0.00  0.00    +0.169 C 
BRANCH  14  15
ATOM     15  C   UNL     1      35.855 -23.591 -14.693  0.00  0.00    +0.007 C 
ATOM     16  C   UNL     1      36.896 -22.909 -14.075  0.00  0.00    +0.001 C 
ATOM     17  C   UNL     1      35.926 -24.965 -14.892  0.00  0.00    +0.001 C 
ATOM     18  C   UNL     1      38.025 -23.610 -13.649  0.00  0.00    +0.037 C 
ATOM     19  C   UNL     1      37.054 -25.667 -14.467  0.00  0.00    +0.037 C 
ATOM     20  C   UNL     1      38.104 -24.990 -13.845  0.00  0.00    +0.147 C 
BRANCH  20  21
ATOM     21  O   UNL     1      39.205 -25.673 -13.430  0.00  0.00    -0.404 OA
BRANCH  21  25
ATOM     22  F   UNL     1      41.339 -26.304 -13.959  0.00  0.00    -0.133 F 
ATOM     23  F   UNL     1      40.986 -24.325 -13.101  0.00  0.00    -0.133 F 
ATOM     24  F   UNL     1      40.365 -24.724 -15.158  0.00  0.00    -0.133 F 
ATOM     25  C   UNL     1      40.475 -25.268 -13.926  0.00  0.00    +0.575 C 
ENDBRANCH  21  25
ENDBRANCH  20  21
ENDBRANCH  14  15
ENDBRANCH   1  14
TORSDOF 5
ENDMDL
MODEL 5
REMARK VINA RESULT:     -10.3      1.857      2.469
REMARK  Name = 456199
REMARK  5 active torsions:
REMARK  status: ('A' for Active; 'I' for Inactive)
REMARK    1  A    between atoms: O_1  and  C_5
REMARK    2  A    between atoms: O_1  and  C_14
REMARK    3  A    between atoms: C_14  and  C_15
REMARK    4  A    between atoms: C_20  and  O_21
REMARK    5  A    between atoms: O_21  and  C_25
REMARK                            x       y       z     vdW  Elec       q    Type
REMARK                         _______ _______ _______ _____ _____    ______ ____
ROOT
ATOM      1  O   UNL     1      36.443 -20.769 -17.580  0.00  0.00    -0.346 OA
ENDROOT
BRANCH   1   5
ATOM      2  O   UNL     1      35.036 -23.375 -15.386  0.00  0.00    -0.438 OA
ATOM      3  N   UNL     1      36.932 -22.382 -14.336  0.00  0.00    -0.242 N 
ATOM      4  N   UNL     1      35.871 -24.025 -13.292  0.00  0.00    -0.333 NA
ATOM      5  C   UNL     1      36.492 -21.858 -16.670  0.00  0.00    +0.179 C 
ATOM      6  C   UNL     1      37.226 -21.447 -15.397  0.00  0.00    +0.130 C 
ATOM      7  C   UNL     1      35.068 -22.294 -16.325  0.00  0.00    +0.241 C 
ATOM      8  C   UNL     1      35.889 -23.268 -14.366  0.00  0.00    +0.345 C 
ATOM      9  C   UNL     1      37.610 -22.564 -13.171  0.00  0.00    +0.181 C 
ATOM     10  C   UNL     1      36.936 -23.585 -12.540  0.00  0.00    +0.274 C 
ATOM     11  O   UNL     1      38.178 -23.757 -10.610  0.00  0.00    -0.124 OA
ATOM     12  O   UNL     1      36.466 -25.107 -10.879  0.00  0.00    -0.124 OA
ATOM     13  N   UNL     1      37.204 -24.172 -11.296  0.00  0.00    +0.085 N 
ENDBRANCH   1   5
BRANCH   1  14
ATOM     14  C   UNL     1      35.450 -20.972 -18.574  0.00  0.00    +0.169 C 
BRANCH  14  15
ATOM     15  C   UNL     1      35.618 -19.941 -19.652  0.00  0.00    +0.007 C 
ATOM     16  C   UNL     1      34.580 -19.703 -20.544  0.00  0.00    +0.001 C 
ATOM     17  C   UNL     1      36.811 -19.234 -19.746  0.00  0.00    +0.001 C 
ATOM     18  C   UNL     1      34.737 -18.744 -21.546  0.00  0.00    +0.037 C 
ATOM     19  C   UNL     1      36.969 -18.275 -20.747  0.00  0.00    +0.037 C 
ATOM     20  C   UNL     1      35.931 -18.030 -21.647  0.00  0.00    +0.147 C 
BRANCH  20  21
ATOM     21  O   UNL     1      36.084 -17.095 -22.624  0.00  0.00    -0.404 OA
BRANCH  21  25
ATOM     22  F   UNL     1      34.857 -15.697 -21.294  0.00  0.00    -0.133 F 
ATOM     23  F   UNL     1      34.220 -16.051 -23.354  0.00  0.00    -0.133 F 
ATOM     24  F   UNL     1      35.999 -14.837 -22.979  0.00  0.00    -0.133 F 
ATOM     25  C   UNL     1      35.299 -15.911 -22.550  0.00  0.00    +0.575 C 
ENDBRANCH  21  25
ENDBRANCH  20  21
ENDBRANCH  14  15
ENDBRANCH   1  14
TORSDOF 5
ENDMDL
MODEL 6
REMARK VINA RESULT:     -10.2      2.711      4.104
REMARK  Name = 456199
REMARK  5 active torsions:
REMARK  status: ('A' for Active; 'I' for Inactive)
REMARK    1  A    between atoms: O_1  and  C_5
REMARK    2  A    between atoms: O_1  and  C_14
REMARK    3  A    between atoms: C_14  and  C_15
REMARK    4  A    between atoms: C_20  and  O_21
REMARK    5  A    between atoms: O_21  and  C_25
REMARK                            x       y       z     vdW  Elec       q    Type
REMARK                         _______ _______ _______ _____ _____    ______ ____
ROOT
ATOM      1  O   UNL     1      36.169 -19.929 -20.146  0.00  0.00    -0.346 OA
ENDROOT
BRANCH   1   5
ATOM      2  O   UNL     1      34.569 -22.113 -17.645  0.00  0.00    -0.438 OA
ATOM      3  N   UNL     1      36.649 -21.316 -16.798  0.00  0.00    -0.242 N 
ATOM      4  N   UNL     1      35.446 -22.698 -15.549  0.00  0.00    -0.333 NA
ATOM      5  C   UNL     1      36.130 -20.932 -19.143  0.00  0.00    +0.179 C 
ATOM      6  C   UNL     1      36.997 -20.526 -17.956  0.00  0.00    +0.130 C 
ATOM      7  C   UNL     1      34.685 -21.130 -18.680  0.00  0.00    +0.241 C 
ATOM      8  C   UNL     1      35.495 -22.044 -16.688  0.00  0.00    +0.345 C 
ATOM      9  C   UNL     1      37.374 -21.495 -15.661  0.00  0.00    +0.181 C 
ATOM     10  C   UNL     1      36.609 -22.353 -14.901  0.00  0.00    +0.274 C 
ATOM     11  O   UNL     1      37.944 -22.538 -13.035  0.00  0.00    -0.124 OA
ATOM     12  O   UNL     1      36.048 -23.647 -13.082  0.00  0.00    -0.124 OA
ATOM     13  N   UNL     1      36.878 -22.865 -13.625  0.00  0.00    +0.085 N 
ENDBRANCH   1   5
BRANCH   1  14
ATOM     14  C   UNL     1      34.978 -19.156 -20.151  0.00  0.00    +0.169 C 
BRANCH  14  15
ATOM     15  C   UNL     1      35.013 -18.210 -21.314  0.00  0.00    +0.007 C 
ATOM     16  C   UNL     1      35.448 -16.904 -21.126  0.00  0.00    +0.001 C 
ATOM     17  C   UNL     1      34.610 -18.649 -22.570  0.00  0.00    +0.001 C 
ATOM     18  C   UNL     1      35.481 -16.023 -22.208  0.00  0.00    +0.037 C 
ATOM     19  C   UNL     1      34.643 -17.770 -23.653  0.00  0.00    +0.037 C 
ATOM     20  C   UNL     1      35.078 -16.457 -23.472  0.00  0.00    +0.147 C 
BRANCH  20  21
ATOM     21  O   UNL     1      35.111 -15.598 -24.527  0.00  0.00    -0.404 OA
BRANCH  21  25
ATOM     22  F   UNL     1      33.017 -15.718 -25.439  0.00  0.00    -0.133 F 
ATOM     23  F   UNL     1      34.220 -13.919 -25.745  0.00  0.00    -0.133 F 
ATOM     24  F   UNL     1      33.375 -14.316 -23.769  0.00  0.00    -0.133 F 
ATOM     25  C   UNL     1      33.918 -14.897 -24.860  0.00  0.00    +0.575 C 
ENDBRANCH  21  25
ENDBRANCH  20  21
ENDBRANCH  14  15
ENDBRANCH   1  14
TORSDOF 5
ENDMDL
MODEL 7
REMARK VINA RESULT:     -10.1      3.704      5.990
REMARK  Name = 456199
REMARK  5 active torsions:
REMARK  status: ('A' for Active; 'I' for Inactive)
REMARK    1  A    between atoms: O_1  and  C_5
REMARK    2  A    between atoms: O_1  and  C_14
REMARK    3  A    between atoms: C_14  and  C_15
REMARK    4  A    between atoms: C_20  and  O_21
REMARK    5  A    between atoms: O_21  and  C_25
REMARK                            x       y       z     vdW  Elec       q    Type
REMARK                         _______ _______ _______ _____ _____    ______ ____
ROOT
ATOM      1  O   UNL     1      35.055 -18.866 -21.553  0.00  0.00    -0.346 OA
ENDROOT
BRANCH   1   5
ATOM      2  O   UNL     1      36.478 -20.821 -18.771  0.00  0.00    -0.438 OA
ATOM      3  N   UNL     1      34.100 -20.972 -18.722  0.00  0.00    -0.242 N 
ATOM      4  N   UNL     1      35.270 -22.008 -17.148  0.00  0.00    -0.333 NA
ATOM      5  C   UNL     1      35.127 -19.358 -20.223  0.00  0.00    +0.179 C 
ATOM      6  C   UNL     1      33.867 -20.147 -19.884  0.00  0.00    +0.130 C 
ATOM      7  C   UNL     1      36.353 -20.262 -20.084  0.00  0.00    +0.241 C 
ATOM      8  C   UNL     1      35.344 -21.271 -18.234  0.00  0.00    +0.345 C 
ATOM      9  C   UNL     1      33.175 -21.565 -17.919  0.00  0.00    +0.181 C 
ATOM     10  C   UNL     1      33.921 -22.202 -16.952  0.00  0.00    +0.274 C 
ATOM     11  O   UNL     1      32.238 -23.155 -15.705  0.00  0.00    -0.124 OA
ATOM     12  O   UNL     1      34.319 -23.485 -15.083  0.00  0.00    -0.124 OA
ATOM     13  N   UNL     1      33.476 -22.976 -15.873  0.00  0.00    +0.085 N 
ENDBRANCH   1   5
BRANCH   1  14
ATOM     14  C   UNL     1      36.059 -17.894 -21.799  0.00  0.00    +0.169 C 
BRANCH  14  15
ATOM     15  C   UNL     1      35.503 -16.531 -21.506  0.00  0.00    +0.007 C 
ATOM     16  C   UNL     1      35.155 -15.690 -22.555  0.00  0.00    +0.001 C 
ATOM     17  C   UNL     1      35.342 -16.124 -20.186  0.00  0.00    +0.001 C 
ATOM     18  C   UNL     1      34.637 -14.423 -22.282  0.00  0.00    +0.037 C 
ATOM     19  C   UNL     1      34.825 -14.857 -19.912  0.00  0.00    +0.037 C 
ATOM     20  C   UNL     1      34.473 -14.007 -20.961  0.00  0.00    +0.147 C 
BRANCH  20  21
ATOM     21  O   UNL     1      33.968 -12.771 -20.695  0.00  0.00    -0.404 OA
BRANCH  21  25
ATOM     22  F   UNL     1      31.941 -12.409 -21.690  0.00  0.00    -0.133 F 
ATOM     23  F   UNL     1      32.322 -11.589 -19.700  0.00  0.00    -0.133 F 
ATOM     24  F   UNL     1      32.044 -13.745 -19.932  0.00  0.00    -0.133 F 
ATOM     25  C   UNL     1      32.563 -12.642 -20.515  0.00  0.00    +0.575 C 
ENDBRANCH  21  25
ENDBRANCH  20  21
ENDBRANCH  14  15
ENDBRANCH   1  14
TORSDOF 5
ENDMDL
MODEL 8
REMARK VINA RESULT:     -10.1      5.757      6.945
REMARK  Name = 456199
REMARK  5 active torsions:
REMARK  status: ('A' for Active; 'I' for Inactive)
REMARK    1  A    between atoms: O_1  and  C_5
REMARK    2  A    between atoms: O_1  and  C_14
REMARK    3  A    between atoms: C_14  and  C_15
REMARK    4  A    between atoms: C_20  and  O_21
REMARK    5  A    between atoms: O_21  and  C_25
REMARK                            x       y       z     vdW  Elec       q    Type
REMARK                         _______ _______ _______ _____ _____    ______ ____
ROOT
ATOM      1  O   UNL     1      33.553 -24.267 -14.055  0.00  0.00    -0.346 OA
ENDROOT
BRANCH   1   5
ATOM      2  O   UNL     1      36.669 -22.318 -14.343  0.00  0.00    -0.438 OA
ATOM      3  N   UNL     1      37.183 -24.644 -14.259  0.00  0.00    -0.242 N 
ATOM      4  N   UNL     1      38.848 -23.185 -14.391  0.00  0.00    -0.333 NA
ATOM      5  C   UNL     1      34.906 -23.943 -13.772  0.00  0.00    +0.179 C 
ATOM      6  C   UNL     1      35.817 -25.103 -14.160  0.00  0.00    +0.130 C 
ATOM      7  C   UNL     1      35.303 -22.692 -14.557  0.00  0.00    +0.241 C 
ATOM      8  C   UNL     1      37.542 -23.326 -14.349  0.00  0.00    +0.345 C 
ATOM      9  C   UNL     1      38.318 -25.394 -14.263  0.00  0.00    +0.181 C 
ATOM     10  C   UNL     1      39.337 -24.471 -14.346  0.00  0.00    +0.274 C 
ATOM     11  O   UNL     1      41.158 -25.879 -14.359  0.00  0.00    -0.124 OA
ATOM     12  O   UNL     1      41.506 -23.712 -14.471  0.00  0.00    -0.124 OA
ATOM     13  N   UNL     1      40.719 -24.696 -14.394  0.00  0.00    +0.085 N 
ENDBRANCH   1   5
BRANCH   1  14
ATOM     14  C   UNL     1      32.662 -23.519 -13.241  0.00  0.00    +0.169 C 
BRANCH  14  15
ATOM     15  C   UNL     1      31.579 -22.942 -14.105  0.00  0.00    +0.007 C 
ATOM     16  C   UNL     1      30.427 -22.434 -13.516  0.00  0.00    +0.001 C 
ATOM     17  C   UNL     1      31.737 -22.922 -15.486  0.00  0.00    +0.001 C 
ATOM     18  C   UNL     1      29.420 -21.897 -14.319  0.00  0.00    +0.037 C 
ATOM     19  C   UNL     1      30.731 -22.386 -16.289  0.00  0.00    +0.037 C 
ATOM     20  C   UNL     1      29.572 -21.874 -15.705  0.00  0.00    +0.147 C 
BRANCH  20  21
ATOM     21  O   UNL     1      28.589 -21.351 -16.488  0.00  0.00    -0.404 OA
BRANCH  21  25
ATOM     22  F   UNL     1      26.857 -21.820 -17.906  0.00  0.00    -0.133 F 
ATOM     23  F   UNL     1      26.526 -21.890 -15.747  0.00  0.00    -0.133 F 
ATOM     24  F   UNL     1      27.719 -23.456 -16.696  0.00  0.00    -0.133 F 
ATOM     25  C   UNL     1      27.427 -22.138 -16.725  0.00  0.00    +0.575 C 
ENDBRANCH  21  25
ENDBRANCH  20  21
ENDBRANCH  14  15
ENDBRANCH   1  14
TORSDOF 5
ENDMDL
MODEL 9
REMARK VINA RESULT:     -10.0      6.048     10.494
REMARK  Name = 456199
REMARK  5 active torsions:
REMARK  status: ('A' for Active; 'I' for Inactive)
REMARK    1  A    between atoms: O_1  and  C_5
REMARK    2  A    between atoms: O_1  and  C_14
REMARK    3  A    between atoms: C_14  and  C_15
REMARK    4  A    between atoms: C_20  and  O_21
REMARK    5  A    between atoms: O_21  and  C_25
REMARK                            x       y       z     vdW  Elec       q    Type
REMARK                         _______ _______ _______ _____ _____    ______ ____
ROOT
ATOM      1  O   UNL     1      35.949 -18.484 -21.446  0.00  0.00    -0.346 OA
ENDROOT
BRANCH   1   5
ATOM      2  O   UNL     1      35.213 -15.046 -20.336  0.00  0.00    -0.438 OA
ATOM      3  N   UNL     1      34.904 -15.210 -22.693  0.00  0.00    -0.242 N 
ATOM      4  N   UNL     1      34.582 -13.251 -21.707  0.00  0.00    -0.333 NA
ATOM      5  C   UNL     1      35.963 -17.067 -21.532  0.00  0.00    +0.179 C 
ATOM      6  C   UNL     1      35.247 -16.609 -22.799  0.00  0.00    +0.130 C 
ATOM      7  C   UNL     1      35.264 -16.478 -20.306  0.00  0.00    +0.241 C 
ATOM      8  C   UNL     1      34.894 -14.513 -21.515  0.00  0.00    +0.345 C 
ATOM      9  C   UNL     1      34.560 -14.357 -23.695  0.00  0.00    +0.181 C 
ATOM     10  C   UNL     1      34.364 -13.149 -23.061  0.00  0.00    +0.274 C 
ATOM     11  O   UNL     1      33.781 -11.839 -24.862  0.00  0.00    -0.124 OA
ATOM     12  O   UNL     1      33.854 -10.913 -22.870  0.00  0.00    -0.124 OA
ATOM     13  N   UNL     1      33.985 -11.921 -23.619  0.00  0.00    +0.085 N 
ENDBRANCH   1   5
BRANCH   1  14
ATOM     14  C   UNL     1      34.666 -18.967 -21.079  0.00  0.00    +0.169 C 
BRANCH  14  15
ATOM     15  C   UNL     1      34.809 -19.897 -19.910  0.00  0.00    +0.007 C 
ATOM     16  C   UNL     1      36.074 -20.198 -19.421  0.00  0.00    +0.001 C 
ATOM     17  C   UNL     1      33.673 -20.449 -19.328  0.00  0.00    +0.001 C 
ATOM     18  C   UNL     1      36.207 -21.063 -18.334  0.00  0.00    +0.037 C 
ATOM     19  C   UNL     1      33.805 -21.314 -18.241  0.00  0.00    +0.037 C 
ATOM     20  C   UNL     1      35.072 -21.620 -17.745  0.00  0.00    +0.147 C 
BRANCH  20  21
ATOM     21  O   UNL     1      35.203 -22.465 -16.685  0.00  0.00    -0.404 OA
BRANCH  21  25
ATOM     22  F   UNL     1      36.586 -20.853 -15.836  0.00  0.00    -0.133 F 
ATOM     23  F   UNL     1      37.033 -22.959 -15.460  0.00  0.00    -0.133 F 
ATOM     24  F   UNL     1      35.337 -22.029 -14.443  0.00  0.00    -0.133 F 
ATOM     25  C   UNL     1      36.032 -22.061 -15.601  0.00  0.00    +0.575 C 
ENDBRANCH  21  25
ENDBRANCH  20  21
ENDBRANCH  14  15
ENDBRANCH   1  14
TORSDOF 5
ENDMDL
