MODEL 1
REMARK VINA RESULT:     -12.0      0.000      0.000
REMARK  Name = 9562794
REMARK  7 active torsions:
REMARK  status: ('A' for Active; 'I' for Inactive)
REMARK    1  A    between atoms: N_1  and  C_2
REMARK    2  A    between atoms: N_1  and  N_16
REMARK    3  A    between atoms: C_2  and  C_5
REMARK    4  A    between atoms: C_6  and  O_13
REMARK    5  A    between atoms: C_17  and  C_19
REMARK    6  A    between atoms: C_22  and  O_25
REMARK    7  A    between atoms: C_23  and  O_27
REMARK                            x       y       z     vdW  Elec       q    Type
REMARK                         _______ _______ _______ _____ _____    ______ ____
ROOT
ATOM      1  N   UNL     1      37.258 -20.708 -16.483  0.00  0.00    -0.126 NA
ENDROOT
BRANCH   1   3
ATOM      2  O   UNL     1      38.741 -22.592 -15.165  0.00  0.00    -0.269 OA
ATOM      3  N   UNL     1      36.820 -21.313 -15.354  0.00  0.00    -0.228 N 
ATOM      4  C   UNL     1      37.634 -22.255 -14.753  0.00  0.00    +0.260 C 
ATOM      5  H   UNL     1      35.942 -21.089 -14.971  0.00  0.00    +0.171 HD
BRANCH   4   6
ATOM      6  C   UNL     1      37.086 -22.896 -13.530  0.00  0.00    +0.058 C 
ATOM      7  C   UNL     1      35.725 -23.106 -13.442  0.00  0.00    +0.044 C 
ATOM      8  C   UNL     1      37.954 -23.260 -12.522  0.00  0.00    +0.008 C 
ATOM      9  C   UNL     1      35.209 -23.707 -12.292  0.00  0.00    +0.168 C 
ATOM     10  C   UNL     1      36.066 -24.084 -11.259  0.00  0.00    +0.167 C 
ATOM     11  C   UNL     1      37.438 -23.861 -11.373  0.00  0.00    +0.040 C 
BRANCH   9  12
ATOM     12  O   UNL     1      33.868 -23.919 -12.192  0.00  0.00    -0.503 OA
ATOM     13  H   UNL     1      33.348 -24.005 -12.967  0.00  0.00    +0.292 HD
ENDBRANCH   9  12
BRANCH  10  14
ATOM     14  O   UNL     1      35.575 -24.671 -10.132  0.00  0.00    -0.503 OA
ATOM     15  H   UNL     1      35.777 -25.567  -9.946  0.00  0.00    +0.292 HD
ENDBRANCH  10  14
ENDBRANCH   4   6
ENDBRANCH   1   3
BRANCH   1  16
ATOM     16  C   UNL     1      36.912 -21.308 -17.582  0.00  0.00    +0.141 C 
BRANCH  16  19
ATOM     17  C   UNL     1      35.740 -20.007 -19.370  0.00  0.00    +0.000 C 
ATOM     18  C   UNL     1      34.543 -19.693 -20.057  0.00  0.00    -0.000 C 
ATOM     19  C   UNL     1      35.705 -20.946 -18.326  0.00  0.00    +0.031 C 
ATOM     20  C   UNL     1      34.509 -21.566 -17.965  0.00  0.00    +0.136 C 
ATOM     21  C   UNL     1      33.348 -20.326 -19.680  0.00  0.00    +0.003 C 
ATOM     22  C   UNL     1      36.935 -19.374 -19.746  0.00  0.00    -0.000 C 
ATOM     23  C   UNL     1      33.332 -21.256 -18.641  0.00  0.00    +0.037 C 
ATOM     24  C   UNL     1      34.577 -18.753 -21.100  0.00  0.00    -0.000 C 
ATOM     25  C   UNL     1      36.951 -18.443 -20.785  0.00  0.00    -0.000 C 
ATOM     26  C   UNL     1      35.774 -18.132 -21.461  0.00  0.00    -0.000 C 
BRANCH  20  27
ATOM     27  O   UNL     1      34.466 -22.479 -16.953  0.00  0.00    -0.472 OA
ATOM     28  C   UNL     1      33.196 -22.716 -16.348  0.00  0.00    +0.252 C 
ENDBRANCH  20  27
ENDBRANCH  16  19
ENDBRANCH   1  16
TORSDOF 7
ENDMDL
MODEL 2
REMARK VINA RESULT:     -11.0      3.881      8.999
REMARK  Name = 9562794
REMARK  7 active torsions:
REMARK  status: ('A' for Active; 'I' for Inactive)
REMARK    1  A    between atoms: N_1  and  C_2
REMARK    2  A    between atoms: N_1  and  N_16
REMARK    3  A    between atoms: C_2  and  C_5
REMARK    4  A    between atoms: C_6  and  O_13
REMARK    5  A    between atoms: C_17  and  C_19
REMARK    6  A    between atoms: C_22  and  O_25
REMARK    7  A    between atoms: C_23  and  O_27
REMARK                            x       y       z     vdW  Elec       q    Type
REMARK                         _______ _______ _______ _____ _____    ______ ____
ROOT
ATOM      1  N   UNL     1      36.690 -18.936 -19.424  0.00  0.00    -0.126 NA
ENDROOT
BRANCH   1   3
ATOM      2  O   UNL     1      35.592 -16.448 -19.726  0.00  0.00    -0.269 OA
ATOM      3  N   UNL     1      36.283 -18.466 -20.627  0.00  0.00    -0.228 N 
ATOM      4  C   UNL     1      35.738 -17.197 -20.688  0.00  0.00    +0.260 C 
ATOM      5  H   UNL     1      36.373 -19.016 -21.438  0.00  0.00    +0.171 HD
BRANCH   4   6
ATOM      6  C   UNL     1      35.292 -16.751 -22.034  0.00  0.00    +0.058 C 
ATOM      7  C   UNL     1      34.840 -17.695 -22.932  0.00  0.00    +0.044 C 
ATOM      8  C   UNL     1      35.346 -15.408 -22.341  0.00  0.00    +0.008 C 
ATOM      9  C   UNL     1      34.423 -17.276 -24.197  0.00  0.00    +0.168 C 
ATOM     10  C   UNL     1      34.468 -15.923 -24.533  0.00  0.00    +0.167 C 
ATOM     11  C   UNL     1      34.929 -14.989 -23.605  0.00  0.00    +0.040 C 
BRANCH   9  12
ATOM     12  O   UNL     1      33.975 -18.198 -25.094  0.00  0.00    -0.503 OA
ATOM     13  H   UNL     1      34.365 -19.049 -25.125  0.00  0.00    +0.292 HD
ENDBRANCH   9  12
BRANCH  10  14
ATOM     14  O   UNL     1      34.064 -15.502 -25.763  0.00  0.00    -0.503 OA
ATOM     15  H   UNL     1      33.150 -15.410 -25.949  0.00  0.00    +0.292 HD
ENDBRANCH  10  14
ENDBRANCH   4   6
ENDBRANCH   1   3
BRANCH   1  16
ATOM     16  C   UNL     1      36.652 -20.229 -19.312  0.00  0.00    +0.141 C 
BRANCH  16  19
ATOM     17  C   UNL     1      36.070 -21.440 -17.200  0.00  0.00    +0.000 C 
ATOM     18  C   UNL     1      35.100 -22.092 -16.402  0.00  0.00    -0.000 C 
ATOM     19  C   UNL     1      35.691 -20.913 -18.447  0.00  0.00    +0.031 C 
ATOM     20  C   UNL     1      34.376 -21.029 -18.898  0.00  0.00    +0.136 C 
ATOM     21  C   UNL     1      33.781 -22.199 -16.873  0.00  0.00    +0.003 C 
ATOM     22  C   UNL     1      37.388 -21.332 -16.730  0.00  0.00    -0.000 C 
ATOM     23  C   UNL     1      33.423 -21.671 -18.114  0.00  0.00    +0.037 C 
ATOM     24  C   UNL     1      35.478 -22.619 -15.157  0.00  0.00    -0.000 C 
ATOM     25  C   UNL     1      37.747 -21.861 -15.489  0.00  0.00    -0.000 C 
ATOM     26  C   UNL     1      36.793 -22.504 -14.704  0.00  0.00    -0.000 C 
BRANCH  20  27
ATOM     27  O   UNL     1      34.000 -20.521 -20.107  0.00  0.00    -0.472 OA
ATOM     28  C   UNL     1      32.843 -19.687 -20.127  0.00  0.00    +0.252 C 
ENDBRANCH  20  27
ENDBRANCH  16  19
ENDBRANCH   1  16
TORSDOF 7
ENDMDL
MODEL 3
REMARK VINA RESULT:     -10.3      3.517      6.367
REMARK  Name = 9562794
REMARK  7 active torsions:
REMARK  status: ('A' for Active; 'I' for Inactive)
REMARK    1  A    between atoms: N_1  and  C_2
REMARK    2  A    between atoms: N_1  and  N_16
REMARK    3  A    between atoms: C_2  and  C_5
REMARK    4  A    between atoms: C_6  and  O_13
REMARK    5  A    between atoms: C_17  and  C_19
REMARK    6  A    between atoms: C_22  and  O_25
REMARK    7  A    between atoms: C_23  and  O_27
REMARK                            x       y       z     vdW  Elec       q    Type
REMARK                         _______ _______ _______ _____ _____    ______ ____
ROOT
ATOM      1  N   UNL     1      33.784 -23.192 -13.530  0.00  0.00    -0.126 NA
ENDROOT
BRANCH   1   3
ATOM      2  O   UNL     1      31.658 -24.897 -13.771  0.00  0.00    -0.269 OA
ATOM      3  N   UNL     1      32.581 -22.786 -14.001  0.00  0.00    -0.228 N 
ATOM      4  C   UNL     1      31.561 -23.715 -14.091  0.00  0.00    +0.260 C 
ATOM      5  H   UNL     1      32.436 -21.852 -14.274  0.00  0.00    +0.171 HD
BRANCH   4   6
ATOM      6  C   UNL     1      30.274 -23.210 -14.635  0.00  0.00    +0.058 C 
ATOM      7  C   UNL     1      29.605 -23.969 -15.574  0.00  0.00    +0.044 C 
ATOM      8  C   UNL     1      29.790 -22.000 -14.185  0.00  0.00    +0.008 C 
ATOM      9  C   UNL     1      28.397 -23.494 -16.087  0.00  0.00    +0.168 C 
ATOM     10  C   UNL     1      27.886 -22.272 -15.648  0.00  0.00    +0.167 C 
ATOM     11  C   UNL     1      28.582 -21.525 -14.698  0.00  0.00    +0.040 C 
BRANCH   9  12
ATOM     12  O   UNL     1      27.727 -24.232 -17.015  0.00  0.00    -0.503 OA
ATOM     13  H   UNL     1      27.919 -25.143 -17.116  0.00  0.00    +0.292 HD
ENDBRANCH   9  12
BRANCH  10  14
ATOM     14  O   UNL     1      26.708 -21.798 -16.141  0.00  0.00    -0.503 OA
ATOM     15  H   UNL     1      26.447 -22.012 -17.015  0.00  0.00    +0.292 HD
ENDBRANCH  10  14
ENDBRANCH   4   6
ENDBRANCH   1   3
BRANCH   1  16
ATOM     16  C   UNL     1      34.585 -23.662 -14.439  0.00  0.00    +0.141 C 
BRANCH  16  19
ATOM     17  C   UNL     1      35.111 -22.236 -16.427  0.00  0.00    +0.000 C 
ATOM     18  C   UNL     1      36.029 -21.414 -17.123  0.00  0.00    -0.000 C 
ATOM     19  C   UNL     1      35.493 -22.805 -15.201  0.00  0.00    +0.031 C 
ATOM     20  C   UNL     1      36.762 -22.568 -14.671  0.00  0.00    +0.136 C 
ATOM     21  C   UNL     1      37.301 -21.186 -16.574  0.00  0.00    +0.003 C 
ATOM     22  C   UNL     1      33.839 -22.463 -16.975  0.00  0.00    -0.000 C 
ATOM     23  C   UNL     1      37.664 -21.761 -15.356  0.00  0.00    +0.037 C 
ATOM     24  C   UNL     1      35.647 -20.845 -18.349  0.00  0.00    -0.000 C 
ATOM     25  C   UNL     1      33.476 -21.890 -18.194  0.00  0.00    -0.000 C 
ATOM     26  C   UNL     1      34.378 -21.082 -18.881  0.00  0.00    -0.000 C 
BRANCH  20  27
ATOM     27  O   UNL     1      37.141 -23.117 -13.481  0.00  0.00    -0.472 OA
ATOM     28  C   UNL     1      38.173 -24.100 -13.522  0.00  0.00    +0.252 C 
ENDBRANCH  20  27
ENDBRANCH  16  19
ENDBRANCH   1  16
TORSDOF 7
ENDMDL
MODEL 4
REMARK VINA RESULT:     -10.2      2.699      8.239
REMARK  Name = 9562794
REMARK  7 active torsions:
REMARK  status: ('A' for Active; 'I' for Inactive)
REMARK    1  A    between atoms: N_1  and  C_2
REMARK    2  A    between atoms: N_1  and  N_16
REMARK    3  A    between atoms: C_2  and  C_5
REMARK    4  A    between atoms: C_6  and  O_13
REMARK    5  A    between atoms: C_17  and  C_19
REMARK    6  A    between atoms: C_22  and  O_25
REMARK    7  A    between atoms: C_23  and  O_27
REMARK                            x       y       z     vdW  Elec       q    Type
REMARK                         _______ _______ _______ _____ _____    ______ ____
ROOT
ATOM      1  N   UNL     1      36.352 -22.044 -16.754  0.00  0.00    -0.126 NA
ENDROOT
BRANCH   1   3
ATOM      2  O   UNL     1      34.875 -21.997 -19.056  0.00  0.00    -0.269 OA
ATOM      3  N   UNL     1      36.432 -21.027 -17.644  0.00  0.00    -0.228 N 
ATOM      4  C   UNL     1      35.650 -21.085 -18.782  0.00  0.00    +0.260 C 
ATOM      5  H   UNL     1      37.034 -20.264 -17.485  0.00  0.00    +0.171 HD
BRANCH   4   6
ATOM      6  C   UNL     1      35.801 -19.948 -19.728  0.00  0.00    +0.058 C 
ATOM      7  C   UNL     1      37.071 -19.512 -20.046  0.00  0.00    +0.044 C 
ATOM      8  C   UNL     1      34.668 -19.366 -20.256  0.00  0.00    +0.008 C 
ATOM      9  C   UNL     1      37.213 -18.444 -20.933  0.00  0.00    +0.168 C 
ATOM     10  C   UNL     1      36.083 -17.837 -21.481  0.00  0.00    +0.167 C 
ATOM     11  C   UNL     1      34.810 -18.298 -21.142  0.00  0.00    +0.040 C 
BRANCH   9  12
ATOM     12  O   UNL     1      38.461 -18.002 -21.256  0.00  0.00    -0.503 OA
ATOM     13  H   UNL     1      38.952 -17.496 -20.640  0.00  0.00    +0.292 HD
ENDBRANCH   9  12
BRANCH  10  14
ATOM     14  O   UNL     1      36.208 -16.794 -22.347  0.00  0.00    -0.503 OA
ATOM     15  H   UNL     1      35.845 -15.958 -22.129  0.00  0.00    +0.292 HD
ENDBRANCH  10  14
ENDBRANCH   4   6
ENDBRANCH   1   3
BRANCH   1  16
ATOM     16  C   UNL     1      37.050 -21.866 -15.672  0.00  0.00    +0.141 C 
BRANCH  16  19
ATOM     17  C   UNL     1      38.108 -23.616 -14.230  0.00  0.00    +0.000 C 
ATOM     18  C   UNL     1      38.015 -24.505 -13.133  0.00  0.00    -0.000 C 
ATOM     19  C   UNL     1      37.008 -22.804 -14.550  0.00  0.00    +0.031 C 
ATOM     20  C   UNL     1      35.833 -22.869 -13.801  0.00  0.00    +0.136 C 
ATOM     21  C   UNL     1      36.824 -24.558 -12.390  0.00  0.00    +0.003 C 
ATOM     22  C   UNL     1      39.298 -23.563 -14.972  0.00  0.00    -0.000 C 
ATOM     23  C   UNL     1      35.741 -23.745 -12.724  0.00  0.00    +0.037 C 
ATOM     24  C   UNL     1      39.114 -25.318 -12.813  0.00  0.00    -0.000 C 
ATOM     25  C   UNL     1      40.382 -24.377 -14.640  0.00  0.00    -0.000 C 
ATOM     26  C   UNL     1      40.290 -25.254 -13.562  0.00  0.00    -0.000 C 
BRANCH  20  27
ATOM     27  O   UNL     1      34.759 -22.084 -14.105  0.00  0.00    -0.472 OA
ATOM     28  C   UNL     1      33.564 -22.750 -14.505  0.00  0.00    +0.252 C 
ENDBRANCH  20  27
ENDBRANCH  16  19
ENDBRANCH   1  16
TORSDOF 7
ENDMDL
MODEL 5
REMARK VINA RESULT:     -10.2      3.250      8.047
REMARK  Name = 9562794
REMARK  7 active torsions:
REMARK  status: ('A' for Active; 'I' for Inactive)
REMARK    1  A    between atoms: N_1  and  C_2
REMARK    2  A    between atoms: N_1  and  N_16
REMARK    3  A    between atoms: C_2  and  C_5
REMARK    4  A    between atoms: C_6  and  O_13
REMARK    5  A    between atoms: C_17  and  C_19
REMARK    6  A    between atoms: C_22  and  O_25
REMARK    7  A    between atoms: C_23  and  O_27
REMARK                            x       y       z     vdW  Elec       q    Type
REMARK                         _______ _______ _______ _____ _____    ______ ____
ROOT
ATOM      1  N   UNL     1      32.729 -21.527 -17.988  0.00  0.00    -0.126 NA
ENDROOT
BRANCH   1   3
ATOM      2  O   UNL     1      32.610 -19.930 -20.205  0.00  0.00    -0.269 OA
ATOM      3  N   UNL     1      33.824 -20.916 -18.498  0.00  0.00    -0.228 N 
ATOM      4  C   UNL     1      33.673 -20.126 -19.623  0.00  0.00    +0.260 C 
ATOM      5  H   UNL     1      34.707 -21.031 -18.078  0.00  0.00    +0.171 HD
BRANCH   4   6
ATOM      6  C   UNL     1      34.917 -19.500 -20.144  0.00  0.00    +0.058 C 
ATOM      7  C   UNL     1      34.823 -18.604 -21.189  0.00  0.00    +0.044 C 
ATOM      8  C   UNL     1      36.123 -19.837 -19.567  0.00  0.00    +0.008 C 
ATOM      9  C   UNL     1      35.991 -18.018 -21.680  0.00  0.00    +0.168 C 
ATOM     10  C   UNL     1      37.224 -18.341 -21.114  0.00  0.00    +0.167 C 
ATOM     11  C   UNL     1      37.291 -19.250 -20.058  0.00  0.00    +0.040 C 
BRANCH   9  12
ATOM     12  O   UNL     1      35.913 -17.132 -22.711  0.00  0.00    -0.503 OA
ATOM     13  H   UNL     1      36.122 -17.407 -23.582  0.00  0.00    +0.292 HD
ENDBRANCH   9  12
BRANCH  10  14
ATOM     14  O   UNL     1      38.370 -17.776 -21.584  0.00  0.00    -0.503 OA
ATOM     15  H   UNL     1      39.064 -17.562 -20.991  0.00  0.00    +0.292 HD
ENDBRANCH  10  14
ENDBRANCH   4   6
ENDBRANCH   1   3
BRANCH   1  16
ATOM     16  C   UNL     1      32.987 -22.588 -17.284  0.00  0.00    +0.141 C 
BRANCH  16  19
ATOM     17  C   UNL     1      33.629 -23.006 -14.901  0.00  0.00    +0.000 C 
ATOM     18  C   UNL     1      33.256 -23.086 -13.539  0.00  0.00    -0.000 C 
ATOM     19  C   UNL     1      32.656 -22.684 -15.862  0.00  0.00    +0.031 C 
ATOM     20  C   UNL     1      31.335 -22.445 -15.484  0.00  0.00    +0.136 C 
ATOM     21  C   UNL     1      31.920 -22.842 -13.177  0.00  0.00    +0.003 C 
ATOM     22  C   UNL     1      34.963 -23.250 -15.263  0.00  0.00    -0.000 C 
ATOM     23  C   UNL     1      30.967 -22.525 -14.145  0.00  0.00    +0.037 C 
ATOM     24  C   UNL     1      34.227 -23.409 -12.578  0.00  0.00    -0.000 C 
ATOM     25  C   UNL     1      35.917 -23.569 -14.296  0.00  0.00    -0.000 C 
ATOM     26  C   UNL     1      35.550 -23.648 -12.955  0.00  0.00    -0.000 C 
BRANCH  20  27
ATOM     27  O   UNL     1      30.384 -22.132 -16.410  0.00  0.00    -0.472 OA
ATOM     28  C   UNL     1      29.028 -22.404 -16.063  0.00  0.00    +0.252 C 
ENDBRANCH  20  27
ENDBRANCH  16  19
ENDBRANCH   1  16
TORSDOF 7
ENDMDL
MODEL 6
REMARK VINA RESULT:     -10.1      3.212      8.305
REMARK  Name = 9562794
REMARK  7 active torsions:
REMARK  status: ('A' for Active; 'I' for Inactive)
REMARK    1  A    between atoms: N_1  and  C_2
REMARK    2  A    between atoms: N_1  and  N_16
REMARK    3  A    between atoms: C_2  and  C_5
REMARK    4  A    between atoms: C_6  and  O_13
REMARK    5  A    between atoms: C_17  and  C_19
REMARK    6  A    between atoms: C_22  and  O_25
REMARK    7  A    between atoms: C_23  and  O_27
REMARK                            x       y       z     vdW  Elec       q    Type
REMARK                         _______ _______ _______ _____ _____    ______ ____
ROOT
ATOM      1  N   UNL     1      32.794 -21.545 -17.877  0.00  0.00    -0.126 NA
ENDROOT
BRANCH   1   3
ATOM      2  O   UNL     1      32.534 -20.112 -20.193  0.00  0.00    -0.269 OA
ATOM      3  N   UNL     1      33.835 -20.888 -18.442  0.00  0.00    -0.228 N 
ATOM      4  C   UNL     1      33.614 -20.189 -19.614  0.00  0.00    +0.260 C 
ATOM      5  H   UNL     1      34.727 -20.908 -18.028  0.00  0.00    +0.171 HD
BRANCH   4   6
ATOM      6  C   UNL     1      34.802 -19.508 -20.192  0.00  0.00    +0.058 C 
ATOM      7  C   UNL     1      34.629 -18.686 -21.287  0.00  0.00    +0.044 C 
ATOM      8  C   UNL     1      36.037 -19.721 -19.618  0.00  0.00    +0.008 C 
ATOM      9  C   UNL     1      35.744 -18.047 -21.831  0.00  0.00    +0.168 C 
ATOM     10  C   UNL     1      37.005 -18.246 -21.269  0.00  0.00    +0.167 C 
ATOM     11  C   UNL     1      37.152 -19.082 -20.163  0.00  0.00    +0.040 C 
BRANCH   9  12
ATOM     12  O   UNL     1      35.589 -17.233 -22.912  0.00  0.00    -0.503 OA
ATOM     13  H   UNL     1      34.777 -17.225 -23.379  0.00  0.00    +0.292 HD
ENDBRANCH   9  12
BRANCH  10  14
ATOM     14  O   UNL     1      38.101 -17.629 -21.792  0.00  0.00    -0.503 OA
ATOM     15  H   UNL     1      38.313 -17.740 -22.698  0.00  0.00    +0.292 HD
ENDBRANCH  10  14
ENDBRANCH   4   6
ENDBRANCH   1   3
BRANCH   1  16
ATOM     16  C   UNL     1      33.101 -22.702 -17.372  0.00  0.00    +0.141 C 
BRANCH  16  19
ATOM     17  C   UNL     1      32.406 -23.230 -15.027  0.00  0.00    +0.000 C 
ATOM     18  C   UNL     1      32.753 -23.392 -13.665  0.00  0.00    -0.000 C 
ATOM     19  C   UNL     1      33.403 -22.882 -15.953  0.00  0.00    +0.031 C 
ATOM     20  C   UNL     1      34.723 -22.698 -15.541  0.00  0.00    +0.136 C 
ATOM     21  C   UNL     1      34.087 -23.202 -13.268  0.00  0.00    +0.003 C 
ATOM     22  C   UNL     1      31.073 -23.420 -15.424  0.00  0.00    -0.000 C 
ATOM     23  C   UNL     1      35.064 -22.856 -14.201  0.00  0.00    +0.037 C 
ATOM     24  C   UNL     1      31.756 -23.738 -12.739  0.00  0.00    -0.000 C 
ATOM     25  C   UNL     1      30.094 -23.765 -14.491  0.00  0.00    -0.000 C 
ATOM     26  C   UNL     1      30.435 -23.924 -13.150  0.00  0.00    -0.000 C 
BRANCH  20  27
ATOM     27  O   UNL     1      35.699 -22.360 -16.432  0.00  0.00    -0.472 OA
ATOM     28  C   UNL     1      36.730 -21.492 -15.967  0.00  0.00    +0.252 C 
ENDBRANCH  20  27
ENDBRANCH  16  19
ENDBRANCH   1  16
TORSDOF 7
ENDMDL
MODEL 7
REMARK VINA RESULT:     -10.0      9.239     12.848
REMARK  Name = 9562794
REMARK  7 active torsions:
REMARK  status: ('A' for Active; 'I' for Inactive)
REMARK    1  A    between atoms: N_1  and  C_2
REMARK    2  A    between atoms: N_1  and  N_16
REMARK    3  A    between atoms: C_2  and  C_5
REMARK    4  A    between atoms: C_6  and  O_13
REMARK    5  A    between atoms: C_17  and  C_19
REMARK    6  A    between atoms: C_22  and  O_25
REMARK    7  A    between atoms: C_23  and  O_27
REMARK                            x       y       z     vdW  Elec       q    Type
REMARK                         _______ _______ _______ _____ _____    ______ ____
ROOT
ATOM      1  N   UNL     1      34.204 -10.439 -23.568  0.00  0.00    -0.126 NA
ENDROOT
BRANCH   1   3
ATOM      2  O   UNL     1      33.498 -12.999 -24.226  0.00  0.00    -0.269 OA
ATOM      3  N   UNL     1      34.569 -11.505 -22.818  0.00  0.00    -0.228 N 
ATOM      4  C   UNL     1      34.168 -12.764 -23.224  0.00  0.00    +0.260 C 
ATOM      5  H   UNL     1      35.108 -11.386 -22.003  0.00  0.00    +0.171 HD
BRANCH   4   6
ATOM      6  C   UNL     1      34.585 -13.889 -22.346  0.00  0.00    +0.058 C 
ATOM      7  C   UNL     1      35.160 -15.003 -22.920  0.00  0.00    +0.044 C 
ATOM      8  C   UNL     1      34.381 -13.782 -20.986  0.00  0.00    +0.008 C 
ATOM      9  C   UNL     1      35.550 -16.060 -22.095  0.00  0.00    +0.168 C 
ATOM     10  C   UNL     1      35.355 -15.977 -20.717  0.00  0.00    +0.167 C 
ATOM     11  C   UNL     1      34.771 -14.839 -20.161  0.00  0.00    +0.040 C 
BRANCH   9  12
ATOM     12  O   UNL     1      36.119 -17.167 -22.649  0.00  0.00    -0.503 OA
ATOM     13  H   UNL     1      36.389 -17.156 -23.546  0.00  0.00    +0.292 HD
ENDBRANCH   9  12
BRANCH  10  14
ATOM     14  O   UNL     1      35.731 -17.001 -19.902  0.00  0.00    -0.503 OA
ATOM     15  H   UNL     1      35.199 -17.233 -19.165  0.00  0.00    +0.292 HD
ENDBRANCH  10  14
ENDBRANCH   4   6
ENDBRANCH   1   3
BRANCH   1  16
ATOM     16  C   UNL     1      33.075  -9.900 -23.220  0.00  0.00    +0.141 C 
BRANCH  16  19
ATOM     17  C   UNL     1      32.385  -9.593 -20.834  0.00  0.00    +0.000 C 
ATOM     18  C   UNL     1      32.275  -8.754 -19.699  0.00  0.00    -0.000 C 
ATOM     19  C   UNL     1      32.937  -9.077 -22.018  0.00  0.00    +0.031 C 
ATOM     20  C   UNL     1      33.374  -7.754 -22.083  0.00  0.00    +0.136 C 
ATOM     21  C   UNL     1      32.720  -7.424 -19.783  0.00  0.00    +0.003 C 
ATOM     22  C   UNL     1      31.941 -10.922 -20.751  0.00  0.00    -0.000 C 
ATOM     23  C   UNL     1      33.265  -6.928 -20.967  0.00  0.00    +0.037 C 
ATOM     24  C   UNL     1      31.723  -9.268 -18.516  0.00  0.00    -0.000 C 
ATOM     25  C   UNL     1      31.395 -11.418 -19.566  0.00  0.00    -0.000 C 
ATOM     26  C   UNL     1      31.285 -10.592 -18.450  0.00  0.00    -0.000 C 
BRANCH  20  27
ATOM     27  O   UNL     1      33.911  -7.245 -23.228  0.00  0.00    -0.472 OA
ATOM     28  C   UNL     1      33.202  -6.180 -23.858  0.00  0.00    +0.252 C 
ENDBRANCH  20  27
ENDBRANCH  16  19
ENDBRANCH   1  16
TORSDOF 7
ENDMDL
MODEL 8
REMARK VINA RESULT:     -10.0      3.214      8.057
REMARK  Name = 9562794
REMARK  7 active torsions:
REMARK  status: ('A' for Active; 'I' for Inactive)
REMARK    1  A    between atoms: N_1  and  C_2
REMARK    2  A    between atoms: N_1  and  N_16
REMARK    3  A    between atoms: C_2  and  C_5
REMARK    4  A    between atoms: C_6  and  O_13
REMARK    5  A    between atoms: C_17  and  C_19
REMARK    6  A    between atoms: C_22  and  O_25
REMARK    7  A    between atoms: C_23  and  O_27
REMARK                            x       y       z     vdW  Elec       q    Type
REMARK                         _______ _______ _______ _____ _____    ______ ____
ROOT
ATOM      1  N   UNL     1      34.003 -22.683 -17.030  0.00  0.00    -0.126 NA
ENDROOT
BRANCH   1   3
ATOM      2  O   UNL     1      32.875 -21.314 -19.112  0.00  0.00    -0.269 OA
ATOM      3  N   UNL     1      34.704 -21.799 -17.778  0.00  0.00    -0.228 N 
ATOM      4  C   UNL     1      34.055 -21.151 -18.812  0.00  0.00    +0.260 C 
ATOM      5  H   UNL     1      35.654 -21.621 -17.590  0.00  0.00    +0.171 HD
BRANCH   4   6
ATOM      6  C   UNL     1      34.886 -20.209 -19.607  0.00  0.00    +0.058 C 
ATOM      7  C   UNL     1      34.303 -19.532 -20.658  0.00  0.00    +0.044 C 
ATOM      8  C   UNL     1      36.212 -20.043 -19.268  0.00  0.00    +0.008 C 
ATOM      9  C   UNL     1      35.084 -18.649 -21.406  0.00  0.00    +0.168 C 
ATOM     10  C   UNL     1      36.428 -18.463 -21.084  0.00  0.00    +0.167 C 
ATOM     11  C   UNL     1      36.993 -19.160 -20.016  0.00  0.00    +0.040 C 
BRANCH   9  12
ATOM     12  O   UNL     1      34.521 -17.974 -22.447  0.00  0.00    -0.503 OA
ATOM     13  H   UNL     1      34.380 -17.051 -22.385  0.00  0.00    +0.292 HD
ENDBRANCH   9  12
BRANCH  10  14
ATOM     14  O   UNL     1      37.200 -17.604 -21.806  0.00  0.00    -0.503 OA
ATOM     15  H   UNL     1      38.032 -17.885 -22.133  0.00  0.00    +0.292 HD
ENDBRANCH  10  14
ENDBRANCH   4   6
ENDBRANCH   1   3
BRANCH   1  16
ATOM     16  C   UNL     1      33.617 -22.224 -15.878  0.00  0.00    +0.141 C 
BRANCH  16  19
ATOM     17  C   UNL     1      31.365 -23.006 -15.116  0.00  0.00    +0.000 C 
ATOM     18  C   UNL     1      30.585 -23.768 -14.215  0.00  0.00    -0.000 C 
ATOM     19  C   UNL     1      32.763 -22.994 -14.974  0.00  0.00    +0.031 C 
ATOM     20  C   UNL     1      33.381 -23.723 -13.958  0.00  0.00    +0.136 C 
ATOM     21  C   UNL     1      31.225 -24.495 -13.197  0.00  0.00    +0.003 C 
ATOM     22  C   UNL     1      30.726 -22.278 -16.133  0.00  0.00    -0.000 C 
ATOM     23  C   UNL     1      32.613 -24.472 -13.071  0.00  0.00    +0.037 C 
ATOM     24  C   UNL     1      29.188 -23.779 -14.355  0.00  0.00    -0.000 C 
ATOM     25  C   UNL     1      29.337 -22.301 -16.260  0.00  0.00    -0.000 C 
ATOM     26  C   UNL     1      28.568 -23.050 -15.372  0.00  0.00    -0.000 C 
BRANCH  20  27
ATOM     27  O   UNL     1      34.737 -23.718 -13.813  0.00  0.00    -0.472 OA
ATOM     28  C   UNL     1      35.245 -23.635 -12.483  0.00  0.00    +0.252 C 
ENDBRANCH  20  27
ENDBRANCH  16  19
ENDBRANCH   1  16
TORSDOF 7
ENDMDL
MODEL 9
REMARK VINA RESULT:      -9.8      3.590      7.470
REMARK  Name = 9562794
REMARK  7 active torsions:
REMARK  status: ('A' for Active; 'I' for Inactive)
REMARK    1  A    between atoms: N_1  and  C_2
REMARK    2  A    between atoms: N_1  and  N_16
REMARK    3  A    between atoms: C_2  and  C_5
REMARK    4  A    between atoms: C_6  and  O_13
REMARK    5  A    between atoms: C_17  and  C_19
REMARK    6  A    between atoms: C_22  and  O_25
REMARK    7  A    between atoms: C_23  and  O_27
REMARK                            x       y       z     vdW  Elec       q    Type
REMARK                         _______ _______ _______ _____ _____    ______ ____
ROOT
ATOM      1  N   UNL     1      33.724 -23.489 -13.214  0.00  0.00    -0.126 NA
ENDROOT
BRANCH   1   3
ATOM      2  O   UNL     1      31.525 -25.073 -13.584  0.00  0.00    -0.269 OA
ATOM      3  N   UNL     1      32.579 -23.020 -13.762  0.00  0.00    -0.228 N 
ATOM      4  C   UNL     1      31.516 -23.890 -13.913  0.00  0.00    +0.260 C 
ATOM      5  H   UNL     1      32.505 -22.080 -14.047  0.00  0.00    +0.171 HD
BRANCH   4   6
ATOM      6  C   UNL     1      30.296 -23.317 -14.540  0.00  0.00    +0.058 C 
ATOM      7  C   UNL     1      29.620 -24.063 -15.484  0.00  0.00    +0.044 C 
ATOM      8  C   UNL     1      29.880 -22.059 -14.160  0.00  0.00    +0.008 C 
ATOM      9  C   UNL     1      28.476 -23.525 -16.074  0.00  0.00    +0.168 C 
ATOM     10  C   UNL     1      28.034 -22.254 -15.706  0.00  0.00    +0.167 C 
ATOM     11  C   UNL     1      28.736 -21.520 -14.750  0.00  0.00    +0.040 C 
BRANCH   9  12
ATOM     12  O   UNL     1      27.799 -24.250 -17.007  0.00  0.00    -0.503 OA
ATOM     13  H   UNL     1      26.863 -24.215 -17.040  0.00  0.00    +0.292 HD
ENDBRANCH   9  12
BRANCH  10  14
ATOM     14  O   UNL     1      26.919 -21.717 -16.275  0.00  0.00    -0.503 OA
ATOM     15  H   UNL     1      26.602 -22.053 -17.091  0.00  0.00    +0.292 HD
ENDBRANCH  10  14
ENDBRANCH   4   6
ENDBRANCH   1   3
BRANCH   1  16
ATOM     16  C   UNL     1      34.504 -24.108 -14.049  0.00  0.00    +0.141 C 
BRANCH  16  19
ATOM     17  C   UNL     1      37.006 -24.049 -14.038  0.00  0.00    +0.000 C 
ATOM     18  C   UNL     1      38.209 -23.467 -14.503  0.00  0.00    -0.000 C 
ATOM     19  C   UNL     1      35.777 -23.544 -14.496  0.00  0.00    +0.031 C 
ATOM     20  C   UNL     1      35.737 -22.482 -15.399  0.00  0.00    +0.136 C 
ATOM     21  C   UNL     1      38.149 -22.398 -15.412  0.00  0.00    +0.003 C 
ATOM     22  C   UNL     1      37.066 -25.117 -13.130  0.00  0.00    -0.000 C 
ATOM     23  C   UNL     1      36.920 -21.909 -15.856  0.00  0.00    +0.037 C 
ATOM     24  C   UNL     1      39.437 -23.970 -14.044  0.00  0.00    -0.000 C 
ATOM     25  C   UNL     1      38.294 -25.606 -12.684  0.00  0.00    -0.000 C 
ATOM     26  C   UNL     1      39.479 -25.033 -13.141  0.00  0.00    -0.000 C 
BRANCH  20  27
ATOM     27  O   UNL     1      34.549 -21.986 -15.850  0.00  0.00    -0.472 OA
ATOM     28  C   UNL     1      34.292 -22.092 -17.248  0.00  0.00    +0.252 C 
ENDBRANCH  20  27
ENDBRANCH  16  19
ENDBRANCH   1  16
TORSDOF 7
ENDMDL
