MODEL 1
REMARK VINA RESULT:     -11.6      0.000      0.000
REMARK  Name = 71360
REMARK  8 active torsions:
REMARK  status: ('A' for Active; 'I' for Inactive)
REMARK    1  A    between atoms: N_1  and  C_18
REMARK    2  A    between atoms: C_2  and  C_11
REMARK    3  A    between atoms: C_18  and  C_19
REMARK    4  A    between atoms: C_19  and  C_20
REMARK    5  A    between atoms: C_20  and  O_21
REMARK    6  A    between atoms: O_21  and  C_22
REMARK    7  A    between atoms: C_23  and  O_31
REMARK    8  A    between atoms: C_27  and  C_29
REMARK                            x       y       z     vdW  Elec       q    Type
REMARK                         _______ _______ _______ _____ _____    ______ ____
ROOT
ATOM      1  N   UNL     1      34.159 -21.333 -18.244  0.00  0.00    +0.387 N 
ATOM      2  C   UNL     1      34.837 -19.507 -20.437  0.00  0.00    +0.039 C 
ATOM      3  C   UNL     1      35.864 -19.944 -19.381  0.00  0.00    -0.017 C 
ATOM      4  C   UNL     1      33.416 -19.611 -19.859  0.00  0.00    -0.017 C 
ATOM      5  C   UNL     1      35.517 -21.320 -18.805  0.00  0.00    -0.077 C 
ATOM      6  C   UNL     1      33.158 -20.999 -19.267  0.00  0.00    -0.077 C 
ATOM      7  H   UNL     1      34.113 -20.622 -17.514  0.00  0.00    -0.080 HD
ENDROOT
BRANCH   2  11
ATOM      8  F   UNL     1      34.675 -15.244 -25.636  0.00  0.00    -0.204 F 
ATOM      9  O   UNL     1      35.837 -16.099 -21.047  0.00  0.00    -0.354 OA
ATOM     10  N   UNL     1      35.703 -17.218 -20.235  0.00  0.00    -0.081 NA
ATOM     11  C   UNL     1      35.135 -18.139 -21.010  0.00  0.00    +0.100 A 
ATOM     12  C   UNL     1      34.880 -17.682 -22.311  0.00  0.00    +0.054 A 
ATOM     13  C   UNL     1      35.346 -16.379 -22.286  0.00  0.00    +0.179 A 
ATOM     14  C   UNL     1      34.327 -18.185 -23.498  0.00  0.00    +0.007 C 
ATOM     15  C   UNL     1      35.303 -15.510 -23.372  0.00  0.00    +0.070 C 
ATOM     16  C   UNL     1      34.269 -17.337 -24.613  0.00  0.00    +0.030 C 
ATOM     17  C   UNL     1      34.748 -16.024 -24.549  0.00  0.00    +0.143 C 
ENDBRANCH   2  11
BRANCH   1  18
ATOM     18  C   UNL     1      33.865 -22.637 -17.648  0.00  0.00    -0.074 C 
BRANCH  18  19
ATOM     19  C   UNL     1      32.821 -22.491 -16.547  0.00  0.00    +0.025 C 
BRANCH  19  20
ATOM     20  C   UNL     1      33.226 -23.248 -15.289  0.00  0.00    +0.203 C 
BRANCH  20  21
ATOM     21  O   UNL     1      34.288 -22.550 -14.654  0.00  0.00    -0.472 OA
BRANCH  21  22
ATOM     22  C   UNL     1      35.464 -23.234 -14.486  0.00  0.00    +0.172 C 
ATOM     23  C   UNL     1      36.674 -22.640 -14.827  0.00  0.00    +0.172 C 
ATOM     24  C   UNL     1      35.429 -24.526 -13.972  0.00  0.00    +0.040 C 
ATOM     25  C   UNL     1      37.864 -23.347 -14.650  0.00  0.00    +0.043 C 
ATOM     26  C   UNL     1      36.619 -25.232 -13.795  0.00  0.00    +0.006 C 
ATOM     27  C   UNL     1      37.836 -24.643 -14.135  0.00  0.00    +0.038 C 
BRANCH  27  29
ATOM     28  O   UNL     1      39.129 -26.616 -14.107  0.00  0.00    -0.291 OA
ATOM     29  C   UNL     1      39.077 -25.379 -13.951  0.00  0.00    +0.174 C 
ATOM     30  C   UNL     1      40.355 -24.645 -13.560  0.00  0.00    +0.077 C 
ENDBRANCH  27  29
BRANCH  23  31
ATOM     31  O   UNL     1      36.715 -21.375 -15.330  0.00  0.00    -0.468 OA
ATOM     32  C   UNL     1      37.857 -21.023 -16.107  0.00  0.00    +0.253 C 
ENDBRANCH  23  31
ENDBRANCH  21  22
ENDBRANCH  20  21
ENDBRANCH  19  20
ENDBRANCH  18  19
ENDBRANCH   1  18
TORSDOF 8
ENDMDL
MODEL 2
REMARK VINA RESULT:     -11.5      4.599     11.171
REMARK  Name = 71360
REMARK  8 active torsions:
REMARK  status: ('A' for Active; 'I' for Inactive)
REMARK    1  A    between atoms: N_1  and  C_18
REMARK    2  A    between atoms: C_2  and  C_11
REMARK    3  A    between atoms: C_18  and  C_19
REMARK    4  A    between atoms: C_19  and  C_20
REMARK    5  A    between atoms: C_20  and  O_21
REMARK    6  A    between atoms: O_21  and  C_22
REMARK    7  A    between atoms: C_23  and  O_31
REMARK    8  A    between atoms: C_27  and  C_29
REMARK                            x       y       z     vdW  Elec       q    Type
REMARK                         _______ _______ _______ _____ _____    ______ ____
ROOT
ATOM      1  N   UNL     1      35.412 -16.355 -23.717  0.00  0.00    +0.387 N 
ATOM      2  C   UNL     1      35.048 -17.996 -21.313  0.00  0.00    +0.039 C 
ATOM      3  C   UNL     1      35.856 -16.689 -21.305  0.00  0.00    -0.017 C 
ATOM      4  C   UNL     1      35.035 -18.593 -22.730  0.00  0.00    -0.017 C 
ATOM      5  C   UNL     1      35.366 -15.726 -22.390  0.00  0.00    -0.077 C 
ATOM      6  C   UNL     1      34.574 -17.562 -23.762  0.00  0.00    -0.077 C 
ATOM      7  H   UNL     1      36.376 -16.635 -23.900  0.00  0.00    -0.080 HD
ENDROOT
BRANCH   2  11
ATOM      8  F   UNL     1      33.665 -22.919 -16.945  0.00  0.00    -0.204 F 
ATOM      9  O   UNL     1      36.912 -20.012 -18.980  0.00  0.00    -0.354 OA
ATOM     10  N   UNL     1      36.812 -19.019 -19.946  0.00  0.00    -0.081 NA
ATOM     11  C   UNL     1      35.522 -18.982 -20.268  0.00  0.00    +0.100 A 
ATOM     12  C   UNL     1      34.751 -19.913 -19.557  0.00  0.00    +0.054 A 
ATOM     13  C   UNL     1      35.680 -20.544 -18.749  0.00  0.00    +0.179 A 
ATOM     14  C   UNL     1      33.406 -20.305 -19.484  0.00  0.00    +0.007 C 
ATOM     15  C   UNL     1      35.376 -21.562 -17.851  0.00  0.00    +0.070 C 
ATOM     16  C   UNL     1      33.063 -21.329 -18.588  0.00  0.00    +0.030 C 
ATOM     17  C   UNL     1      34.031 -21.944 -17.788  0.00  0.00    +0.143 C 
ENDBRANCH   2  11
BRANCH   1  18
ATOM     18  C   UNL     1      34.995 -15.404 -24.748  0.00  0.00    -0.074 C 
BRANCH  18  19
ATOM     19  C   UNL     1      33.588 -14.893 -24.459  0.00  0.00    +0.025 C 
BRANCH  19  20
ATOM     20  C   UNL     1      33.509 -13.377 -24.572  0.00  0.00    +0.203 C 
BRANCH  20  21
ATOM     21  O   UNL     1      34.207 -12.798 -23.478  0.00  0.00    -0.472 OA
BRANCH  21  22
ATOM     22  C   UNL     1      33.446 -12.301 -22.453  0.00  0.00    +0.172 C 
ATOM     23  C   UNL     1      33.109 -10.952 -22.421  0.00  0.00    +0.172 C 
ATOM     24  C   UNL     1      33.019 -13.160 -21.447  0.00  0.00    +0.040 C 
ATOM     25  C   UNL     1      32.334 -10.457 -21.372  0.00  0.00    +0.043 C 
ATOM     26  C   UNL     1      32.245 -12.666 -20.397  0.00  0.00    +0.006 C 
ATOM     27  C   UNL     1      31.903 -11.315 -20.359  0.00  0.00    +0.038 C 
BRANCH  27  29
ATOM     28  O   UNL     1      29.877 -10.566 -19.409  0.00  0.00    -0.291 OA
ATOM     29  C   UNL     1      31.094 -10.799 -19.265  0.00  0.00    +0.174 C 
ATOM     30  C   UNL     1      31.726 -10.532 -17.903  0.00  0.00    +0.077 C 
ENDBRANCH  27  29
BRANCH  23  31
ATOM     31  O   UNL     1      33.524 -10.105 -23.404  0.00  0.00    -0.468 OA
ATOM     32  C   UNL     1      33.097  -8.747 -23.312  0.00  0.00    +0.253 C 
ENDBRANCH  23  31
ENDBRANCH  21  22
ENDBRANCH  20  21
ENDBRANCH  19  20
ENDBRANCH  18  19
ENDBRANCH   1  18
TORSDOF 8
ENDMDL
MODEL 3
REMARK VINA RESULT:     -11.3      4.709     11.777
REMARK  Name = 71360
REMARK  8 active torsions:
REMARK  status: ('A' for Active; 'I' for Inactive)
REMARK    1  A    between atoms: N_1  and  C_18
REMARK    2  A    between atoms: C_2  and  C_11
REMARK    3  A    between atoms: C_18  and  C_19
REMARK    4  A    between atoms: C_19  and  C_20
REMARK    5  A    between atoms: C_20  and  O_21
REMARK    6  A    between atoms: O_21  and  C_22
REMARK    7  A    between atoms: C_23  and  O_31
REMARK    8  A    between atoms: C_27  and  C_29
REMARK                            x       y       z     vdW  Elec       q    Type
REMARK                         _______ _______ _______ _____ _____    ______ ____
ROOT
ATOM      1  N   UNL     1      35.358 -16.428 -23.784  0.00  0.00    +0.387 N 
ATOM      2  C   UNL     1      35.022 -18.014 -21.339  0.00  0.00    +0.039 C 
ATOM      3  C   UNL     1      35.823 -16.703 -21.368  0.00  0.00    -0.017 C 
ATOM      4  C   UNL     1      35.002 -18.644 -22.741  0.00  0.00    -0.017 C 
ATOM      5  C   UNL     1      35.319 -15.768 -22.471  0.00  0.00    -0.077 C 
ATOM      6  C   UNL     1      34.527 -17.640 -23.794  0.00  0.00    -0.077 C 
ATOM      7  H   UNL     1      36.323 -16.706 -23.967  0.00  0.00    -0.080 HD
ENDROOT
BRANCH   2  11
ATOM      8  F   UNL     1      33.721 -22.917 -16.924  0.00  0.00    -0.204 F 
ATOM      9  O   UNL     1      36.911 -19.945 -18.955  0.00  0.00    -0.354 OA
ATOM     10  N   UNL     1      36.796 -18.968 -19.935  0.00  0.00    -0.081 NA
ATOM     11  C   UNL     1      35.510 -18.972 -20.275  0.00  0.00    +0.100 A 
ATOM     12  C   UNL     1      34.756 -19.916 -19.562  0.00  0.00    +0.054 A 
ATOM     13  C   UNL     1      35.692 -20.509 -18.733  0.00  0.00    +0.179 A 
ATOM     14  C   UNL     1      33.422 -20.345 -19.501  0.00  0.00    +0.007 C 
ATOM     15  C   UNL     1      35.405 -21.524 -17.826  0.00  0.00    +0.070 C 
ATOM     16  C   UNL     1      33.096 -21.367 -18.596  0.00  0.00    +0.030 C 
ATOM     17  C   UNL     1      34.071 -21.944 -17.775  0.00  0.00    +0.143 C 
ENDBRANCH   2  11
BRANCH   1  18
ATOM     18  C   UNL     1      34.928 -15.504 -24.834  0.00  0.00    -0.074 C 
BRANCH  18  19
ATOM     19  C   UNL     1      33.557 -14.927 -24.501  0.00  0.00    +0.025 C 
BRANCH  19  20
ATOM     20  C   UNL     1      33.504 -13.427 -24.757  0.00  0.00    +0.203 C 
BRANCH  20  21
ATOM     21  O   UNL     1      34.301 -12.766 -23.784  0.00  0.00    -0.472 OA
BRANCH  21  22
ATOM     22  C   UNL     1      33.761 -11.652 -23.195  0.00  0.00    +0.172 C 
ATOM     23  C   UNL     1      32.979 -11.775 -22.051  0.00  0.00    +0.172 C 
ATOM     24  C   UNL     1      34.003 -10.403 -23.757  0.00  0.00    +0.040 C 
ATOM     25  C   UNL     1      32.434 -10.634 -21.461  0.00  0.00    +0.043 C 
ATOM     26  C   UNL     1      33.458  -9.262 -23.167  0.00  0.00    +0.006 C 
ATOM     27  C   UNL     1      32.674  -9.378 -22.020  0.00  0.00    +0.038 C 
BRANCH  27  29
ATOM     28  O   UNL     1      31.464  -7.353 -22.072  0.00  0.00    -0.291 OA
ATOM     29  C   UNL     1      32.106  -8.188 -21.404  0.00  0.00    +0.174 C 
ATOM     30  C   UNL     1      32.287  -7.935 -19.911  0.00  0.00    +0.077 C 
ENDBRANCH  27  29
BRANCH  23  31
ATOM     31  O   UNL     1      32.739 -12.995 -21.496  0.00  0.00    -0.468 OA
ATOM     32  C   UNL     1      32.320 -13.016 -20.134  0.00  0.00    +0.253 C 
ENDBRANCH  23  31
ENDBRANCH  21  22
ENDBRANCH  20  21
ENDBRANCH  19  20
ENDBRANCH  18  19
ENDBRANCH   1  18
TORSDOF 8
ENDMDL
MODEL 4
REMARK VINA RESULT:     -11.2      5.866     12.549
REMARK  Name = 71360
REMARK  8 active torsions:
REMARK  status: ('A' for Active; 'I' for Inactive)
REMARK    1  A    between atoms: N_1  and  C_18
REMARK    2  A    between atoms: C_2  and  C_11
REMARK    3  A    between atoms: C_18  and  C_19
REMARK    4  A    between atoms: C_19  and  C_20
REMARK    5  A    between atoms: C_20  and  O_21
REMARK    6  A    between atoms: O_21  and  C_22
REMARK    7  A    between atoms: C_23  and  O_31
REMARK    8  A    between atoms: C_27  and  C_29
REMARK                            x       y       z     vdW  Elec       q    Type
REMARK                         _______ _______ _______ _____ _____    ______ ____
ROOT
ATOM      1  N   UNL     1      34.266 -14.887 -22.943  0.00  0.00    +0.387 N 
ATOM      2  C   UNL     1      35.939 -16.909 -21.632  0.00  0.00    +0.039 C 
ATOM      3  C   UNL     1      35.213 -17.174 -22.960  0.00  0.00    -0.017 C 
ATOM      4  C   UNL     1      35.207 -15.808 -20.847  0.00  0.00    -0.017 C 
ATOM      5  C   UNL     1      34.998 -15.877 -23.745  0.00  0.00    -0.077 C 
ATOM      6  C   UNL     1      34.993 -14.561 -21.708  0.00  0.00    -0.077 C 
ATOM      7  H   UNL     1      33.369 -15.296 -22.681  0.00  0.00    -0.080 HD
ENDROOT
BRANCH   2  11
ATOM      8  F   UNL     1      33.347 -22.156 -18.320  0.00  0.00    -0.204 F 
ATOM      9  O   UNL     1      37.228 -19.727 -19.794  0.00  0.00    -0.354 OA
ATOM     10  N   UNL     1      37.385 -18.565 -20.538  0.00  0.00    -0.081 NA
ATOM     11  C   UNL     1      36.146 -18.167 -20.819  0.00  0.00    +0.100 A 
ATOM     12  C   UNL     1      35.163 -19.019 -20.294  0.00  0.00    +0.054 A 
ATOM     13  C   UNL     1      35.901 -19.996 -19.649  0.00  0.00    +0.179 A 
ATOM     14  C   UNL     1      33.763 -19.097 -20.273  0.00  0.00    +0.007 C 
ATOM     15  C   UNL     1      35.347 -21.076 -18.970  0.00  0.00    +0.070 C 
ATOM     16  C   UNL     1      33.170 -20.173 -19.596  0.00  0.00    +0.030 C 
ATOM     17  C   UNL     1      33.950 -21.143 -18.957  0.00  0.00    +0.143 C 
ENDBRANCH   2  11
BRANCH   1  18
ATOM     18  C   UNL     1      34.019 -13.676 -23.726  0.00  0.00    -0.074 C 
BRANCH  18  19
ATOM     19  C   UNL     1      33.584 -12.535 -22.813  0.00  0.00    +0.025 C 
BRANCH  19  20
ATOM     20  C   UNL     1      34.175 -11.205 -23.259  0.00  0.00    +0.203 C 
BRANCH  20  21
ATOM     21  O   UNL     1      33.121 -10.267 -23.426  0.00  0.00    -0.472 OA
BRANCH  21  22
ATOM     22  C   UNL     1      33.032  -9.265 -22.495  0.00  0.00    +0.172 C 
ATOM     23  C   UNL     1      32.126  -9.365 -21.444  0.00  0.00    +0.172 C 
ATOM     24  C   UNL     1      33.854  -8.150 -22.617  0.00  0.00    +0.040 C 
ATOM     25  C   UNL     1      32.044  -8.339 -20.502  0.00  0.00    +0.043 C 
ATOM     26  C   UNL     1      33.772  -7.124 -21.675  0.00  0.00    +0.006 C 
ATOM     27  C   UNL     1      32.867  -7.218 -20.619  0.00  0.00    +0.038 C 
BRANCH  27  29
ATOM     28  O   UNL     1      33.308  -6.255 -18.511  0.00  0.00    -0.291 OA
ATOM     29  C   UNL     1      32.781  -6.148 -19.637  0.00  0.00    +0.174 C 
ATOM     30  C   UNL     1      32.038  -4.859 -19.968  0.00  0.00    +0.077 C 
ENDBRANCH  27  29
BRANCH  23  31
ATOM     31  O   UNL     1      31.318 -10.455 -21.319  0.00  0.00    -0.468 OA
ATOM     32  C   UNL     1      31.408 -11.192 -20.101  0.00  0.00    +0.253 C 
ENDBRANCH  23  31
ENDBRANCH  21  22
ENDBRANCH  20  21
ENDBRANCH  19  20
ENDBRANCH  18  19
ENDBRANCH   1  18
TORSDOF 8
ENDMDL
MODEL 5
REMARK VINA RESULT:     -11.1      2.224      2.763
REMARK  Name = 71360
REMARK  8 active torsions:
REMARK  status: ('A' for Active; 'I' for Inactive)
REMARK    1  A    between atoms: N_1  and  C_18
REMARK    2  A    between atoms: C_2  and  C_11
REMARK    3  A    between atoms: C_18  and  C_19
REMARK    4  A    between atoms: C_19  and  C_20
REMARK    5  A    between atoms: C_20  and  O_21
REMARK    6  A    between atoms: O_21  and  C_22
REMARK    7  A    between atoms: C_23  and  O_31
REMARK    8  A    between atoms: C_27  and  C_29
REMARK                            x       y       z     vdW  Elec       q    Type
REMARK                         _______ _______ _______ _____ _____    ______ ____
ROOT
ATOM      1  N   UNL     1      34.907 -20.495 -18.740  0.00  0.00    +0.387 N 
ATOM      2  C   UNL     1      35.120 -18.991 -21.249  0.00  0.00    +0.039 C 
ATOM      3  C   UNL     1      36.264 -19.054 -20.226  0.00  0.00    -0.017 C 
ATOM      4  C   UNL     1      33.775 -19.235 -20.544  0.00  0.00    -0.017 C 
ATOM      5  C   UNL     1      36.208 -20.347 -19.408  0.00  0.00    -0.077 C 
ATOM      6  C   UNL     1      33.808 -20.521 -19.716  0.00  0.00    -0.077 C 
ATOM      7  H   UNL     1      34.771 -19.686 -18.134  0.00  0.00    -0.080 HD
ENDROOT
BRANCH   2  11
ATOM      8  F   UNL     1      34.854 -12.275 -21.477  0.00  0.00    -0.204 F 
ATOM      9  O   UNL     1      35.222 -16.462 -23.815  0.00  0.00    -0.354 OA
ATOM     10  N   UNL     1      35.243 -17.783 -23.383  0.00  0.00    -0.081 NA
ATOM     11  C   UNL     1      35.130 -17.714 -22.059  0.00  0.00    +0.100 A 
ATOM     12  C   UNL     1      35.037 -16.398 -21.584  0.00  0.00    +0.054 A 
ATOM     13  C   UNL     1      35.098 -15.637 -22.738  0.00  0.00    +0.179 A 
ATOM     14  C   UNL     1      34.907 -15.748 -20.347  0.00  0.00    +0.007 C 
ATOM     15  C   UNL     1      35.043 -14.248 -22.766  0.00  0.00    +0.070 C 
ATOM     16  C   UNL     1      34.847 -14.347 -20.337  0.00  0.00    +0.030 C 
ATOM     17  C   UNL     1      34.914 -13.612 -21.526  0.00  0.00    +0.143 C 
ENDBRANCH   2  11
BRANCH   1  18
ATOM     18  C   UNL     1      34.890 -21.706 -17.918  0.00  0.00    -0.074 C 
BRANCH  18  19
ATOM     19  C   UNL     1      33.459 -22.060 -17.529  0.00  0.00    +0.025 C 
BRANCH  19  20
ATOM     20  C   UNL     1      33.414 -22.879 -16.246  0.00  0.00    +0.203 C 
BRANCH  20  21
ATOM     21  O   UNL     1      34.697 -23.447 -16.019  0.00  0.00    -0.472 OA
BRANCH  21  22
ATOM     22  C   UNL     1      35.221 -23.307 -14.760  0.00  0.00    +0.172 C 
ATOM     23  C   UNL     1      36.526 -22.858 -14.591  0.00  0.00    +0.172 C 
ATOM     24  C   UNL     1      34.432 -23.622 -13.659  0.00  0.00    +0.040 C 
ATOM     25  C   UNL     1      37.048 -22.721 -13.304  0.00  0.00    +0.043 C 
ATOM     26  C   UNL     1      34.954 -23.484 -12.372  0.00  0.00    +0.006 C 
ATOM     27  C   UNL     1      36.262 -23.034 -12.195  0.00  0.00    +0.038 C 
BRANCH  27  29
ATOM     28  O   UNL     1      37.864 -22.261 -10.645  0.00  0.00    -0.291 OA
ATOM     29  C   UNL     1      36.807 -22.890 -10.854  0.00  0.00    +0.174 C 
ATOM     30  C   UNL     1      36.088 -23.512  -9.662  0.00  0.00    +0.077 C 
ENDBRANCH  27  29
BRANCH  23  31
ATOM     31  O   UNL     1      37.303 -22.549 -15.666  0.00  0.00    -0.468 OA
ATOM     32  C   UNL     1      37.654 -21.177 -15.838  0.00  0.00    +0.253 C 
ENDBRANCH  23  31
ENDBRANCH  21  22
ENDBRANCH  20  21
ENDBRANCH  19  20
ENDBRANCH  18  19
ENDBRANCH   1  18
TORSDOF 8
ENDMDL
MODEL 6
REMARK VINA RESULT:     -11.1      2.326      4.281
REMARK  Name = 71360
REMARK  8 active torsions:
REMARK  status: ('A' for Active; 'I' for Inactive)
REMARK    1  A    between atoms: N_1  and  C_18
REMARK    2  A    between atoms: C_2  and  C_11
REMARK    3  A    between atoms: C_18  and  C_19
REMARK    4  A    between atoms: C_19  and  C_20
REMARK    5  A    between atoms: C_20  and  O_21
REMARK    6  A    between atoms: O_21  and  C_22
REMARK    7  A    between atoms: C_23  and  O_31
REMARK    8  A    between atoms: C_27  and  C_29
REMARK                            x       y       z     vdW  Elec       q    Type
REMARK                         _______ _______ _______ _____ _____    ______ ____
ROOT
ATOM      1  N   UNL     1      35.840 -20.158 -18.741  0.00  0.00    +0.387 N 
ATOM      2  C   UNL     1      35.574 -18.714 -21.280  0.00  0.00    +0.039 C 
ATOM      3  C   UNL     1      36.847 -18.646 -20.422  0.00  0.00    -0.017 C 
ATOM      4  C   UNL     1      34.365 -19.056 -20.394  0.00  0.00    -0.017 C 
ATOM      5  C   UNL     1      37.020 -19.915 -19.582  0.00  0.00    -0.077 C 
ATOM      6  C   UNL     1      34.627 -20.310 -19.557  0.00  0.00    -0.077 C 
ATOM      7  H   UNL     1      35.713 -19.347 -18.135  0.00  0.00    -0.080 HD
ENDROOT
BRANCH   2  11
ATOM      8  F   UNL     1      34.441 -12.092 -21.573  0.00  0.00    -0.204 F 
ATOM      9  O   UNL     1      35.151 -16.253 -23.878  0.00  0.00    -0.354 OA
ATOM     10  N   UNL     1      35.374 -17.550 -23.433  0.00  0.00    -0.081 NA
ATOM     11  C   UNL     1      35.359 -17.465 -22.105  0.00  0.00    +0.100 A 
ATOM     12  C   UNL     1      35.136 -16.160 -21.641  0.00  0.00    +0.054 A 
ATOM     13  C   UNL     1      35.009 -15.425 -22.807  0.00  0.00    +0.179 A 
ATOM     14  C   UNL     1      35.024 -15.504 -20.406  0.00  0.00    +0.007 C 
ATOM     15  C   UNL     1      34.776 -14.054 -22.848  0.00  0.00    +0.070 C 
ATOM     16  C   UNL     1      34.788 -14.121 -20.410  0.00  0.00    +0.030 C 
ATOM     17  C   UNL     1      34.666 -13.412 -21.610  0.00  0.00    +0.143 C 
ENDBRANCH   2  11
BRANCH   1  18
ATOM     18  C   UNL     1      36.044 -21.341 -17.904  0.00  0.00    -0.074 C 
BRANCH  18  19
ATOM     19  C   UNL     1      37.062 -21.045 -16.809  0.00  0.00    +0.025 C 
BRANCH  19  20
ATOM     20  C   UNL     1      36.595 -21.565 -15.456  0.00  0.00    +0.203 C 
BRANCH  20  21
ATOM     21  O   UNL     1      36.017 -22.851 -15.632  0.00  0.00    -0.472 OA
BRANCH  21  22
ATOM     22  C   UNL     1      34.805 -23.072 -15.032  0.00  0.00    +0.172 C 
ATOM     23  C   UNL     1      34.746 -23.616 -13.753  0.00  0.00    +0.172 C 
ATOM     24  C   UNL     1      33.640 -22.746 -15.718  0.00  0.00    +0.040 C 
ATOM     25  C   UNL     1      33.506 -23.836 -13.153  0.00  0.00    +0.043 C 
ATOM     26  C   UNL     1      32.400 -22.967 -15.118  0.00  0.00    +0.006 C 
ATOM     27  C   UNL     1      32.333 -23.512 -13.836  0.00  0.00    +0.038 C 
BRANCH  27  29
ATOM     28  O   UNL     1      30.838 -23.458 -12.011  0.00  0.00    -0.291 OA
ATOM     29  C   UNL     1      31.040 -23.741 -13.210  0.00  0.00    +0.174 C 
ATOM     30  C   UNL     1      29.891 -24.338 -14.015  0.00  0.00    +0.077 C 
ENDBRANCH  27  29
BRANCH  23  31
ATOM     31  O   UNL     1      35.884 -23.936 -13.077  0.00  0.00    -0.468 OA
ATOM     32  C   UNL     1      36.332 -23.010 -12.089  0.00  0.00    +0.253 C 
ENDBRANCH  23  31
ENDBRANCH  21  22
ENDBRANCH  20  21
ENDBRANCH  19  20
ENDBRANCH  18  19
ENDBRANCH   1  18
TORSDOF 8
ENDMDL
MODEL 7
REMARK VINA RESULT:     -11.1      4.026     10.887
REMARK  Name = 71360
REMARK  8 active torsions:
REMARK  status: ('A' for Active; 'I' for Inactive)
REMARK    1  A    between atoms: N_1  and  C_18
REMARK    2  A    between atoms: C_2  and  C_11
REMARK    3  A    between atoms: C_18  and  C_19
REMARK    4  A    between atoms: C_19  and  C_20
REMARK    5  A    between atoms: C_20  and  O_21
REMARK    6  A    between atoms: O_21  and  C_22
REMARK    7  A    between atoms: C_23  and  O_31
REMARK    8  A    between atoms: C_27  and  C_29
REMARK                            x       y       z     vdW  Elec       q    Type
REMARK                         _______ _______ _______ _____ _____    ______ ____
ROOT
ATOM      1  N   UNL     1      34.660 -19.639 -19.919  0.00  0.00    +0.387 N 
ATOM      2  C   UNL     1      34.351 -21.847 -18.013  0.00  0.00    +0.039 C 
ATOM      3  C   UNL     1      33.193 -20.904 -18.378  0.00  0.00    -0.017 C 
ATOM      4  C   UNL     1      35.695 -21.137 -18.242  0.00  0.00    -0.017 C 
ATOM      5  C   UNL     1      33.369 -20.328 -19.785  0.00  0.00    -0.077 C 
ATOM      6  C   UNL     1      35.780 -20.554 -19.655  0.00  0.00    -0.077 C 
ATOM      7  H   UNL     1      34.692 -18.893 -19.224  0.00  0.00    -0.080 HD
ENDROOT
BRANCH   2  11
ATOM      8  F   UNL     1      30.463 -23.672 -12.837  0.00  0.00    -0.204 F 
ATOM      9  O   UNL     1      34.863 -23.254 -14.735  0.00  0.00    -0.354 OA
ATOM     10  N   UNL     1      35.319 -22.783 -15.960  0.00  0.00    -0.081 NA
ATOM     11  C   UNL     1      34.222 -22.416 -16.617  0.00  0.00    +0.100 A 
ATOM     12  C   UNL     1      33.046 -22.623 -15.882  0.00  0.00    +0.054 A 
ATOM     13  C   UNL     1      33.505 -23.157 -14.691  0.00  0.00    +0.179 A 
ATOM     14  C   UNL     1      31.666 -22.432 -16.056  0.00  0.00    +0.007 C 
ATOM     15  C   UNL     1      32.685 -23.530 -13.631  0.00  0.00    +0.070 C 
ATOM     16  C   UNL     1      30.810 -22.797 -15.007  0.00  0.00    +0.030 C 
ATOM     17  C   UNL     1      31.312 -23.335 -13.817  0.00  0.00    +0.143 C 
ENDBRANCH   2  11
BRANCH   1  18
ATOM     18  C   UNL     1      34.788 -19.046 -21.251  0.00  0.00    -0.074 C 
BRANCH  18  19
ATOM     19  C   UNL     1      36.078 -18.241 -21.349  0.00  0.00    +0.025 C 
BRANCH  19  20
ATOM     20  C   UNL     1      35.888 -16.816 -20.847  0.00  0.00    +0.203 C 
BRANCH  20  21
ATOM     21  O   UNL     1      35.631 -15.968 -21.957  0.00  0.00    -0.472 OA
BRANCH  21  22
ATOM     22  C   UNL     1      34.835 -14.876 -21.730  0.00  0.00    +0.172 C 
ATOM     23  C   UNL     1      34.354 -14.126 -22.798  0.00  0.00    +0.172 C 
ATOM     24  C   UNL     1      34.516 -14.529 -20.421  0.00  0.00    +0.040 C 
ATOM     25  C   UNL     1      33.544 -13.016 -22.554  0.00  0.00    +0.043 C 
ATOM     26  C   UNL     1      33.707 -13.419 -20.177  0.00  0.00    +0.006 C 
ATOM     27  C   UNL     1      33.221 -12.663 -21.244  0.00  0.00    +0.038 C 
BRANCH  27  29
ATOM     28  O   UNL     1      32.301 -10.563 -21.803  0.00  0.00    -0.291 OA
ATOM     29  C   UNL     1      32.376 -11.506 -20.989  0.00  0.00    +0.174 C 
ATOM     30  C   UNL     1      31.555 -11.422 -19.708  0.00  0.00    +0.077 C 
ENDBRANCH  27  29
BRANCH  23  31
ATOM     31  O   UNL     1      34.662 -14.461 -24.082  0.00  0.00    -0.468 OA
ATOM     32  C   UNL     1      33.625 -15.049 -24.865  0.00  0.00    +0.253 C 
ENDBRANCH  23  31
ENDBRANCH  21  22
ENDBRANCH  20  21
ENDBRANCH  19  20
ENDBRANCH  18  19
ENDBRANCH   1  18
TORSDOF 8
ENDMDL
MODEL 8
REMARK VINA RESULT:     -11.0      2.530      4.827
REMARK  Name = 71360
REMARK  8 active torsions:
REMARK  status: ('A' for Active; 'I' for Inactive)
REMARK    1  A    between atoms: N_1  and  C_18
REMARK    2  A    between atoms: C_2  and  C_11
REMARK    3  A    between atoms: C_18  and  C_19
REMARK    4  A    between atoms: C_19  and  C_20
REMARK    5  A    between atoms: C_20  and  O_21
REMARK    6  A    between atoms: O_21  and  C_22
REMARK    7  A    between atoms: C_23  and  O_31
REMARK    8  A    between atoms: C_27  and  C_29
REMARK                            x       y       z     vdW  Elec       q    Type
REMARK                         _______ _______ _______ _____ _____    ______ ____
ROOT
ATOM      1  N   UNL     1      34.993 -18.769 -20.809  0.00  0.00    +0.387 N 
ATOM      2  C   UNL     1      35.331 -16.879 -23.027  0.00  0.00    +0.039 C 
ATOM      3  C   UNL     1      35.328 -16.433 -21.556  0.00  0.00    -0.017 C 
ATOM      4  C   UNL     1      34.548 -18.194 -23.175  0.00  0.00    -0.017 C 
ATOM      5  C   UNL     1      35.807 -17.558 -20.634  0.00  0.00    -0.077 C 
ATOM      6  C   UNL     1      35.056 -19.255 -22.195  0.00  0.00    -0.077 C 
ATOM      7  H   UNL     1      34.023 -18.530 -20.603  0.00  0.00    -0.080 HD
ENDROOT
BRANCH   2  11
ATOM      8  F   UNL     1      33.546 -10.477 -24.061  0.00  0.00    -0.204 F 
ATOM      9  O   UNL     1      34.170 -14.913 -25.815  0.00  0.00    -0.354 OA
ATOM     10  N   UNL     1      34.597 -16.102 -25.237  0.00  0.00    -0.081 NA
ATOM     11  C   UNL     1      34.839 -15.798 -23.965  0.00  0.00    +0.100 A 
ATOM     12  C   UNL     1      34.593 -14.451 -23.664  0.00  0.00    +0.054 A 
ATOM     13  C   UNL     1      34.167 -13.929 -24.873  0.00  0.00    +0.179 A 
ATOM     14  C   UNL     1      34.667 -13.607 -22.546  0.00  0.00    +0.007 C 
ATOM     15  C   UNL     1      33.803 -12.600 -25.069  0.00  0.00    +0.070 C 
ATOM     16  C   UNL     1      34.306 -12.261 -22.707  0.00  0.00    +0.030 C 
ATOM     17  C   UNL     1      33.883 -11.769 -23.946  0.00  0.00    +0.143 C 
ENDBRANCH   2  11
BRANCH   1  18
ATOM     18  C   UNL     1      35.427 -19.814 -19.881  0.00  0.00    -0.074 C 
BRANCH  18  19
ATOM     19  C   UNL     1      34.228 -20.393 -19.140  0.00  0.00    +0.025 C 
BRANCH  19  20
ATOM     20  C   UNL     1      34.399 -21.883 -18.877  0.00  0.00    +0.203 C 
BRANCH  20  21
ATOM     21  O   UNL     1      34.926 -22.062 -17.570  0.00  0.00    -0.472 OA
BRANCH  21  22
ATOM     22  C   UNL     1      34.048 -22.467 -16.598  0.00  0.00    +0.172 C 
ATOM     23  C   UNL     1      34.516 -23.100 -15.452  0.00  0.00    +0.172 C 
ATOM     24  C   UNL     1      32.688 -22.237 -16.775  0.00  0.00    +0.040 C 
ATOM     25  C   UNL     1      33.613 -23.508 -14.470  0.00  0.00    +0.043 C 
ATOM     26  C   UNL     1      31.784 -22.645 -15.793  0.00  0.00    +0.006 C 
ATOM     27  C   UNL     1      32.247 -23.280 -14.641  0.00  0.00    +0.038 C 
BRANCH  27  29
ATOM     28  O   UNL     1      31.564 -23.580 -12.403  0.00  0.00    -0.291 OA
ATOM     29  C   UNL     1      31.305 -23.705 -13.617  0.00  0.00    +0.174 C 
ATOM     30  C   UNL     1      29.966 -24.318 -14.011  0.00  0.00    +0.077 C 
ENDBRANCH  27  29
BRANCH  23  31
ATOM     31  O   UNL     1      35.847 -23.327 -15.273  0.00  0.00    -0.468 OA
ATOM     32  C   UNL     1      36.550 -22.425 -14.421  0.00  0.00    +0.253 C 
ENDBRANCH  23  31
ENDBRANCH  21  22
ENDBRANCH  20  21
ENDBRANCH  19  20
ENDBRANCH  18  19
ENDBRANCH   1  18
TORSDOF 8
ENDMDL
MODEL 9
REMARK VINA RESULT:     -10.9      2.347      3.378
REMARK  Name = 71360
REMARK  8 active torsions:
REMARK  status: ('A' for Active; 'I' for Inactive)
REMARK    1  A    between atoms: N_1  and  C_18
REMARK    2  A    between atoms: C_2  and  C_11
REMARK    3  A    between atoms: C_18  and  C_19
REMARK    4  A    between atoms: C_19  and  C_20
REMARK    5  A    between atoms: C_20  and  O_21
REMARK    6  A    between atoms: O_21  and  C_22
REMARK    7  A    between atoms: C_23  and  O_31
REMARK    8  A    between atoms: C_27  and  C_29
REMARK                            x       y       z     vdW  Elec       q    Type
REMARK                         _______ _______ _______ _____ _____    ______ ____
ROOT
ATOM      1  N   UNL     1      35.378 -20.097 -18.919  0.00  0.00    +0.387 N 
ATOM      2  C   UNL     1      35.391 -18.598 -21.441  0.00  0.00    +0.039 C 
ATOM      3  C   UNL     1      36.556 -18.540 -20.441  0.00  0.00    -0.017 C 
ATOM      4  C   UNL     1      34.091 -18.969 -20.707  0.00  0.00    -0.017 C 
ATOM      5  C   UNL     1      36.644 -19.826 -19.614  0.00  0.00    -0.077 C 
ATOM      6  C   UNL     1      34.268 -20.239 -19.872  0.00  0.00    -0.077 C 
ATOM      7  H   UNL     1      35.174 -19.300 -18.315  0.00  0.00    -0.080 HD
ENDROOT
BRANCH   2  11
ATOM      8  F   UNL     1      34.535 -11.933 -21.699  0.00  0.00    -0.204 F 
ATOM      9  O   UNL     1      35.172 -16.095 -24.024  0.00  0.00    -0.354 OA
ATOM     10  N   UNL     1      35.324 -17.404 -23.586  0.00  0.00    -0.081 NA
ATOM     11  C   UNL     1      35.259 -17.333 -22.259  0.00  0.00    +0.100 A 
ATOM     12  C   UNL     1      35.070 -16.025 -21.787  0.00  0.00    +0.054 A 
ATOM     13  C   UNL     1      35.020 -15.274 -22.948  0.00  0.00    +0.179 A 
ATOM     14  C   UNL     1      34.934 -15.378 -20.550  0.00  0.00    +0.007 C 
ATOM     15  C   UNL     1      34.843 -13.894 -22.983  0.00  0.00    +0.070 C 
ATOM     16  C   UNL     1      34.753 -13.987 -20.547  0.00  0.00    +0.030 C 
ATOM     17  C   UNL     1      34.709 -13.261 -21.742  0.00  0.00    +0.143 C 
ENDBRANCH   2  11
BRANCH   1  18
ATOM     18  C   UNL     1      35.497 -21.296 -18.090  0.00  0.00    -0.074 C 
BRANCH  18  19
ATOM     19  C   UNL     1      34.176 -22.056 -18.067  0.00  0.00    +0.025 C 
BRANCH  19  20
ATOM     20  C   UNL     1      33.748 -22.394 -16.646  0.00  0.00    +0.203 C 
BRANCH  20  21
ATOM     21  O   UNL     1      34.460 -23.545 -16.213  0.00  0.00    -0.472 OA
BRANCH  21  22
ATOM     22  C   UNL     1      34.854 -23.571 -14.900  0.00  0.00    +0.172 C 
ATOM     23  C   UNL     1      33.920 -23.792 -13.893  0.00  0.00    +0.172 C 
ATOM     24  C   UNL     1      36.195 -23.373 -14.590  0.00  0.00    +0.040 C 
ATOM     25  C   UNL     1      34.333 -23.817 -12.561  0.00  0.00    +0.043 C 
ATOM     26  C   UNL     1      36.608 -23.397 -13.258  0.00  0.00    +0.006 C 
ATOM     27  C   UNL     1      35.677 -23.618 -12.244  0.00  0.00    +0.038 C 
BRANCH  27  29
ATOM     28  O   UNL     1      35.615 -24.446 -10.035  0.00  0.00    -0.291 OA
ATOM     29  C   UNL     1      36.108 -23.644 -10.854  0.00  0.00    +0.174 C 
ATOM     30  C   UNL     1      37.185 -22.682 -10.366  0.00  0.00    +0.077 C 
ENDBRANCH  27  29
BRANCH  23  31
ATOM     31  O   UNL     1      32.605 -23.988 -14.191  0.00  0.00    -0.468 OA
ATOM     32  C   UNL     1      31.719 -24.204 -13.095  0.00  0.00    +0.253 C 
ENDBRANCH  23  31
ENDBRANCH  21  22
ENDBRANCH  20  21
ENDBRANCH  19  20
ENDBRANCH  18  19
ENDBRANCH   1  18
TORSDOF 8
ENDMDL
