MODEL 1
REMARK VINA RESULT:     -13.4      0.000      0.000
REMARK  Name = 24812719
REMARK  3 active torsions:
REMARK  status: ('A' for Active; 'I' for Inactive)
REMARK    1  A    between atoms: N_2  and  C_22
REMARK    2  A    between atoms: C_3  and  C_12
REMARK    3  A    between atoms: C_25  and  C_31
REMARK                            x       y       z     vdW  Elec       q    Type
REMARK                         _______ _______ _______ _____ _____    ______ ____
ROOT
ATOM      1  O   UNL     1      36.374 -22.384 -15.882  0.00  0.00    -0.269 OA
ATOM      2  N   UNL     1      35.144 -23.431 -14.169  0.00  0.00    -0.233 N 
ATOM      3  C   UNL     1      34.034 -22.384 -16.147  0.00  0.00    +0.046 C 
ATOM      4  C   UNL     1      32.839 -22.825 -15.703  0.00  0.00    -0.016 C 
ATOM      5  C   UNL     1      35.299 -22.717 -15.382  0.00  0.00    +0.256 C 
ATOM      6  C   UNL     1      33.880 -23.864 -13.781  0.00  0.00    +0.072 C 
ATOM      7  C   UNL     1      32.777 -23.599 -14.485  0.00  0.00    +0.012 C 
ATOM      8  C   UNL     1      31.504 -22.583 -16.355  0.00  0.00    +0.031 C 
ENDROOT
BRANCH   3  12
ATOM      9  N   UNL     1      34.467 -19.350 -20.886  0.00  0.00    -0.342 NA
ATOM     10  N   UNL     1      36.851 -19.164 -20.588  0.00  0.00    -0.170 NA
ATOM     11  N   UNL     1      35.790 -18.179 -22.430  0.00  0.00    -0.293 N 
ATOM     12  C   UNL     1      34.154 -21.590 -17.385  0.00  0.00    -0.017 C 
ATOM     13  C   UNL     1      35.399 -21.132 -17.805  0.00  0.00    +0.056 C 
ATOM     14  C   UNL     1      33.024 -21.295 -18.139  0.00  0.00    -0.022 C 
ATOM     15  C   UNL     1      35.508 -20.377 -18.985  0.00  0.00    +0.029 C 
ATOM     16  C   UNL     1      34.374 -20.072 -19.756  0.00  0.00    +0.124 C 
ATOM     17  C   UNL     1      33.141 -20.543 -19.312  0.00  0.00    +0.085 C 
ATOM     18  C   UNL     1      36.722 -19.889 -19.461  0.00  0.00    +0.110 C 
ATOM     19  C   UNL     1      35.700 -18.936 -21.240  0.00  0.00    +0.141 C 
ATOM     20  H   UNL     1      34.978 -17.981 -22.949  0.00  0.00    +0.155 HD
ATOM     21  H   UNL     1      36.665 -17.850 -22.738  0.00  0.00    +0.155 HD
ENDBRANCH   3  12
BRANCH   2  22
ATOM     22  C   UNL     1      36.304 -23.732 -13.352  0.00  0.00    +0.058 C 
ATOM     23  C   UNL     1      37.506 -24.100 -13.957  0.00  0.00    +0.019 C 
ATOM     24  C   UNL     1      36.217 -23.657 -11.963  0.00  0.00    +0.015 C 
ATOM     25  C   UNL     1      38.621 -24.390 -13.172  0.00  0.00    +0.073 C 
ATOM     26  C   UNL     1      37.333 -23.947 -11.177  0.00  0.00    +0.001 C 
ATOM     27  C   UNL     1      38.535 -24.315 -11.782  0.00  0.00    +0.004 C 
BRANCH  25  31
ATOM     28  F   UNL     1      40.051 -26.134 -13.971  0.00  0.00    -0.166 F 
ATOM     29  F   UNL     1      40.071 -24.264 -15.070  0.00  0.00    -0.166 F 
ATOM     30  F   UNL     1      40.998 -24.377 -13.106  0.00  0.00    -0.166 F 
ATOM     31  C   UNL     1      39.907 -24.784 -13.817  0.00  0.00    +0.419 C 
ENDBRANCH  25  31
ENDBRANCH   2  22
TORSDOF 3
ENDMDL
MODEL 2
REMARK VINA RESULT:     -13.3      7.906     12.495
REMARK  Name = 24812719
REMARK  3 active torsions:
REMARK  status: ('A' for Active; 'I' for Inactive)
REMARK    1  A    between atoms: N_2  and  C_22
REMARK    2  A    between atoms: C_3  and  C_12
REMARK    3  A    between atoms: C_25  and  C_31
REMARK                            x       y       z     vdW  Elec       q    Type
REMARK                         _______ _______ _______ _____ _____    ______ ____
ROOT
ATOM      1  O   UNL     1      34.807 -14.776 -21.463  0.00  0.00    -0.269 OA
ATOM      2  N   UNL     1      34.086 -14.285 -23.651  0.00  0.00    -0.233 N 
ATOM      3  C   UNL     1      34.775 -16.587 -22.968  0.00  0.00    +0.046 C 
ATOM      4  C   UNL     1      34.427 -17.046 -24.188  0.00  0.00    -0.016 C 
ATOM      5  C   UNL     1      34.575 -15.126 -22.622  0.00  0.00    +0.256 C 
ATOM      6  C   UNL     1      33.737 -14.832 -24.880  0.00  0.00    +0.072 C 
ATOM      7  C   UNL     1      33.879 -16.130 -25.161  0.00  0.00    +0.012 C 
ATOM      8  C   UNL     1      34.559 -18.464 -24.675  0.00  0.00    +0.031 C 
ENDROOT
BRANCH   3  12
ATOM      9  N   UNL     1      36.954 -19.993 -19.031  0.00  0.00    -0.342 NA
ATOM     10  N   UNL     1      34.772 -20.902 -18.564  0.00  0.00    -0.170 NA
ATOM     11  N   UNL     1      36.661 -21.654 -17.400  0.00  0.00    -0.293 N 
ATOM     12  C   UNL     1      35.338 -17.480 -21.938  0.00  0.00    -0.017 C 
ATOM     13  C   UNL     1      34.508 -18.344 -21.230  0.00  0.00    +0.056 C 
ATOM     14  C   UNL     1      36.702 -17.463 -21.667  0.00  0.00    -0.022 C 
ATOM     15  C   UNL     1      35.050 -19.193 -20.250  0.00  0.00    +0.029 C 
ATOM     16  C   UNL     1      36.426 -19.185 -19.968  0.00  0.00    +0.124 C 
ATOM     17  C   UNL     1      37.232 -18.310 -20.691  0.00  0.00    +0.085 C 
ATOM     18  C   UNL     1      34.275 -20.080 -19.507  0.00  0.00    +0.110 C 
ATOM     19  C   UNL     1      36.098 -20.807 -18.381  0.00  0.00    +0.141 C 
ATOM     20  H   UNL     1      37.629 -21.627 -17.224  0.00  0.00    +0.155 HD
ATOM     21  H   UNL     1      36.085 -22.270 -16.893  0.00  0.00    +0.155 HD
ENDBRANCH   3  12
BRANCH   2  22
ATOM     22  C   UNL     1      33.926 -12.863 -23.409  0.00  0.00    +0.058 C 
ATOM     23  C   UNL     1      34.576 -11.940 -24.226  0.00  0.00    +0.019 C 
ATOM     24  C   UNL     1      33.124 -12.421 -22.358  0.00  0.00    +0.015 C 
ATOM     25  C   UNL     1      34.424 -10.573 -23.994  0.00  0.00    +0.073 C 
ATOM     26  C   UNL     1      32.971 -11.054 -22.125  0.00  0.00    +0.001 C 
ATOM     27  C   UNL     1      33.622 -10.130 -22.942  0.00  0.00    +0.004 C 
BRANCH  25  31
ATOM     28  F   UNL     1      36.429  -9.383 -24.531  0.00  0.00    -0.166 F 
ATOM     29  F   UNL     1      35.142  -9.940 -26.186  0.00  0.00    -0.166 F 
ATOM     30  F   UNL     1      34.538  -8.351 -24.831  0.00  0.00    -0.166 F 
ATOM     31  C   UNL     1      35.120  -9.584 -24.867  0.00  0.00    +0.419 C 
ENDBRANCH  25  31
ENDBRANCH   2  22
TORSDOF 3
ENDMDL
MODEL 3
REMARK VINA RESULT:     -13.3      6.709     10.335
REMARK  Name = 24812719
REMARK  3 active torsions:
REMARK  status: ('A' for Active; 'I' for Inactive)
REMARK    1  A    between atoms: N_2  and  C_22
REMARK    2  A    between atoms: C_3  and  C_12
REMARK    3  A    between atoms: C_25  and  C_31
REMARK                            x       y       z     vdW  Elec       q    Type
REMARK                         _______ _______ _______ _____ _____    ______ ____
ROOT
ATOM      1  O   UNL     1      34.848 -15.120 -20.847  0.00  0.00    -0.269 OA
ATOM      2  N   UNL     1      35.086 -16.867 -22.409  0.00  0.00    -0.233 N 
ATOM      3  C   UNL     1      34.211 -14.618 -23.059  0.00  0.00    +0.046 C 
ATOM      4  C   UNL     1      34.170 -15.014 -24.348  0.00  0.00    -0.016 C 
ATOM      5  C   UNL     1      34.730 -15.561 -21.992  0.00  0.00    +0.256 C 
ATOM      6  C   UNL     1      35.028 -17.198 -23.758  0.00  0.00    +0.072 C 
ATOM      7  C   UNL     1      34.608 -16.345 -24.695  0.00  0.00    +0.012 C 
ATOM      8  C   UNL     1      33.690 -14.193 -25.514  0.00  0.00    +0.031 C 
ENDROOT
BRANCH   3  12
ATOM      9  N   UNL     1      32.528  -9.470 -21.474  0.00  0.00    -0.342 NA
ATOM     10  N   UNL     1      34.004  -8.456 -23.086  0.00  0.00    -0.170 NA
ATOM     11  N   UNL     1      32.651  -7.138 -21.700  0.00  0.00    -0.293 N 
ATOM     12  C   UNL     1      33.776 -13.270 -22.649  0.00  0.00    -0.017 C 
ATOM     13  C   UNL     1      34.312 -12.143 -23.265  0.00  0.00    +0.056 C 
ATOM     14  C   UNL     1      32.826 -13.116 -21.645  0.00  0.00    -0.022 C 
ATOM     15  C   UNL     1      33.893 -10.861 -22.872  0.00  0.00    +0.029 C 
ATOM     16  C   UNL     1      32.935 -10.693 -21.858  0.00  0.00    +0.124 C 
ATOM     17  C   UNL     1      32.415 -11.837 -21.259  0.00  0.00    +0.085 C 
ATOM     18  C   UNL     1      34.390  -9.694 -23.447  0.00  0.00    +0.110 C 
ATOM     19  C   UNL     1      33.085  -8.419 -22.109  0.00  0.00    +0.141 C 
ATOM     20  H   UNL     1      31.978  -7.051 -20.988  0.00  0.00    +0.155 HD
ATOM     21  H   UNL     1      33.022  -6.333 -22.129  0.00  0.00    +0.155 HD
ENDBRANCH   3  12
BRANCH   2  22
ATOM     22  C   UNL     1      35.533 -17.842 -21.432  0.00  0.00    +0.058 C 
ATOM     23  C   UNL     1      34.610 -18.684 -20.814  0.00  0.00    +0.019 C 
ATOM     24  C   UNL     1      36.887 -17.934 -21.110  0.00  0.00    +0.015 C 
ATOM     25  C   UNL     1      35.041 -19.620 -19.875  0.00  0.00    +0.073 C 
ATOM     26  C   UNL     1      37.318 -18.871 -20.171  0.00  0.00    +0.001 C 
ATOM     27  C   UNL     1      36.394 -19.714 -19.552  0.00  0.00    +0.004 C 
BRANCH  25  31
ATOM     28  F   UNL     1      33.845 -21.693 -19.883  0.00  0.00    -0.166 F 
ATOM     29  F   UNL     1      34.416 -20.894 -17.949  0.00  0.00    -0.166 F 
ATOM     30  F   UNL     1      32.822 -19.947 -19.085  0.00  0.00    -0.166 F 
ATOM     31  C   UNL     1      34.053 -20.522 -19.212  0.00  0.00    +0.419 C 
ENDBRANCH  25  31
ENDBRANCH   2  22
TORSDOF 3
ENDMDL
MODEL 4
REMARK VINA RESULT:     -13.2      7.395     12.063
REMARK  Name = 24812719
REMARK  3 active torsions:
REMARK  status: ('A' for Active; 'I' for Inactive)
REMARK    1  A    between atoms: N_2  and  C_22
REMARK    2  A    between atoms: C_3  and  C_12
REMARK    3  A    between atoms: C_25  and  C_31
REMARK                            x       y       z     vdW  Elec       q    Type
REMARK                         _______ _______ _______ _____ _____    ______ ____
ROOT
ATOM      1  O   UNL     1      34.733 -14.875 -21.349  0.00  0.00    -0.269 OA
ATOM      2  N   UNL     1      34.014 -14.385 -23.537  0.00  0.00    -0.233 N 
ATOM      3  C   UNL     1      34.792 -16.666 -22.878  0.00  0.00    +0.046 C 
ATOM      4  C   UNL     1      34.476 -17.122 -24.107  0.00  0.00    -0.016 C 
ATOM      5  C   UNL     1      34.527 -15.219 -22.514  0.00  0.00    +0.256 C 
ATOM      6  C   UNL     1      33.701 -14.930 -24.778  0.00  0.00    +0.072 C 
ATOM      7  C   UNL     1      33.901 -16.216 -25.074  0.00  0.00    +0.012 C 
ATOM      8  C   UNL     1      34.672 -18.527 -24.611  0.00  0.00    +0.031 C 
ENDROOT
BRANCH   3  12
ATOM      9  N   UNL     1      37.071 -20.032 -18.963  0.00  0.00    -0.342 NA
ATOM     10  N   UNL     1      34.907 -20.959 -18.453  0.00  0.00    -0.170 NA
ATOM     11  N   UNL     1      36.823 -21.687 -17.319  0.00  0.00    -0.293 N 
ATOM     12  C   UNL     1      35.381 -17.548 -21.853  0.00  0.00    -0.017 C 
ATOM     13  C   UNL     1      34.572 -18.416 -21.127  0.00  0.00    +0.056 C 
ATOM     14  C   UNL     1      36.749 -17.517 -21.606  0.00  0.00    -0.022 C 
ATOM     15  C   UNL     1      35.139 -19.256 -20.153  0.00  0.00    +0.029 C 
ATOM     16  C   UNL     1      36.519 -19.234 -19.894  0.00  0.00    +0.124 C 
ATOM     17  C   UNL     1      37.305 -18.355 -20.635  0.00  0.00    +0.085 C 
ATOM     18  C   UNL     1      34.386 -20.146 -19.392  0.00  0.00    +0.110 C 
ATOM     19  C   UNL     1      36.235 -20.851 -18.294  0.00  0.00    +0.141 C 
ATOM     20  H   UNL     1      37.793 -21.650 -17.160  0.00  0.00    +0.155 HD
ATOM     21  H   UNL     1      36.261 -22.307 -16.799  0.00  0.00    +0.155 HD
ENDBRANCH   3  12
BRANCH   2  22
ATOM     22  C   UNL     1      33.792 -12.975 -23.279  0.00  0.00    +0.058 C 
ATOM     23  C   UNL     1      32.956 -12.580 -22.236  0.00  0.00    +0.019 C 
ATOM     24  C   UNL     1      34.415 -12.014 -24.076  0.00  0.00    +0.015 C 
ATOM     25  C   UNL     1      32.742 -11.225 -21.989  0.00  0.00    +0.073 C 
ATOM     26  C   UNL     1      34.201 -10.658 -23.828  0.00  0.00    +0.001 C 
ATOM     27  C   UNL     1      33.364 -10.263 -22.785  0.00  0.00    +0.004 C 
BRANCH  25  31
ATOM     28  F   UNL     1      32.319  -9.733 -20.166  0.00  0.00    -0.166 F 
ATOM     29  F   UNL     1      30.597 -10.430 -21.287  0.00  0.00    -0.166 F 
ATOM     30  F   UNL     1      31.647 -11.791 -19.955  0.00  0.00    -0.166 F 
ATOM     31  C   UNL     1      31.845 -10.801 -20.874  0.00  0.00    +0.419 C 
ENDBRANCH  25  31
ENDBRANCH   2  22
TORSDOF 3
ENDMDL
MODEL 5
REMARK VINA RESULT:     -12.9      0.685      1.460
REMARK  Name = 24812719
REMARK  3 active torsions:
REMARK  status: ('A' for Active; 'I' for Inactive)
REMARK    1  A    between atoms: N_2  and  C_22
REMARK    2  A    between atoms: C_3  and  C_12
REMARK    3  A    between atoms: C_25  and  C_31
REMARK                            x       y       z     vdW  Elec       q    Type
REMARK                         _______ _______ _______ _____ _____    ______ ____
ROOT
ATOM      1  O   UNL     1      36.737 -22.518 -15.926  0.00  0.00    -0.269 OA
ATOM      2  N   UNL     1      35.275 -23.432 -14.322  0.00  0.00    -0.233 N 
ATOM      3  C   UNL     1      34.437 -22.256 -16.360  0.00  0.00    +0.046 C 
ATOM      4  C   UNL     1      33.171 -22.564 -16.010  0.00  0.00    -0.016 C 
ATOM      5  C   UNL     1      35.597 -22.732 -15.510  0.00  0.00    +0.256 C 
ATOM      6  C   UNL     1      33.947 -23.723 -14.032  0.00  0.00    +0.072 C 
ATOM      7  C   UNL     1      32.934 -23.333 -14.811  0.00  0.00    +0.012 C 
ATOM      8  C   UNL     1      31.923 -22.170 -16.753  0.00  0.00    +0.031 C 
ENDROOT
BRANCH   3  12
ATOM      9  N   UNL     1      35.604 -19.259 -20.998  0.00  0.00    -0.342 NA
ATOM     10  N   UNL     1      33.257 -19.067 -21.504  0.00  0.00    -0.170 NA
ATOM     11  N   UNL     1      34.870 -18.095 -22.898  0.00  0.00    -0.293 N 
ATOM     12  C   UNL     1      34.735 -21.473 -17.574  0.00  0.00    -0.017 C 
ATOM     13  C   UNL     1      33.700 -21.016 -18.385  0.00  0.00    +0.056 C 
ATOM     14  C   UNL     1      36.052 -21.185 -17.915  0.00  0.00    -0.022 C 
ATOM     15  C   UNL     1      33.990 -20.269 -19.540  0.00  0.00    +0.029 C 
ATOM     16  C   UNL     1      35.316 -19.972 -19.895  0.00  0.00    +0.124 C 
ATOM     17  C   UNL     1      36.332 -20.442 -19.065  0.00  0.00    +0.085 C 
ATOM     18  C   UNL     1      33.003 -19.784 -20.393  0.00  0.00    +0.110 C 
ATOM     19  C   UNL     1      34.559 -18.845 -21.742  0.00  0.00    +0.141 C 
ATOM     20  H   UNL     1      35.808 -17.902 -23.121  0.00  0.00    +0.155 HD
ATOM     21  H   UNL     1      34.147 -17.766 -23.480  0.00  0.00    +0.155 HD
ENDBRANCH   3  12
BRANCH   2  22
ATOM     22  C   UNL     1      36.332 -23.866 -13.428  0.00  0.00    +0.058 C 
ATOM     23  C   UNL     1      37.610 -24.112 -13.927  0.00  0.00    +0.019 C 
ATOM     24  C   UNL     1      36.068 -24.038 -12.069  0.00  0.00    +0.015 C 
ATOM     25  C   UNL     1      38.626 -24.530 -13.068  0.00  0.00    +0.073 C 
ATOM     26  C   UNL     1      37.084 -24.456 -11.209  0.00  0.00    +0.001 C 
ATOM     27  C   UNL     1      38.363 -24.703 -11.709  0.00  0.00    +0.004 C 
BRANCH  25  31
ATOM     28  F   UNL     1      40.334 -26.117 -13.603  0.00  0.00    -0.166 F 
ATOM     29  F   UNL     1      40.167 -24.381 -14.891  0.00  0.00    -0.166 F 
ATOM     30  F   UNL     1      40.968 -24.166 -12.882  0.00  0.00    -0.166 F 
ATOM     31  C   UNL     1      39.994 -24.795 -13.601  0.00  0.00    +0.419 C 
ENDBRANCH  25  31
ENDBRANCH   2  22
TORSDOF 3
ENDMDL
MODEL 6
REMARK VINA RESULT:     -12.7     10.246     13.571
REMARK  Name = 24812719
REMARK  3 active torsions:
REMARK  status: ('A' for Active; 'I' for Inactive)
REMARK    1  A    between atoms: N_2  and  C_22
REMARK    2  A    between atoms: C_3  and  C_12
REMARK    3  A    between atoms: C_25  and  C_31
REMARK                            x       y       z     vdW  Elec       q    Type
REMARK                         _______ _______ _______ _____ _____    ______ ____
ROOT
ATOM      1  O   UNL     1      33.209 -11.029 -22.685  0.00  0.00    -0.269 OA
ATOM      2  N   UNL     1      33.041 -12.808 -21.151  0.00  0.00    -0.233 N 
ATOM      3  C   UNL     1      32.149 -10.530 -20.641  0.00  0.00    +0.046 C 
ATOM      4  C   UNL     1      31.651 -10.993 -19.477  0.00  0.00    -0.016 C 
ATOM      5  C   UNL     1      32.866 -11.472 -21.588  0.00  0.00    +0.256 C 
ATOM      6  C   UNL     1      32.488 -13.215 -19.942  0.00  0.00    +0.072 C 
ATOM      7  C   UNL     1      31.822 -12.386 -19.135  0.00  0.00    +0.012 C 
ATOM      8  C   UNL     1      30.912 -10.185 -18.443  0.00  0.00    +0.031 C 
ENDROOT
BRANCH   3  12
ATOM      9  N   UNL     1      31.576  -5.134 -22.191  0.00  0.00    -0.342 NA
ATOM     10  N   UNL     1      32.458  -4.399 -20.073  0.00  0.00    -0.170 NA
ATOM     11  N   UNL     1      31.806  -2.850 -21.706  0.00  0.00    -0.293 N 
ATOM     12  C   UNL     1      32.001  -9.118 -21.040  0.00  0.00    -0.017 C 
ATOM     13  C   UNL     1      32.374  -8.101 -20.166  0.00  0.00    +0.056 C 
ATOM     14  C   UNL     1      31.489  -8.794 -22.292  0.00  0.00    -0.022 C 
ATOM     15  C   UNL     1      32.232  -6.757 -20.552  0.00  0.00    +0.029 C 
ATOM     16  C   UNL     1      31.716  -6.417 -21.813  0.00  0.00    +0.124 C 
ATOM     17  C   UNL     1      31.351  -7.455 -22.667  0.00  0.00    +0.085 C 
ATOM     18  C   UNL     1      32.586  -5.693 -19.726  0.00  0.00    +0.110 C 
ATOM     19  C   UNL     1      31.955  -4.196 -21.301  0.00  0.00    +0.141 C 
ATOM     20  H   UNL     1      31.442  -2.642 -22.596  0.00  0.00    +0.155 HD
ATOM     21  H   UNL     1      32.067  -2.121 -21.098  0.00  0.00    +0.155 HD
ENDBRANCH   3  12
BRANCH   2  22
ATOM     22  C   UNL     1      33.770 -13.750 -21.978  0.00  0.00    +0.058 C 
ATOM     23  C   UNL     1      34.394 -14.853 -21.395  0.00  0.00    +0.019 C 
ATOM     24  C   UNL     1      33.851 -13.551 -23.356  0.00  0.00    +0.015 C 
ATOM     25  C   UNL     1      35.096 -15.758 -22.190  0.00  0.00    +0.073 C 
ATOM     26  C   UNL     1      34.553 -14.457 -24.151  0.00  0.00    +0.001 C 
ATOM     27  C   UNL     1      35.177 -15.560 -23.568  0.00  0.00    +0.004 C 
BRANCH  25  31
ATOM     28  F   UNL     1      37.007 -17.193 -22.072  0.00  0.00    -0.166 F 
ATOM     29  F   UNL     1      35.947 -16.813 -20.219  0.00  0.00    -0.166 F 
ATOM     30  F   UNL     1      35.055 -18.091 -21.735  0.00  0.00    -0.166 F 
ATOM     31  C   UNL     1      35.764 -16.937 -21.567  0.00  0.00    +0.419 C 
ENDBRANCH  25  31
ENDBRANCH   2  22
TORSDOF 3
ENDMDL
MODEL 7
REMARK VINA RESULT:     -12.5      1.524      1.951
REMARK  Name = 24812719
REMARK  3 active torsions:
REMARK  status: ('A' for Active; 'I' for Inactive)
REMARK    1  A    between atoms: N_2  and  C_22
REMARK    2  A    between atoms: C_3  and  C_12
REMARK    3  A    between atoms: C_25  and  C_31
REMARK                            x       y       z     vdW  Elec       q    Type
REMARK                         _______ _______ _______ _____ _____    ______ ____
ROOT
ATOM      1  O   UNL     1      36.288 -22.454 -16.534  0.00  0.00    -0.269 OA
ATOM      2  N   UNL     1      34.953 -23.489 -14.894  0.00  0.00    -0.233 N 
ATOM      3  C   UNL     1      33.964 -22.138 -16.748  0.00  0.00    +0.046 C 
ATOM      4  C   UNL     1      32.728 -22.466 -16.319  0.00  0.00    -0.016 C 
ATOM      5  C   UNL     1      35.184 -22.694 -16.042  0.00  0.00    +0.256 C 
ATOM      6  C   UNL     1      33.649 -23.794 -14.518  0.00  0.00    +0.072 C 
ATOM      7  C   UNL     1      32.581 -23.332 -15.173  0.00  0.00    +0.012 C 
ATOM      8  C   UNL     1      31.427 -22.001 -16.918  0.00  0.00    +0.031 C 
ENDROOT
BRANCH   3  12
ATOM      9  N   UNL     1      34.728 -18.772 -21.212  0.00  0.00    -0.342 NA
ATOM     10  N   UNL     1      37.095 -18.674 -20.774  0.00  0.00    -0.170 NA
ATOM     11  N   UNL     1      36.161 -17.525 -22.590  0.00  0.00    -0.293 N 
ATOM     12  C   UNL     1      34.171 -21.258 -17.913  0.00  0.00    -0.017 C 
ATOM     13  C   UNL     1      35.447 -20.804 -18.231  0.00  0.00    +0.056 C 
ATOM     14  C   UNL     1      33.091 -20.876 -18.702  0.00  0.00    -0.022 C 
ATOM     15  C   UNL     1      35.638 -19.966 -19.343  0.00  0.00    +0.029 C 
ATOM     16  C   UNL     1      34.556 -19.574 -20.147  0.00  0.00    +0.124 C 
ATOM     17  C   UNL     1      33.290 -20.042 -19.806  0.00  0.00    +0.085 C 
ATOM     18  C   UNL     1      36.888 -19.478 -19.715  0.00  0.00    +0.110 C 
ATOM     19  C   UNL     1      35.988 -18.366 -21.468  0.00  0.00    +0.141 C 
ATOM     20  H   UNL     1      35.384 -17.267 -23.135  0.00  0.00    +0.155 HD
ATOM     21  H   UNL     1      37.059 -17.198 -22.826  0.00  0.00    +0.155 HD
ENDBRANCH   3  12
BRANCH   2  22
ATOM     22  C   UNL     1      36.075 -24.005 -14.132  0.00  0.00    +0.058 C 
ATOM     23  C   UNL     1      36.612 -23.254 -13.088  0.00  0.00    +0.019 C 
ATOM     24  C   UNL     1      36.617 -25.250 -14.446  0.00  0.00    +0.015 C 
ATOM     25  C   UNL     1      37.691 -23.749 -12.356  0.00  0.00    +0.073 C 
ATOM     26  C   UNL     1      37.696 -25.746 -13.714  0.00  0.00    +0.001 C 
ATOM     27  C   UNL     1      38.234 -24.995 -12.670  0.00  0.00    +0.004 C 
BRANCH  25  31
ATOM     28  F   UNL     1      39.625 -23.054 -11.130  0.00  0.00    -0.166 F 
ATOM     29  F   UNL     1      38.026 -21.605 -11.348  0.00  0.00    -0.166 F 
ATOM     30  F   UNL     1      37.771 -23.308 -10.021  0.00  0.00    -0.166 F 
ATOM     31  C   UNL     1      38.268 -22.945 -11.239  0.00  0.00    +0.419 C 
ENDBRANCH  25  31
ENDBRANCH   2  22
TORSDOF 3
ENDMDL
MODEL 8
REMARK VINA RESULT:     -12.5     11.008     14.212
REMARK  Name = 24812719
REMARK  3 active torsions:
REMARK  status: ('A' for Active; 'I' for Inactive)
REMARK    1  A    between atoms: N_2  and  C_22
REMARK    2  A    between atoms: C_3  and  C_12
REMARK    3  A    between atoms: C_25  and  C_31
REMARK                            x       y       z     vdW  Elec       q    Type
REMARK                         _______ _______ _______ _____ _____    ______ ____
ROOT
ATOM      1  O   UNL     1      33.254 -10.990 -22.469  0.00  0.00    -0.269 OA
ATOM      2  N   UNL     1      32.983 -12.639 -20.809  0.00  0.00    -0.233 N 
ATOM      3  C   UNL     1      32.056 -10.333 -20.550  0.00  0.00    +0.046 C 
ATOM      4  C   UNL     1      31.480 -10.702 -19.388  0.00  0.00    -0.016 C 
ATOM      5  C   UNL     1      32.837 -11.344 -21.365  0.00  0.00    +0.256 C 
ATOM      6  C   UNL     1      32.349 -12.949 -19.611  0.00  0.00    +0.072 C 
ATOM      7  C   UNL     1      31.629 -12.061 -18.922  0.00  0.00    +0.012 C 
ATOM      8  C   UNL     1      30.672  -9.817 -18.477  0.00  0.00    +0.031 C 
ENDROOT
BRANCH   3  12
ATOM      9  N   UNL     1      31.585  -5.085 -22.573  0.00  0.00    -0.342 NA
ATOM     10  N   UNL     1      32.462  -4.180 -20.519  0.00  0.00    -0.170 NA
ATOM     11  N   UNL     1      31.848  -2.771 -22.288  0.00  0.00    -0.293 N 
ATOM     12  C   UNL     1      31.935  -8.959 -21.072  0.00  0.00    -0.017 C 
ATOM     13  C   UNL     1      32.317  -7.875 -20.288  0.00  0.00    +0.056 C 
ATOM     14  C   UNL     1      31.438  -8.738 -22.353  0.00  0.00    -0.022 C 
ATOM     15  C   UNL     1      32.201  -6.568 -20.791  0.00  0.00    +0.029 C 
ATOM     16  C   UNL     1      31.701  -6.332 -22.082  0.00  0.00    +0.124 C 
ATOM     17  C   UNL     1      31.326  -7.435 -22.845  0.00  0.00    +0.085 C 
ATOM     18  C   UNL     1      32.565  -5.441 -20.059  0.00  0.00    +0.110 C 
ATOM     19  C   UNL     1      31.972  -4.078 -21.765  0.00  0.00    +0.141 C 
ATOM     20  H   UNL     1      31.495  -2.637 -23.196  0.00  0.00    +0.155 HD
ATOM     21  H   UNL     1      32.116  -1.996 -21.743  0.00  0.00    +0.155 HD
ENDBRANCH   3  12
BRANCH   2  22
ATOM     22  C   UNL     1      33.768 -13.641 -21.504  0.00  0.00    +0.058 C 
ATOM     23  C   UNL     1      33.614 -13.818 -22.878  0.00  0.00    +0.019 C 
ATOM     24  C   UNL     1      34.676 -14.428 -20.797  0.00  0.00    +0.015 C 
ATOM     25  C   UNL     1      34.368 -14.782 -23.546  0.00  0.00    +0.073 C 
ATOM     26  C   UNL     1      35.431 -15.393 -21.465  0.00  0.00    +0.001 C 
ATOM     27  C   UNL     1      35.277 -15.571 -22.840  0.00  0.00    +0.004 C 
BRANCH  25  31
ATOM     28  F   UNL     1      33.061 -15.641 -25.357  0.00  0.00    -0.166 F 
ATOM     29  F   UNL     1      34.153 -13.802 -25.718  0.00  0.00    -0.166 F 
ATOM     30  F   UNL     1      35.225 -15.689 -25.571  0.00  0.00    -0.166 F 
ATOM     31  C   UNL     1      34.203 -14.974 -25.016  0.00  0.00    +0.419 C 
ENDBRANCH  25  31
ENDBRANCH   2  22
TORSDOF 3
ENDMDL
MODEL 9
REMARK VINA RESULT:     -12.3      4.715      9.025
REMARK  Name = 24812719
REMARK  3 active torsions:
REMARK  status: ('A' for Active; 'I' for Inactive)
REMARK    1  A    between atoms: N_2  and  C_22
REMARK    2  A    between atoms: C_3  and  C_12
REMARK    3  A    between atoms: C_25  and  C_31
REMARK                            x       y       z     vdW  Elec       q    Type
REMARK                         _______ _______ _______ _____ _____    ______ ____
ROOT
ATOM      1  O   UNL     1      36.530 -19.843 -18.714  0.00  0.00    -0.269 OA
ATOM      2  N   UNL     1      34.441 -19.750 -19.798  0.00  0.00    -0.233 N 
ATOM      3  C   UNL     1      34.834 -21.200 -17.801  0.00  0.00    +0.046 C 
ATOM      4  C   UNL     1      33.531 -21.548 -17.806  0.00  0.00    -0.016 C 
ATOM      5  C   UNL     1      35.359 -20.211 -18.823  0.00  0.00    +0.256 C 
ATOM      6  C   UNL     1      33.110 -20.144 -19.731  0.00  0.00    +0.072 C 
ATOM      7  C   UNL     1      32.650 -20.984 -18.801  0.00  0.00    +0.012 C 
ATOM      8  C   UNL     1      32.865 -22.507 -16.856  0.00  0.00    +0.031 C 
ENDROOT
BRANCH   3  12
ATOM      9  N   UNL     1      38.465 -23.271 -14.010  0.00  0.00    -0.342 NA
ATOM     10  N   UNL     1      36.774 -24.757 -13.154  0.00  0.00    -0.170 NA
ATOM     11  N   UNL     1      38.931 -24.739 -12.240  0.00  0.00    -0.293 N 
ATOM     12  C   UNL     1      35.778 -21.745 -16.807  0.00  0.00    -0.017 C 
ATOM     13  C   UNL     1      35.368 -22.738 -15.923  0.00  0.00    +0.056 C 
ATOM     14  C   UNL     1      37.084 -21.270 -16.749  0.00  0.00    -0.022 C 
ATOM     15  C   UNL     1      36.272 -23.255 -14.979  0.00  0.00    +0.029 C 
ATOM     16  C   UNL     1      37.593 -22.783 -14.910  0.00  0.00    +0.124 C 
ATOM     17  C   UNL     1      37.976 -21.789 -15.807  0.00  0.00    +0.085 C 
ATOM     18  C   UNL     1      35.926 -24.248 -14.067  0.00  0.00    +0.110 C 
ATOM     19  C   UNL     1      38.008 -24.231 -13.182  0.00  0.00    +0.141 C 
ATOM     20  H   UNL     1      39.850 -24.390 -12.215  0.00  0.00    +0.155 HD
ATOM     21  H   UNL     1      38.653 -25.442 -11.609  0.00  0.00    +0.155 HD
ENDBRANCH   3  12
BRANCH   2  22
ATOM     22  C   UNL     1      34.888 -18.849 -20.844  0.00  0.00    +0.058 C 
ATOM     23  C   UNL     1      34.377 -18.971 -22.135  0.00  0.00    +0.019 C 
ATOM     24  C   UNL     1      35.830 -17.862 -20.557  0.00  0.00    +0.015 C 
ATOM     25  C   UNL     1      34.806 -18.106 -23.140  0.00  0.00    +0.073 C 
ATOM     26  C   UNL     1      36.260 -16.996 -21.563  0.00  0.00    +0.001 C 
ATOM     27  C   UNL     1      35.749 -17.118 -22.855  0.00  0.00    +0.004 C 
BRANCH  25  31
ATOM     28  F   UNL     1      32.896 -18.276 -24.571  0.00  0.00    -0.166 F 
ATOM     29  F   UNL     1      34.617 -17.210 -25.350  0.00  0.00    -0.166 F 
ATOM     30  F   UNL     1      34.683 -19.374 -25.148  0.00  0.00    -0.166 F 
ATOM     31  C   UNL     1      34.260 -18.237 -24.522  0.00  0.00    +0.419 C 
ENDBRANCH  25  31
ENDBRANCH   2  22
TORSDOF 3
ENDMDL
