MODEL 1
REMARK VINA RESULT:     -12.1      0.000      0.000
REMARK  Name = 5327066
REMARK  6 active torsions:
REMARK  status: ('A' for Active; 'I' for Inactive)
REMARK    1  A    between atoms: C_2  and  C_6
REMARK    2  A    between atoms: C_2  and  C_20
REMARK    3  A    between atoms: C_3  and  O_9
REMARK    4  A    between atoms: O_9  and  C_11
REMARK    5  A    between atoms: N_18  and  C_24
REMARK    6  A    between atoms: C_21  and  N_30
REMARK                            x       y       z     vdW  Elec       q    Type
REMARK                         _______ _______ _______ _____ _____    ______ ____
ROOT
ATOM      1  O   UNL     1      33.901 -23.126 -19.099  0.00  0.00    -0.286 OA
ATOM      2  C   UNL     1      34.289 -22.229 -18.335  0.00  0.00    +0.200 C 
ENDROOT
BRANCH   2   6
ATOM      3  C   UNL     1      34.781 -22.536 -14.639  0.00  0.00    +0.138 C 
ATOM      4  C   UNL     1      35.058 -22.418 -15.997  0.00  0.00    +0.040 C 
ATOM      5  C   UNL     1      33.468 -22.590 -14.187  0.00  0.00    +0.037 C 
ATOM      6  C   UNL     1      34.008 -22.353 -16.912  0.00  0.00    +0.042 C 
ATOM      7  C   UNL     1      32.418 -22.524 -15.102  0.00  0.00    +0.003 C 
ATOM      8  C   UNL     1      32.688 -22.406 -16.465  0.00  0.00    +0.003 C 
BRANCH   3   9
ATOM      9  O   UNL     1      35.812 -22.600 -13.740  0.00  0.00    -0.479 OA
BRANCH   9  11
ATOM     10  N   UNL     1      38.282 -23.446 -11.293  0.00  0.00    +0.384 N 
ATOM     11  C   UNL     1      35.800 -23.695 -12.825  0.00  0.00    +0.162 C 
ATOM     12  C   UNL     1      35.825 -23.170 -11.389  0.00  0.00    +0.020 C 
ATOM     13  C   UNL     1      37.020 -24.574 -13.097  0.00  0.00    +0.020 C 
ATOM     14  C   UNL     1      37.171 -22.526 -11.048  0.00  0.00    -0.078 C 
ATOM     15  C   UNL     1      38.321 -23.879 -12.689  0.00  0.00    -0.078 C 
ATOM     16  H   UNL     1      38.172 -24.264 -10.694  0.00  0.00    -0.085 HD
ATOM     17  H   UNL     1      39.154 -22.958 -11.084  0.00  0.00    -0.085 HD
ENDBRANCH   9  11
ENDBRANCH   3   9
ENDBRANCH   2   6
BRANCH   2  20
ATOM     18  N   UNL     1      35.491 -19.243 -19.905  0.00  0.00    -0.177 N 
ATOM     19  N   UNL     1      36.636 -19.569 -19.282  0.00  0.00    -0.171 NA
ATOM     20  C   UNL     1      35.009 -21.052 -18.866  0.00  0.00    +0.088 C 
ATOM     21  C   UNL     1      34.472 -20.121 -19.677  0.00  0.00    +0.122 C 
ATOM     22  C   UNL     1      36.322 -20.697 -18.639  0.00  0.00    +0.124 C 
BRANCH  18  24
ATOM     23  F   UNL     1      35.297 -14.699 -23.017  0.00  0.00    -0.204 F 
ATOM     24  C   UNL     1      35.442 -18.092 -20.693  0.00  0.00    +0.075 C 
ATOM     25  C   UNL     1      35.491 -18.207 -22.076  0.00  0.00    +0.019 C 
ATOM     26  C   UNL     1      35.345 -16.849 -20.083  0.00  0.00    +0.019 C 
ATOM     27  C   UNL     1      35.443 -17.057 -22.863  0.00  0.00    +0.031 C 
ATOM     28  C   UNL     1      35.296 -15.699 -20.870  0.00  0.00    +0.031 C 
ATOM     29  C   UNL     1      35.345 -15.803 -22.261  0.00  0.00    +0.140 C 
ENDBRANCH  18  24
BRANCH  21  30
ATOM     30  N   UNL     1      33.245 -19.956 -20.222  0.00  0.00    -0.344 N 
ATOM     31  H   UNL     1      32.553 -20.645 -20.096  0.00  0.00    +0.144 HD
ATOM     32  H   UNL     1      33.044 -19.146 -20.744  0.00  0.00    +0.144 HD
ENDBRANCH  21  30
ENDBRANCH   2  20
TORSDOF 6
ENDMDL
MODEL 2
REMARK VINA RESULT:     -11.4      2.391      3.482
REMARK  Name = 5327066
REMARK  6 active torsions:
REMARK  status: ('A' for Active; 'I' for Inactive)
REMARK    1  A    between atoms: C_2  and  C_6
REMARK    2  A    between atoms: C_2  and  C_20
REMARK    3  A    between atoms: C_3  and  O_9
REMARK    4  A    between atoms: O_9  and  C_11
REMARK    5  A    between atoms: N_18  and  C_24
REMARK    6  A    between atoms: C_21  and  N_30
REMARK                            x       y       z     vdW  Elec       q    Type
REMARK                         _______ _______ _______ _____ _____    ______ ____
ROOT
ATOM      1  O   UNL     1      34.266 -22.607 -19.394  0.00  0.00    -0.286 OA
ATOM      2  C   UNL     1      34.857 -21.782 -18.681  0.00  0.00    +0.200 C 
ENDROOT
BRANCH   2   6
ATOM      3  C   UNL     1      33.979 -22.888 -15.217  0.00  0.00    +0.138 C 
ATOM      4  C   UNL     1      33.888 -22.654 -16.584  0.00  0.00    +0.040 C 
ATOM      5  C   UNL     1      35.112 -22.508 -14.507  0.00  0.00    +0.037 C 
ATOM      6  C   UNL     1      34.944 -22.031 -17.250  0.00  0.00    +0.042 C 
ATOM      7  C   UNL     1      36.168 -21.887 -15.173  0.00  0.00    +0.003 C 
ATOM      8  C   UNL     1      36.084 -21.647 -16.544  0.00  0.00    +0.003 C 
BRANCH   3   9
ATOM      9  O   UNL     1      32.942 -23.500 -14.563  0.00  0.00    -0.479 OA
BRANCH   9  11
ATOM     10  N   UNL     1      29.699 -24.639 -13.569  0.00  0.00    +0.384 N 
ATOM     11  C   UNL     1      31.768 -22.719 -14.349  0.00  0.00    +0.162 C 
ATOM     12  C   UNL     1      31.300 -22.874 -12.902  0.00  0.00    +0.020 C 
ATOM     13  C   UNL     1      30.683 -23.191 -15.317  0.00  0.00    +0.020 C 
ATOM     14  C   UNL     1      30.763 -24.281 -12.630  0.00  0.00    -0.078 C 
ATOM     15  C   UNL     1      30.167 -24.585 -14.954  0.00  0.00    -0.078 C 
ATOM     16  H   UNL     1      28.923 -23.986 -13.455  0.00  0.00    -0.085 HD
ATOM     17  H   UNL     1      29.402 -25.594 -13.368  0.00  0.00    -0.085 HD
ENDBRANCH   9  11
ENDBRANCH   3   9
ENDBRANCH   2   6
BRANCH   2  20
ATOM     18  N   UNL     1      35.697 -18.701 -20.302  0.00  0.00    -0.177 N 
ATOM     19  N   UNL     1      36.940 -19.016 -19.901  0.00  0.00    -0.171 NA
ATOM     20  C   UNL     1      35.445 -20.564 -19.276  0.00  0.00    +0.088 C 
ATOM     21  C   UNL     1      34.753 -19.618 -19.940  0.00  0.00    +0.122 C 
ATOM     22  C   UNL     1      36.769 -20.177 -19.264  0.00  0.00    +0.124 C 
BRANCH  18  24
ATOM     23  F   UNL     1      34.857 -14.045 -23.129  0.00  0.00    -0.204 F 
ATOM     24  C   UNL     1      35.484 -17.522 -21.018  0.00  0.00    +0.075 C 
ATOM     25  C   UNL     1      35.480 -17.556 -22.406  0.00  0.00    +0.019 C 
ATOM     26  C   UNL     1      35.280 -16.333 -20.332  0.00  0.00    +0.019 C 
ATOM     27  C   UNL     1      35.269 -16.378 -23.121  0.00  0.00    +0.031 C 
ATOM     28  C   UNL     1      35.067 -15.154 -21.047  0.00  0.00    +0.031 C 
ATOM     29  C   UNL     1      35.061 -15.177 -22.442  0.00  0.00    +0.140 C 
ENDBRANCH  18  24
BRANCH  21  30
ATOM     30  N   UNL     1      33.447 -19.470 -20.257  0.00  0.00    -0.344 N 
ATOM     31  H   UNL     1      33.067 -18.568 -20.367  0.00  0.00    +0.144 HD
ATOM     32  H   UNL     1      32.877 -20.263 -20.377  0.00  0.00    +0.144 HD
ENDBRANCH  21  30
ENDBRANCH   2  20
TORSDOF 6
ENDMDL
MODEL 3
REMARK VINA RESULT:     -11.0      2.916      4.597
REMARK  Name = 5327066
REMARK  6 active torsions:
REMARK  status: ('A' for Active; 'I' for Inactive)
REMARK    1  A    between atoms: C_2  and  C_6
REMARK    2  A    between atoms: C_2  and  C_20
REMARK    3  A    between atoms: C_3  and  O_9
REMARK    4  A    between atoms: O_9  and  C_11
REMARK    5  A    between atoms: N_18  and  C_24
REMARK    6  A    between atoms: C_21  and  N_30
REMARK                            x       y       z     vdW  Elec       q    Type
REMARK                         _______ _______ _______ _____ _____    ______ ____
ROOT
ATOM      1  O   UNL     1      37.659 -18.551 -20.622  0.00  0.00    -0.286 OA
ATOM      2  C   UNL     1      36.426 -18.417 -20.644  0.00  0.00    +0.200 C 
ENDROOT
BRANCH   2   6
ATOM      3  C   UNL     1      35.391 -21.129 -18.284  0.00  0.00    +0.138 C 
ATOM      4  C   UNL     1      36.181 -20.208 -18.963  0.00  0.00    +0.040 C 
ATOM      5  C   UNL     1      34.033 -21.235 -18.560  0.00  0.00    +0.037 C 
ATOM      6  C   UNL     1      35.606 -19.384 -19.929  0.00  0.00    +0.042 C 
ATOM      7  C   UNL     1      33.457 -20.410 -19.525  0.00  0.00    +0.003 C 
ATOM      8  C   UNL     1      34.243 -19.484 -20.211  0.00  0.00    +0.003 C 
BRANCH   3   9
ATOM      9  O   UNL     1      35.956 -21.939 -17.335  0.00  0.00    -0.479 OA
BRANCH   9  11
ATOM     10  N   UNL     1      37.374 -23.495 -14.441  0.00  0.00    +0.384 N 
ATOM     11  C   UNL     1      36.010 -21.428 -16.004  0.00  0.00    +0.162 C 
ATOM     12  C   UNL     1      37.467 -21.290 -15.561  0.00  0.00    +0.020 C 
ATOM     13  C   UNL     1      35.257 -22.386 -15.081  0.00  0.00    +0.020 C 
ATOM     14  C   UNL     1      38.131 -22.656 -15.372  0.00  0.00    -0.078 C 
ATOM     15  C   UNL     1      36.005 -23.709 -14.908  0.00  0.00    -0.078 C 
ATOM     16  H   UNL     1      37.347 -23.037 -13.530  0.00  0.00    -0.085 HD
ATOM     17  H   UNL     1      37.838 -24.402 -14.378  0.00  0.00    -0.085 HD
ENDBRANCH   9  11
ENDBRANCH   3   9
ENDBRANCH   2   6
BRANCH   2  20
ATOM     18  N   UNL     1      34.867 -15.450 -21.903  0.00  0.00    -0.177 N 
ATOM     19  N   UNL     1      35.013 -16.068 -23.086  0.00  0.00    -0.171 NA
ATOM     20  C   UNL     1      35.807 -17.305 -21.395  0.00  0.00    +0.088 C 
ATOM     21  C   UNL     1      35.340 -16.168 -20.844  0.00  0.00    +0.122 C 
ATOM     22  C   UNL     1      35.600 -17.222 -22.756  0.00  0.00    +0.124 C 
BRANCH  18  24
ATOM     23  F   UNL     1      32.527 -10.463 -21.722  0.00  0.00    -0.204 F 
ATOM     24  C   UNL     1      34.275 -14.186 -21.857  0.00  0.00    +0.075 C 
ATOM     25  C   UNL     1      33.395 -13.881 -20.828  0.00  0.00    +0.019 C 
ATOM     26  C   UNL     1      34.574 -13.255 -22.841  0.00  0.00    +0.019 C 
ATOM     27  C   UNL     1      32.802 -12.619 -20.783  0.00  0.00    +0.031 C 
ATOM     28  C   UNL     1      33.982 -11.992 -22.795  0.00  0.00    +0.031 C 
ATOM     29  C   UNL     1      33.096 -11.675 -21.766  0.00  0.00    +0.140 C 
ENDBRANCH  18  24
BRANCH  21  30
ATOM     30  N   UNL     1      35.278 -15.705 -19.575  0.00  0.00    -0.344 N 
ATOM     31  H   UNL     1      35.561 -16.279 -18.827  0.00  0.00    +0.144 HD
ATOM     32  H   UNL     1      34.951 -14.793 -19.399  0.00  0.00    +0.144 HD
ENDBRANCH  21  30
ENDBRANCH   2  20
TORSDOF 6
ENDMDL
MODEL 4
REMARK VINA RESULT:     -10.9      1.242      1.993
REMARK  Name = 5327066
REMARK  6 active torsions:
REMARK  status: ('A' for Active; 'I' for Inactive)
REMARK    1  A    between atoms: C_2  and  C_6
REMARK    2  A    between atoms: C_2  and  C_20
REMARK    3  A    between atoms: C_3  and  O_9
REMARK    4  A    between atoms: O_9  and  C_11
REMARK    5  A    between atoms: N_18  and  C_24
REMARK    6  A    between atoms: C_21  and  N_30
REMARK                            x       y       z     vdW  Elec       q    Type
REMARK                         _______ _______ _______ _____ _____    ______ ____
ROOT
ATOM      1  O   UNL     1      37.346 -21.164 -18.333  0.00  0.00    -0.286 OA
ATOM      2  C   UNL     1      36.115 -21.034 -18.239  0.00  0.00    +0.200 C 
ENDROOT
BRANCH   2   6
ATOM      3  C   UNL     1      35.414 -22.345 -14.807  0.00  0.00    +0.138 C 
ATOM      4  C   UNL     1      36.074 -21.755 -15.878  0.00  0.00    +0.040 C 
ATOM      5  C   UNL     1      34.121 -22.834 -14.954  0.00  0.00    +0.037 C 
ATOM      6  C   UNL     1      35.432 -21.652 -17.113  0.00  0.00    +0.042 C 
ATOM      7  C   UNL     1      33.479 -22.730 -16.187  0.00  0.00    +0.003 C 
ATOM      8  C   UNL     1      34.135 -22.139 -17.267  0.00  0.00    +0.003 C 
BRANCH   3   9
ATOM      9  O   UNL     1      36.045 -22.447 -13.595  0.00  0.00    -0.479 OA
BRANCH   9  11
ATOM     10  N   UNL     1      38.073 -23.845 -10.999  0.00  0.00    +0.384 N 
ATOM     11  C   UNL     1      35.811 -23.639 -12.847  0.00  0.00    +0.162 C 
ATOM     12  C   UNL     1      35.687 -23.301 -11.361  0.00  0.00    +0.020 C 
ATOM     13  C   UNL     1      36.974 -24.601 -13.083  0.00  0.00    +0.020 C 
ATOM     14  C   UNL     1      37.024 -22.849 -10.771  0.00  0.00    -0.078 C 
ATOM     15  C   UNL     1      38.263 -24.103 -12.426  0.00  0.00    -0.078 C 
ATOM     16  H   UNL     1      37.810 -24.715 -10.536  0.00  0.00    -0.085 HD
ATOM     17  H   UNL     1      38.947 -23.481 -10.620  0.00  0.00    -0.085 HD
ENDBRANCH   9  11
ENDBRANCH   3   9
ENDBRANCH   2   6
BRANCH   2  20
ATOM     18  N   UNL     1      34.846 -18.954 -20.863  0.00  0.00    -0.177 N 
ATOM     19  N   UNL     1      33.673 -19.512 -20.519  0.00  0.00    -0.171 NA
ATOM     20  C   UNL     1      35.363 -20.279 -19.262  0.00  0.00    +0.088 C 
ATOM     21  C   UNL     1      35.904 -19.394 -20.121  0.00  0.00    +0.122 C 
ATOM     22  C   UNL     1      34.009 -20.335 -19.522  0.00  0.00    +0.124 C 
BRANCH  18  24
ATOM     23  F   UNL     1      34.995 -15.255 -24.947  0.00  0.00    -0.204 F 
ATOM     24  C   UNL     1      34.884 -18.017 -21.897  0.00  0.00    +0.075 C 
ATOM     25  C   UNL     1      35.318 -16.725 -21.634  0.00  0.00    +0.019 C 
ATOM     26  C   UNL     1      34.488 -18.392 -23.174  0.00  0.00    +0.019 C 
ATOM     27  C   UNL     1      35.354 -15.789 -22.668  0.00  0.00    +0.031 C 
ATOM     28  C   UNL     1      34.526 -17.456 -24.207  0.00  0.00    +0.031 C 
ATOM     29  C   UNL     1      34.959 -16.154 -23.954  0.00  0.00    +0.140 C 
ENDBRANCH  18  24
BRANCH  21  30
ATOM     30  N   UNL     1      37.162 -18.944 -20.325  0.00  0.00    -0.344 N 
ATOM     31  H   UNL     1      37.438 -18.071 -19.960  0.00  0.00    +0.144 HD
ATOM     32  H   UNL     1      37.803 -19.488 -20.836  0.00  0.00    +0.144 HD
ENDBRANCH  21  30
ENDBRANCH   2  20
TORSDOF 6
ENDMDL
MODEL 5
REMARK VINA RESULT:     -10.5      0.803      1.623
REMARK  Name = 5327066
REMARK  6 active torsions:
REMARK  status: ('A' for Active; 'I' for Inactive)
REMARK    1  A    between atoms: C_2  and  C_6
REMARK    2  A    between atoms: C_2  and  C_20
REMARK    3  A    between atoms: C_3  and  O_9
REMARK    4  A    between atoms: O_9  and  C_11
REMARK    5  A    between atoms: N_18  and  C_24
REMARK    6  A    between atoms: C_21  and  N_30
REMARK                            x       y       z     vdW  Elec       q    Type
REMARK                         _______ _______ _______ _____ _____    ______ ____
ROOT
ATOM      1  O   UNL     1      34.236 -23.603 -18.683  0.00  0.00    -0.286 OA
ATOM      2  C   UNL     1      33.920 -22.563 -18.086  0.00  0.00    +0.200 C 
ENDROOT
BRANCH   2   6
ATOM      3  C   UNL     1      34.709 -22.693 -14.432  0.00  0.00    +0.138 C 
ATOM      4  C   UNL     1      34.875 -22.647 -15.811  0.00  0.00    +0.040 C 
ATOM      5  C   UNL     1      33.437 -22.702 -13.872  0.00  0.00    +0.037 C 
ATOM      6  C   UNL     1      33.754 -22.611 -16.641  0.00  0.00    +0.042 C 
ATOM      7  C   UNL     1      32.316 -22.664 -14.701  0.00  0.00    +0.003 C 
ATOM      8  C   UNL     1      32.475 -22.619 -16.086  0.00  0.00    +0.003 C 
BRANCH   3   9
ATOM      9  O   UNL     1      35.809 -22.729 -13.616  0.00  0.00    -0.479 OA
BRANCH   9  11
ATOM     10  N   UNL     1      38.399 -23.412 -11.243  0.00  0.00    +0.384 N 
ATOM     11  C   UNL     1      35.831 -23.740 -12.610  0.00  0.00    +0.162 C 
ATOM     12  C   UNL     1      35.946 -23.094 -11.229  0.00  0.00    +0.020 C 
ATOM     13  C   UNL     1      37.019 -24.665 -12.870  0.00  0.00    +0.020 C 
ATOM     14  C   UNL     1      37.319 -22.450 -11.020  0.00  0.00    -0.078 C 
ATOM     15  C   UNL     1      38.352 -23.964 -12.597  0.00  0.00    -0.078 C 
ATOM     16  H   UNL     1      38.310 -24.173 -10.570  0.00  0.00    -0.085 HD
ATOM     17  H   UNL     1      39.289 -22.926 -11.126  0.00  0.00    -0.085 HD
ENDBRANCH   9  11
ENDBRANCH   3   9
ENDBRANCH   2   6
BRANCH   2  20
ATOM     18  N   UNL     1      34.001 -19.563 -20.039  0.00  0.00    -0.177 N 
ATOM     19  N   UNL     1      32.700 -19.504 -19.709  0.00  0.00    -0.171 NA
ATOM     20  C   UNL     1      33.702 -21.307 -18.833  0.00  0.00    +0.088 C 
ATOM     21  C   UNL     1      34.651 -20.648 -19.526  0.00  0.00    +0.122 C 
ATOM     22  C   UNL     1      32.528 -20.595 -18.959  0.00  0.00    +0.124 C 
BRANCH  18  24
ATOM     23  F   UNL     1      36.178 -15.605 -23.198  0.00  0.00    -0.204 F 
ATOM     24  C   UNL     1      34.553 -18.560 -20.839  0.00  0.00    +0.075 C 
ATOM     25  C   UNL     1      35.053 -17.410 -20.246  0.00  0.00    +0.019 C 
ATOM     26  C   UNL     1      34.592 -18.729 -22.216  0.00  0.00    +0.019 C 
ATOM     27  C   UNL     1      35.603 -16.408 -21.045  0.00  0.00    +0.031 C 
ATOM     28  C   UNL     1      35.143 -17.728 -23.016  0.00  0.00    +0.031 C 
ATOM     29  C   UNL     1      35.649 -16.567 -22.430  0.00  0.00    +0.140 C 
ENDBRANCH  18  24
BRANCH  21  30
ATOM     30  N   UNL     1      35.964 -20.873 -19.753  0.00  0.00    -0.344 N 
ATOM     31  H   UNL     1      36.552 -21.146 -19.012  0.00  0.00    +0.144 HD
ATOM     32  H   UNL     1      36.333 -20.765 -20.659  0.00  0.00    +0.144 HD
ENDBRANCH  21  30
ENDBRANCH   2  20
TORSDOF 6
ENDMDL
MODEL 6
REMARK VINA RESULT:     -10.5      2.659      4.478
REMARK  Name = 5327066
REMARK  6 active torsions:
REMARK  status: ('A' for Active; 'I' for Inactive)
REMARK    1  A    between atoms: C_2  and  C_6
REMARK    2  A    between atoms: C_2  and  C_20
REMARK    3  A    between atoms: C_3  and  O_9
REMARK    4  A    between atoms: O_9  and  C_11
REMARK    5  A    between atoms: N_18  and  C_24
REMARK    6  A    between atoms: C_21  and  N_30
REMARK                            x       y       z     vdW  Elec       q    Type
REMARK                         _______ _______ _______ _____ _____    ______ ____
ROOT
ATOM      1  O   UNL     1      37.036 -21.500 -17.774  0.00  0.00    -0.286 OA
ATOM      2  C   UNL     1      35.806 -21.345 -17.760  0.00  0.00    +0.200 C 
ENDROOT
BRANCH   2   6
ATOM      3  C   UNL     1      32.952 -22.780 -15.813  0.00  0.00    +0.138 C 
ATOM      4  C   UNL     1      33.678 -22.206 -16.851  0.00  0.00    +0.040 C 
ATOM      5  C   UNL     1      33.567 -23.095 -14.607  0.00  0.00    +0.037 C 
ATOM      6  C   UNL     1      35.038 -21.945 -16.679  0.00  0.00    +0.042 C 
ATOM      7  C   UNL     1      34.927 -22.835 -14.437  0.00  0.00    +0.003 C 
ATOM      8  C   UNL     1      35.662 -22.259 -15.472  0.00  0.00    +0.003 C 
BRANCH   3   9
ATOM      9  O   UNL     1      31.617 -23.037 -15.981  0.00  0.00    -0.479 OA
BRANCH   9  11
ATOM     10  N   UNL     1      28.101 -22.809 -15.356  0.00  0.00    +0.384 N 
ATOM     11  C   UNL     1      30.901 -23.490 -14.834  0.00  0.00    +0.162 C 
ATOM     12  C   UNL     1      29.868 -24.538 -15.249  0.00  0.00    +0.020 C 
ATOM     13  C   UNL     1      30.215 -22.291 -14.180  0.00  0.00    +0.020 C 
ATOM     14  C   UNL     1      28.734 -23.919 -16.070  0.00  0.00    -0.078 C 
ATOM     15  C   UNL     1      29.067 -21.757 -15.039  0.00  0.00    -0.078 C 
ATOM     16  H   UNL     1      27.696 -23.161 -14.488  0.00  0.00    -0.085 HD
ATOM     17  H   UNL     1      27.379 -22.411 -15.958  0.00  0.00    -0.085 HD
ENDBRANCH   9  11
ENDBRANCH   3   9
ENDBRANCH   2   6
BRANCH   2  20
ATOM     18  N   UNL     1      34.750 -19.239 -20.457  0.00  0.00    -0.177 N 
ATOM     19  N   UNL     1      33.551 -19.790 -20.205  0.00  0.00    -0.171 NA
ATOM     20  C   UNL     1      35.136 -20.578 -18.831  0.00  0.00    +0.088 C 
ATOM     21  C   UNL     1      35.746 -19.693 -19.642  0.00  0.00    +0.122 C 
ATOM     22  C   UNL     1      33.806 -20.621 -19.191  0.00  0.00    +0.124 C 
BRANCH  18  24
ATOM     23  F   UNL     1      35.232 -15.519 -24.495  0.00  0.00    -0.204 F 
ATOM     24  C   UNL     1      34.872 -18.297 -21.480  0.00  0.00    +0.075 C 
ATOM     25  C   UNL     1      34.529 -18.648 -22.778  0.00  0.00    +0.019 C 
ATOM     26  C   UNL     1      35.335 -17.022 -21.183  0.00  0.00    +0.019 C 
ATOM     27  C   UNL     1      34.652 -17.707 -23.800  0.00  0.00    +0.031 C 
ATOM     28  C   UNL     1      35.457 -16.080 -22.205  0.00  0.00    +0.031 C 
ATOM     29  C   UNL     1      35.115 -16.423 -23.513  0.00  0.00    +0.140 C 
ENDBRANCH  18  24
BRANCH  21  30
ATOM     30  N   UNL     1      37.020 -19.251 -19.749  0.00  0.00    -0.344 N 
ATOM     31  H   UNL     1      37.475 -19.265 -20.622  0.00  0.00    +0.144 HD
ATOM     32  H   UNL     1      37.492 -18.914 -18.954  0.00  0.00    +0.144 HD
ENDBRANCH  21  30
ENDBRANCH   2  20
TORSDOF 6
ENDMDL
MODEL 7
REMARK VINA RESULT:     -10.2      7.145     11.023
REMARK  Name = 5327066
REMARK  6 active torsions:
REMARK  status: ('A' for Active; 'I' for Inactive)
REMARK    1  A    between atoms: C_2  and  C_6
REMARK    2  A    between atoms: C_2  and  C_20
REMARK    3  A    between atoms: C_3  and  O_9
REMARK    4  A    between atoms: O_9  and  C_11
REMARK    5  A    between atoms: N_18  and  C_24
REMARK    6  A    between atoms: C_21  and  N_30
REMARK                            x       y       z     vdW  Elec       q    Type
REMARK                         _______ _______ _______ _____ _____    ______ ____
ROOT
ATOM      1  O   UNL     1      32.166 -12.608 -21.099  0.00  0.00    -0.286 OA
ATOM      2  C   UNL     1      32.967 -12.383 -22.019  0.00  0.00    +0.200 C 
ENDROOT
BRANCH   2   6
ATOM      3  C   UNL     1      35.056 -15.448 -22.504  0.00  0.00    +0.138 C 
ATOM      4  C   UNL     1      34.421 -14.374 -21.890  0.00  0.00    +0.040 C 
ATOM      5  C   UNL     1      34.918 -15.667 -23.869  0.00  0.00    +0.037 C 
ATOM      6  C   UNL     1      33.636 -13.509 -22.653  0.00  0.00    +0.042 C 
ATOM      7  C   UNL     1      34.132 -14.802 -24.631  0.00  0.00    +0.003 C 
ATOM      8  C   UNL     1      33.492 -13.723 -24.024  0.00  0.00    +0.003 C 
BRANCH   3   9
ATOM      9  O   UNL     1      35.827 -16.297 -21.755  0.00  0.00    -0.479 OA
BRANCH   9  11
ATOM     10  N   UNL     1      35.979 -19.485 -20.136  0.00  0.00    +0.384 N 
ATOM     11  C   UNL     1      36.141 -17.561 -22.337  0.00  0.00    +0.162 C 
ATOM     12  C   UNL     1      34.959 -18.516 -22.172  0.00  0.00    +0.020 C 
ATOM     13  C   UNL     1      37.385 -18.122 -21.648  0.00  0.00    +0.020 C 
ATOM     14  C   UNL     1      34.758 -18.916 -20.708  0.00  0.00    -0.078 C 
ATOM     15  C   UNL     1      37.093 -18.539 -20.206  0.00  0.00    -0.078 C 
ATOM     16  H   UNL     1      36.226 -20.328 -20.655  0.00  0.00    -0.085 HD
ATOM     17  H   UNL     1      35.802 -19.701 -19.155  0.00  0.00    -0.085 HD
ENDBRANCH   9  11
ENDBRANCH   3   9
ENDBRANCH   2   6
BRANCH   2  20
ATOM     18  N   UNL     1      33.138  -8.874 -22.711  0.00  0.00    -0.177 N 
ATOM     19  N   UNL     1      34.201  -9.235 -23.450  0.00  0.00    -0.171 NA
ATOM     20  C   UNL     1      33.243 -10.996 -22.449  0.00  0.00    +0.088 C 
ATOM     21  C   UNL     1      32.525  -9.918 -22.082  0.00  0.00    +0.122 C 
ATOM     22  C   UNL     1      34.255 -10.558 -23.277  0.00  0.00    +0.124 C 
BRANCH  18  24
ATOM     23  F   UNL     1      31.676  -3.565 -22.475  0.00  0.00    -0.204 F 
ATOM     24  C   UNL     1      32.768  -7.529 -22.652  0.00  0.00    +0.075 C 
ATOM     25  C   UNL     1      32.976  -6.814 -21.480  0.00  0.00    +0.019 C 
ATOM     26  C   UNL     1      32.197  -6.927 -23.764  0.00  0.00    +0.019 C 
ATOM     27  C   UNL     1      32.605  -5.471 -21.421  0.00  0.00    +0.031 C 
ATOM     28  C   UNL     1      31.827  -5.583 -23.705  0.00  0.00    +0.031 C 
ATOM     29  C   UNL     1      32.031  -4.855 -22.533  0.00  0.00    +0.140 C 
ENDBRANCH  18  24
BRANCH  21  30
ATOM     30  N   UNL     1      31.439  -9.745 -21.295  0.00  0.00    -0.344 N 
ATOM     31  H   UNL     1      31.165  -8.839 -21.025  0.00  0.00    +0.144 HD
ATOM     32  H   UNL     1      30.921 -10.526 -20.993  0.00  0.00    +0.144 HD
ENDBRANCH  21  30
ENDBRANCH   2  20
TORSDOF 6
ENDMDL
MODEL 8
REMARK VINA RESULT:     -10.0      6.290     12.473
REMARK  Name = 5327066
REMARK  6 active torsions:
REMARK  status: ('A' for Active; 'I' for Inactive)
REMARK    1  A    between atoms: C_2  and  C_6
REMARK    2  A    between atoms: C_2  and  C_20
REMARK    3  A    between atoms: C_3  and  O_9
REMARK    4  A    between atoms: O_9  and  C_11
REMARK    5  A    between atoms: N_18  and  C_24
REMARK    6  A    between atoms: C_21  and  N_30
REMARK                            x       y       z     vdW  Elec       q    Type
REMARK                         _______ _______ _______ _____ _____    ______ ____
ROOT
ATOM      1  O   UNL     1      34.733 -12.993 -20.904  0.00  0.00    -0.286 OA
ATOM      2  C   UNL     1      34.686 -13.635 -21.964  0.00  0.00    +0.200 C 
ENDROOT
BRANCH   2   6
ATOM      3  C   UNL     1      34.118 -10.887 -24.438  0.00  0.00    +0.138 C 
ATOM      4  C   UNL     1      34.460 -11.549 -23.264  0.00  0.00    +0.040 C 
ATOM      5  C   UNL     1      33.649 -11.595 -25.539  0.00  0.00    +0.037 C 
ATOM      6  C   UNL     1      34.331 -12.936 -23.190  0.00  0.00    +0.042 C 
ATOM      7  C   UNL     1      33.522 -12.982 -25.465  0.00  0.00    +0.003 C 
ATOM      8  C   UNL     1      33.862 -13.652 -24.291  0.00  0.00    +0.003 C 
BRANCH   3   9
ATOM      9  O   UNL     1      34.244  -9.525 -24.511  0.00  0.00    -0.479 OA
BRANCH   9  11
ATOM     10  N   UNL     1      33.146  -6.186 -23.840  0.00  0.00    +0.384 N 
ATOM     11  C   UNL     1      34.297  -8.818 -23.273  0.00  0.00    +0.162 C 
ATOM     12  C   UNL     1      32.884  -8.432 -22.836  0.00  0.00    +0.020 C 
ATOM     13  C   UNL     1      35.161  -7.571 -23.458  0.00  0.00    +0.020 C 
ATOM     14  C   UNL     1      32.282  -7.364 -23.753  0.00  0.00    -0.078 C 
ATOM     15  C   UNL     1      34.473  -6.534 -24.348  0.00  0.00    -0.078 C 
ATOM     16  H   UNL     1      33.243  -5.776 -22.911  0.00  0.00    -0.085 HD
ATOM     17  H   UNL     1      32.719  -5.523 -24.487  0.00  0.00    -0.085 HD
ENDBRANCH   9  11
ENDBRANCH   3   9
ENDBRANCH   2   6
BRANCH   2  20
ATOM     18  N   UNL     1      35.342 -17.104 -21.366  0.00  0.00    -0.177 N 
ATOM     19  N   UNL     1      35.422 -17.155 -22.706  0.00  0.00    -0.171 NA
ATOM     20  C   UNL     1      34.974 -15.085 -21.975  0.00  0.00    +0.088 C 
ATOM     21  C   UNL     1      35.069 -15.860 -20.877  0.00  0.00    +0.122 C 
ATOM     22  C   UNL     1      35.191 -15.892 -23.072  0.00  0.00    +0.124 C 
BRANCH  18  24
ATOM     23  F   UNL     1      36.104 -21.704 -18.427  0.00  0.00    -0.204 F 
ATOM     24  C   UNL     1      35.535 -18.270 -20.622  0.00  0.00    +0.075 C 
ATOM     25  C   UNL     1      34.442 -19.057 -20.287  0.00  0.00    +0.019 C 
ATOM     26  C   UNL     1      36.818 -18.624 -20.227  0.00  0.00    +0.019 C 
ATOM     27  C   UNL     1      34.635 -20.220 -19.543  0.00  0.00    +0.031 C 
ATOM     28  C   UNL     1      37.011 -19.788 -19.483  0.00  0.00    +0.031 C 
ATOM     29  C   UNL     1      35.919 -20.586 -19.141  0.00  0.00    +0.140 C 
ENDBRANCH  18  24
BRANCH  21  30
ATOM     30  N   UNL     1      34.951 -15.617 -19.553  0.00  0.00    -0.344 N 
ATOM     31  H   UNL     1      34.062 -15.613 -19.129  0.00  0.00    +0.144 HD
ATOM     32  H   UNL     1      35.755 -15.445 -19.011  0.00  0.00    +0.144 HD
ENDBRANCH  21  30
ENDBRANCH   2  20
TORSDOF 6
ENDMDL
MODEL 9
REMARK VINA RESULT:     -10.0      4.353     10.483
REMARK  Name = 5327066
REMARK  6 active torsions:
REMARK  status: ('A' for Active; 'I' for Inactive)
REMARK    1  A    between atoms: C_2  and  C_6
REMARK    2  A    between atoms: C_2  and  C_20
REMARK    3  A    between atoms: C_3  and  O_9
REMARK    4  A    between atoms: O_9  and  C_11
REMARK    5  A    between atoms: N_18  and  C_24
REMARK    6  A    between atoms: C_21  and  N_30
REMARK                            x       y       z     vdW  Elec       q    Type
REMARK                         _______ _______ _______ _____ _____    ______ ____
ROOT
ATOM      1  O   UNL     1      35.333 -18.610 -22.856  0.00  0.00    -0.286 OA
ATOM      2  C   UNL     1      35.418 -18.188 -21.692  0.00  0.00    +0.200 C 
ENDROOT
BRANCH   2   6
ATOM      3  C   UNL     1      34.928 -14.527 -22.282  0.00  0.00    +0.138 C 
ATOM      4  C   UNL     1      35.110 -15.884 -22.523  0.00  0.00    +0.040 C 
ATOM      5  C   UNL     1      34.863 -14.041 -20.981  0.00  0.00    +0.037 C 
ATOM      6  C   UNL     1      35.228 -16.766 -21.448  0.00  0.00    +0.042 C 
ATOM      7  C   UNL     1      34.980 -14.923 -19.907  0.00  0.00    +0.003 C 
ATOM      8  C   UNL     1      35.163 -16.286 -20.141  0.00  0.00    +0.003 C 
BRANCH   3   9
ATOM      9  O   UNL     1      34.812 -13.661 -23.337  0.00  0.00    -0.479 OA
BRANCH   9  11
ATOM     10  N   UNL     1      34.023 -10.779 -25.306  0.00  0.00    +0.384 N 
ATOM     11  C   UNL     1      33.534 -13.061 -23.538  0.00  0.00    +0.162 C 
ATOM     12  C   UNL     1      33.178 -13.087 -25.025  0.00  0.00    +0.020 C 
ATOM     13  C   UNL     1      33.580 -11.623 -23.023  0.00  0.00    +0.020 C 
ATOM     14  C   UNL     1      34.069 -12.143 -25.835  0.00  0.00    -0.078 C 
ATOM     15  C   UNL     1      34.454 -10.733 -23.909  0.00  0.00    -0.078 C 
ATOM     16  H   UNL     1      33.066 -10.431 -25.371  0.00  0.00    -0.085 HD
ATOM     17  H   UNL     1      34.658 -10.201 -25.857  0.00  0.00    -0.085 HD
ENDBRANCH   9  11
ENDBRANCH   3   9
ENDBRANCH   2   6
BRANCH   2  20
ATOM     18  N   UNL     1      35.527 -20.469 -18.934  0.00  0.00    -0.177 N 
ATOM     19  N   UNL     1      36.856 -20.363 -19.107  0.00  0.00    -0.171 NA
ATOM     20  C   UNL     1      35.720 -19.115 -20.581  0.00  0.00    +0.088 C 
ATOM     21  C   UNL     1      34.796 -19.725 -19.813  0.00  0.00    +0.122 C 
ATOM     22  C   UNL     1      36.961 -19.517 -20.135  0.00  0.00    +0.124 C 
BRANCH  18  24
ATOM     23  F   UNL     1      33.565 -23.712 -14.933  0.00  0.00    -0.204 F 
ATOM     24  C   UNL     1      35.030 -21.291 -17.920  0.00  0.00    +0.075 C 
ATOM     25  C   UNL     1      33.746 -21.805 -18.025  0.00  0.00    +0.019 C 
ATOM     26  C   UNL     1      35.829 -21.581 -16.822  0.00  0.00    +0.019 C 
ATOM     27  C   UNL     1      33.249 -22.625 -17.012  0.00  0.00    +0.031 C 
ATOM     28  C   UNL     1      35.332 -22.402 -15.810  0.00  0.00    +0.031 C 
ATOM     29  C   UNL     1      34.042 -22.924 -15.905  0.00  0.00    +0.140 C 
ENDBRANCH  18  24
BRANCH  21  30
ATOM     30  N   UNL     1      33.445 -19.707 -19.790  0.00  0.00    -0.344 N 
ATOM     31  H   UNL     1      32.934 -20.154 -20.503  0.00  0.00    +0.144 HD
ATOM     32  H   UNL     1      32.971 -19.247 -19.060  0.00  0.00    +0.144 HD
ENDBRANCH  21  30
ENDBRANCH   2  20
TORSDOF 6
ENDMDL
