MODEL 1
REMARK VINA RESULT:     -10.8      0.000      0.000
REMARK  Name = 7297549
REMARK  3 active torsions:
REMARK  status: ('A' for Active; 'I' for Inactive)
REMARK    1  A    between atoms: N_3  and  S_16
REMARK    2  A    between atoms: C_7  and  C_11
REMARK    3  A    between atoms: S_16  and  C_19
REMARK                            x       y       z     vdW  Elec       q    Type
REMARK                         _______ _______ _______ _____ _____    ______ ____
ROOT
ATOM      1  S   UNL     1      34.498 -14.388 -21.556  0.00  0.00    -0.025 S 
ATOM      2  O   UNL     1      34.587 -15.058 -25.308  0.00  0.00    -0.209 OA
ATOM      3  N   UNL     1      35.650 -16.767 -21.076  0.00  0.00    -0.183 N 
ATOM      4  N   UNL     1      35.212 -16.132 -23.349  0.00  0.00    -0.309 NA
ATOM      5  C   UNL     1      35.179 -15.896 -22.079  0.00  0.00    +0.243 C 
ATOM      6  C   UNL     1      34.209 -13.988 -23.202  0.00  0.00    +0.131 C 
ATOM      7  C   UNL     1      33.651 -12.862 -23.648  0.00  0.00    +0.057 C 
ATOM      8  C   UNL     1      34.676 -15.091 -24.089  0.00  0.00    +0.213 C 
ATOM      9  H   UNL     1      35.539 -16.489 -20.138  0.00  0.00    +0.177 HD
ENDROOT
BRANCH   7  11
ATOM     10  O   UNL     1      32.311 -12.000 -21.817  0.00  0.00    -0.458 OA
ATOM     11  C   UNL     1      33.196 -11.788 -22.812  0.00  0.00    +0.146 C 
ATOM     12  C   UNL     1      32.104 -10.788 -21.240  0.00  0.00    +0.123 C 
ATOM     13  C   UNL     1      33.567 -10.479 -22.896  0.00  0.00    +0.040 C 
ATOM     14  C   UNL     1      32.853  -9.820 -21.867  0.00  0.00    +0.036 C 
ATOM     15  C   UNL     1      31.163 -10.757 -20.112  0.00  0.00    +0.072 C 
ENDBRANCH   7  11
BRANCH   3  16
ATOM     16  S   UNL     1      36.403 -18.275 -21.379  0.00  0.00    +0.076 S 
ATOM     17  O   UNL     1      37.786 -18.210 -20.925  0.00  0.00    -0.150 OA
ATOM     18  O   UNL     1      36.118 -18.672 -22.752  0.00  0.00    -0.150 OA
BRANCH  16  19
ATOM     19  C   UNL     1      35.510 -19.335 -20.318  0.00  0.00    +0.125 C 
ATOM     20  C   UNL     1      34.116 -19.342 -20.350  0.00  0.00    +0.020 C 
ATOM     21  C   UNL     1      36.191 -20.176 -19.438  0.00  0.00    +0.020 C 
ATOM     22  C   UNL     1      34.084 -21.031 -18.624  0.00  0.00    -0.022 C 
ATOM     23  C   UNL     1      33.403 -20.190 -19.503  0.00  0.00    -0.003 C 
ATOM     24  C   UNL     1      35.479 -21.024 -18.592  0.00  0.00    -0.003 C 
ATOM     25  C   UNL     1      33.322 -21.938 -17.718  0.00  0.00    +0.031 C 
ENDBRANCH  16  19
ENDBRANCH   3  16
TORSDOF 3
ENDMDL
MODEL 2
REMARK VINA RESULT:     -10.7      5.886     11.378
REMARK  Name = 7297549
REMARK  3 active torsions:
REMARK  status: ('A' for Active; 'I' for Inactive)
REMARK    1  A    between atoms: N_3  and  S_16
REMARK    2  A    between atoms: C_7  and  C_11
REMARK    3  A    between atoms: S_16  and  C_19
REMARK                            x       y       z     vdW  Elec       q    Type
REMARK                         _______ _______ _______ _____ _____    ______ ____
ROOT
ATOM      1  S   UNL     1      36.112 -22.649 -15.314  0.00  0.00    -0.025 S 
ATOM      2  O   UNL     1      32.708 -23.673 -13.934  0.00  0.00    -0.209 OA
ATOM      3  N   UNL     1      34.966 -21.803 -17.591  0.00  0.00    -0.183 N 
ATOM      4  N   UNL     1      33.572 -22.726 -15.869  0.00  0.00    -0.309 NA
ATOM      5  C   UNL     1      34.729 -22.381 -16.327  0.00  0.00    +0.243 C 
ATOM      6  C   UNL     1      35.065 -23.300 -14.117  0.00  0.00    +0.131 C 
ATOM      7  C   UNL     1      35.434 -23.771 -12.926  0.00  0.00    +0.057 C 
ATOM      8  C   UNL     1      33.654 -23.268 -14.597  0.00  0.00    +0.213 C 
ATOM      9  H   UNL     1      35.899 -21.614 -17.842  0.00  0.00    +0.177 HD
ENDROOT
BRANCH   7  11
ATOM     10  O   UNL     1      37.784 -24.315 -13.198  0.00  0.00    -0.458 OA
ATOM     11  C   UNL     1      36.786 -23.810 -12.445  0.00  0.00    +0.146 C 
ATOM     12  C   UNL     1      38.910 -24.199 -12.447  0.00  0.00    +0.123 C 
ATOM     13  C   UNL     1      37.230 -23.372 -11.234  0.00  0.00    +0.040 C 
ATOM     14  C   UNL     1      38.622 -23.625 -11.231  0.00  0.00    +0.036 C 
ATOM     15  C   UNL     1      40.152 -24.688 -13.060  0.00  0.00    +0.072 C 
ENDBRANCH   7  11
BRANCH   3  16
ATOM     16  S   UNL     1      33.739 -21.407 -18.719  0.00  0.00    +0.076 S 
ATOM     17  O   UNL     1      32.631 -20.781 -18.009  0.00  0.00    -0.150 OA
ATOM     18  O   UNL     1      33.486 -22.569 -19.560  0.00  0.00    -0.150 OA
BRANCH  16  19
ATOM     19  C   UNL     1      34.535 -20.201 -19.697  0.00  0.00    +0.125 C 
ATOM     20  C   UNL     1      35.895 -19.943 -19.520  0.00  0.00    +0.020 C 
ATOM     21  C   UNL     1      33.812 -19.493 -20.657  0.00  0.00    +0.020 C 
ATOM     22  C   UNL     1      35.808 -18.273 -21.263  0.00  0.00    -0.022 C 
ATOM     23  C   UNL     1      36.531 -18.981 -20.303  0.00  0.00    -0.003 C 
ATOM     24  C   UNL     1      34.448 -18.530 -21.440  0.00  0.00    -0.003 C 
ATOM     25  C   UNL     1      36.487 -17.243 -22.100  0.00  0.00    +0.031 C 
ENDBRANCH  16  19
ENDBRANCH   3  16
TORSDOF 3
ENDMDL
MODEL 3
REMARK VINA RESULT:     -10.1      4.913      9.822
REMARK  Name = 7297549
REMARK  3 active torsions:
REMARK  status: ('A' for Active; 'I' for Inactive)
REMARK    1  A    between atoms: N_3  and  S_16
REMARK    2  A    between atoms: C_7  and  C_11
REMARK    3  A    between atoms: S_16  and  C_19
REMARK                            x       y       z     vdW  Elec       q    Type
REMARK                         _______ _______ _______ _____ _____    ______ ____
ROOT
ATOM      1  S   UNL     1      32.816 -21.982 -17.173  0.00  0.00    -0.025 S 
ATOM      2  O   UNL     1      35.446 -23.167 -14.680  0.00  0.00    -0.209 OA
ATOM      3  N   UNL     1      34.726 -20.877 -18.705  0.00  0.00    -0.183 N 
ATOM      4  N   UNL     1      35.370 -21.997 -16.682  0.00  0.00    -0.309 NA
ATOM      5  C   UNL     1      34.472 -21.600 -17.522  0.00  0.00    +0.243 C 
ATOM      6  C   UNL     1      33.336 -22.770 -15.737  0.00  0.00    +0.131 C 
ATOM      7  C   UNL     1      32.550 -23.377 -14.848  0.00  0.00    +0.057 C 
ATOM      8  C   UNL     1      34.819 -22.684 -15.613  0.00  0.00    +0.213 C 
ATOM      9  H   UNL     1      33.953 -20.601 -19.249  0.00  0.00    +0.177 HD
ENDROOT
BRANCH   7  11
ATOM     10  O   UNL     1      30.351 -22.369 -15.037  0.00  0.00    -0.458 OA
ATOM     11  C   UNL     1      31.122 -23.471 -14.949  0.00  0.00    +0.146 C 
ATOM     12  C   UNL     1      29.071 -22.817 -15.116  0.00  0.00    +0.123 C 
ATOM     13  C   UNL     1      30.382 -24.616 -14.968  0.00  0.00    +0.040 C 
ATOM     14  C   UNL     1      29.037 -24.192 -15.077  0.00  0.00    +0.036 C 
ATOM     15  C   UNL     1      28.027 -21.788 -15.221  0.00  0.00    +0.072 C 
ENDBRANCH   7  11
BRANCH   3  16
ATOM     16  S   UNL     1      36.288 -20.447 -19.260  0.00  0.00    +0.076 S 
ATOM     17  O   UNL     1      36.902 -21.611 -19.886  0.00  0.00    -0.150 OA
ATOM     18  O   UNL     1      36.990 -19.756 -18.188  0.00  0.00    -0.150 OA
BRANCH  16  19
ATOM     19  C   UNL     1      35.912 -19.275 -20.497  0.00  0.00    +0.125 C 
ATOM     20  C   UNL     1      36.801 -18.234 -20.767  0.00  0.00    +0.020 C 
ATOM     21  C   UNL     1      34.722 -19.378 -21.218  0.00  0.00    +0.020 C 
ATOM     22  C   UNL     1      35.312 -17.402 -22.477  0.00  0.00    -0.022 C 
ATOM     23  C   UNL     1      36.502 -17.299 -21.757  0.00  0.00    -0.003 C 
ATOM     24  C   UNL     1      34.422 -18.442 -22.208  0.00  0.00    -0.003 C 
ATOM     25  C   UNL     1      34.991 -16.401 -23.535  0.00  0.00    +0.031 C 
ENDBRANCH  16  19
ENDBRANCH   3  16
TORSDOF 3
ENDMDL
MODEL 4
REMARK VINA RESULT:     -10.1      2.398      8.732
REMARK  Name = 7297549
REMARK  3 active torsions:
REMARK  status: ('A' for Active; 'I' for Inactive)
REMARK    1  A    between atoms: N_3  and  S_16
REMARK    2  A    between atoms: C_7  and  C_11
REMARK    3  A    between atoms: S_16  and  C_19
REMARK                            x       y       z     vdW  Elec       q    Type
REMARK                         _______ _______ _______ _____ _____    ______ ____
ROOT
ATOM      1  S   UNL     1      35.012 -14.532 -22.479  0.00  0.00    -0.025 S 
ATOM      2  O   UNL     1      33.799 -15.690 -25.903  0.00  0.00    -0.209 OA
ATOM      3  N   UNL     1      34.646 -11.967 -23.187  0.00  0.00    -0.183 N 
ATOM      4  N   UNL     1      34.132 -13.689 -24.777  0.00  0.00    -0.309 NA
ATOM      5  C   UNL     1      34.543 -13.306 -23.614  0.00  0.00    +0.243 C 
ATOM      6  C   UNL     1      34.626 -15.721 -23.658  0.00  0.00    +0.131 C 
ATOM      7  C   UNL     1      34.736 -17.041 -23.504  0.00  0.00    +0.057 C 
ATOM      8  C   UNL     1      34.140 -15.068 -24.907  0.00  0.00    +0.213 C 
ATOM      9  H   UNL     1      35.007 -11.798 -22.286  0.00  0.00    +0.177 HD
ENDROOT
BRANCH   7  11
ATOM     10  O   UNL     1      34.432 -18.580 -21.652  0.00  0.00    -0.458 OA
ATOM     11  C   UNL     1      35.201 -17.689 -22.311  0.00  0.00    +0.146 C 
ATOM     12  C   UNL     1      35.169 -18.990 -20.588  0.00  0.00    +0.123 C 
ATOM     13  C   UNL     1      36.409 -17.511 -21.707  0.00  0.00    +0.040 C 
ATOM     14  C   UNL     1      36.392 -18.361 -20.576  0.00  0.00    +0.036 C 
ATOM     15  C   UNL     1      34.538 -19.978 -19.702  0.00  0.00    +0.072 C 
ENDBRANCH   7  11
BRANCH   3  16
ATOM     16  S   UNL     1      34.187 -10.612 -24.129  0.00  0.00    +0.076 S 
ATOM     17  O   UNL     1      33.057 -10.985 -24.970  0.00  0.00    -0.150 OA
ATOM     18  O   UNL     1      35.380 -10.044 -24.742  0.00  0.00    -0.150 OA
BRANCH  16  19
ATOM     19  C   UNL     1      33.634  -9.500 -22.903  0.00  0.00    +0.125 C 
ATOM     20  C   UNL     1      32.638  -9.888 -22.006  0.00  0.00    +0.020 C 
ATOM     21  C   UNL     1      34.189  -8.223 -22.818  0.00  0.00    +0.020 C 
ATOM     22  C   UNL     1      32.752  -7.723 -20.941  0.00  0.00    -0.022 C 
ATOM     23  C   UNL     1      32.197  -9.000 -21.026  0.00  0.00    -0.003 C 
ATOM     24  C   UNL     1      33.748  -7.335 -21.837  0.00  0.00    -0.003 C 
ATOM     25  C   UNL     1      32.281  -6.773 -19.893  0.00  0.00    +0.031 C 
ENDBRANCH  16  19
ENDBRANCH   3  16
TORSDOF 3
ENDMDL
MODEL 5
REMARK VINA RESULT:      -9.8      2.747      3.869
REMARK  Name = 7297549
REMARK  3 active torsions:
REMARK  status: ('A' for Active; 'I' for Inactive)
REMARK    1  A    between atoms: N_3  and  S_16
REMARK    2  A    between atoms: C_7  and  C_11
REMARK    3  A    between atoms: S_16  and  C_19
REMARK                            x       y       z     vdW  Elec       q    Type
REMARK                         _______ _______ _______ _____ _____    ______ ____
ROOT
ATOM      1  S   UNL     1      33.883 -11.677 -22.901  0.00  0.00    -0.025 S 
ATOM      2  O   UNL     1      33.586 -10.889 -26.619  0.00  0.00    -0.209 OA
ATOM      3  N   UNL     1      34.202 -14.287 -23.451  0.00  0.00    -0.183 N 
ATOM      4  N   UNL     1      33.903 -12.750 -25.270  0.00  0.00    -0.309 NA
ATOM      5  C   UNL     1      34.004 -13.007 -24.008  0.00  0.00    +0.243 C 
ATOM      6  C   UNL     1      33.674 -10.624 -24.242  0.00  0.00    +0.131 C 
ATOM      7  C   UNL     1      33.502  -9.304 -24.183  0.00  0.00    +0.057 C 
ATOM      8  C   UNL     1      33.711 -11.400 -25.515  0.00  0.00    +0.213 C 
ATOM      9  H   UNL     1      34.229 -14.361 -22.469  0.00  0.00    +0.177 HD
ENDROOT
BRANCH   7  11
ATOM     10  O   UNL     1      32.655  -8.883 -21.947  0.00  0.00    -0.458 OA
ATOM     11  C   UNL     1      33.464  -8.538 -22.970  0.00  0.00    +0.146 C 
ATOM     12  C   UNL     1      32.870  -7.957 -20.977  0.00  0.00    +0.123 C 
ATOM     13  C   UNL     1      34.192  -7.420 -22.691  0.00  0.00    +0.040 C 
ATOM     14  C   UNL     1      33.805  -7.036 -21.385  0.00  0.00    +0.036 C 
ATOM     15  C   UNL     1      32.092  -8.120 -19.741  0.00  0.00    +0.072 C 
ENDBRANCH   7  11
BRANCH   3  16
ATOM     16  S   UNL     1      34.400 -15.721 -24.366  0.00  0.00    +0.076 S 
ATOM     17  O   UNL     1      35.508 -15.538 -25.295  0.00  0.00    -0.150 OA
ATOM     18  O   UNL     1      33.098 -16.132 -24.875  0.00  0.00    -0.150 OA
BRANCH  16  19
ATOM     19  C   UNL     1      34.879 -16.862 -23.135  0.00  0.00    +0.125 C 
ATOM     20  C   UNL     1      35.567 -16.422 -22.005  0.00  0.00    +0.020 C 
ATOM     21  C   UNL     1      34.572 -18.215 -23.281  0.00  0.00    +0.020 C 
ATOM     22  C   UNL     1      35.642 -18.686 -21.166  0.00  0.00    -0.022 C 
ATOM     23  C   UNL     1      35.948 -17.333 -21.021  0.00  0.00    -0.003 C 
ATOM     24  C   UNL     1      34.953 -19.127 -22.297  0.00  0.00    -0.003 C 
ATOM     25  C   UNL     1      36.050 -19.661 -20.115  0.00  0.00    +0.031 C 
ENDBRANCH  16  19
ENDBRANCH   3  16
TORSDOF 3
ENDMDL
MODEL 6
REMARK VINA RESULT:      -9.3      6.840     10.244
REMARK  Name = 7297549
REMARK  3 active torsions:
REMARK  status: ('A' for Active; 'I' for Inactive)
REMARK    1  A    between atoms: N_3  and  S_16
REMARK    2  A    between atoms: C_7  and  C_11
REMARK    3  A    between atoms: S_16  and  C_19
REMARK                            x       y       z     vdW  Elec       q    Type
REMARK                         _______ _______ _______ _____ _____    ______ ____
ROOT
ATOM      1  S   UNL     1      34.945 -21.948 -15.628  0.00  0.00    -0.025 S 
ATOM      2  O   UNL     1      38.723 -21.733 -16.101  0.00  0.00    -0.209 OA
ATOM      3  N   UNL     1      35.283 -22.941 -13.156  0.00  0.00    -0.183 N 
ATOM      4  N   UNL     1      37.224 -22.404 -14.461  0.00  0.00    -0.309 NA
ATOM      5  C   UNL     1      35.943 -22.472 -14.309  0.00  0.00    +0.243 C 
ATOM      6  C   UNL     1      36.370 -21.582 -16.515  0.00  0.00    +0.131 C 
ATOM      7  C   UNL     1      36.418 -21.083 -17.751  0.00  0.00    +0.057 C 
ATOM      8  C   UNL     1      37.578 -21.902 -15.702  0.00  0.00    +0.213 C 
ATOM      9  H   UNL     1      34.299 -22.977 -13.172  0.00  0.00    +0.177 HD
ENDROOT
BRANCH   7  11
ATOM     10  O   UNL     1      35.340 -19.877 -19.560  0.00  0.00    -0.458 OA
ATOM     11  C   UNL     1      35.268 -20.767 -18.550  0.00  0.00    +0.146 C 
ATOM     12  C   UNL     1      34.091 -19.821 -20.093  0.00  0.00    +0.123 C 
ATOM     13  C   UNL     1      34.016 -21.286 -18.413  0.00  0.00    +0.040 C 
ATOM     14  C   UNL     1      33.240 -20.668 -19.422  0.00  0.00    +0.036 C 
ATOM     15  C   UNL     1      33.910 -18.905 -21.228  0.00  0.00    +0.072 C 
ENDBRANCH   7  11
BRANCH   3  16
ATOM     16  S   UNL     1      36.077 -23.454 -11.727  0.00  0.00    +0.076 S 
ATOM     17  O   UNL     1      35.253 -24.456 -11.064  0.00  0.00    -0.150 OA
ATOM     18  O   UNL     1      36.508 -22.276 -10.985  0.00  0.00    -0.150 OA
BRANCH  16  19
ATOM     19  C   UNL     1      37.500 -24.231 -12.373  0.00  0.00    +0.125 C 
ATOM     20  C   UNL     1      37.386 -25.446 -13.049  0.00  0.00    +0.020 C 
ATOM     21  C   UNL     1      38.752 -23.636 -12.215  0.00  0.00    +0.020 C 
ATOM     22  C   UNL     1      39.775 -25.472 -13.408  0.00  0.00    -0.022 C 
ATOM     23  C   UNL     1      38.523 -26.065 -13.567  0.00  0.00    -0.003 C 
ATOM     24  C   UNL     1      39.889 -24.256 -12.732  0.00  0.00    -0.003 C 
ATOM     25  C   UNL     1      40.991 -26.134 -13.961  0.00  0.00    +0.031 C 
ENDBRANCH  16  19
ENDBRANCH   3  16
TORSDOF 3
ENDMDL
MODEL 7
REMARK VINA RESULT:      -9.3      3.200      9.101
REMARK  Name = 7297549
REMARK  3 active torsions:
REMARK  status: ('A' for Active; 'I' for Inactive)
REMARK    1  A    between atoms: N_3  and  S_16
REMARK    2  A    between atoms: C_7  and  C_11
REMARK    3  A    between atoms: S_16  and  C_19
REMARK                            x       y       z     vdW  Elec       q    Type
REMARK                         _______ _______ _______ _____ _____    ______ ____
ROOT
ATOM      1  S   UNL     1      33.481 -20.752 -18.627  0.00  0.00    -0.025 S 
ATOM      2  O   UNL     1      36.972 -21.591 -17.344  0.00  0.00    -0.209 OA
ATOM      3  N   UNL     1      34.533 -19.268 -20.603  0.00  0.00    -0.183 N 
ATOM      4  N   UNL     1      36.015 -20.357 -19.061  0.00  0.00    -0.309 NA
ATOM      5  C   UNL     1      34.828 -20.079 -19.489  0.00  0.00    +0.243 C 
ATOM      6  C   UNL     1      34.589 -21.508 -17.554  0.00  0.00    +0.131 C 
ATOM      7  C   UNL     1      34.271 -22.282 -16.516  0.00  0.00    +0.057 C 
ATOM      8  C   UNL     1      35.989 -21.178 -17.945  0.00  0.00    +0.213 C 
ATOM      9  H   UNL     1      33.585 -19.102 -20.812  0.00  0.00    +0.177 HD
ENDROOT
BRANCH   7  11
ATOM     10  O   UNL     1      32.687 -23.542 -15.176  0.00  0.00    -0.458 OA
ATOM     11  C   UNL     1      32.931 -22.612 -16.123  0.00  0.00    +0.146 C 
ATOM     12  C   UNL     1      31.335 -23.602 -15.057  0.00  0.00    +0.123 C 
ATOM     13  C   UNL     1      31.782 -22.072 -16.618  0.00  0.00    +0.040 C 
ATOM     14  C   UNL     1      30.733 -22.718 -15.922  0.00  0.00    +0.036 C 
ATOM     15  C   UNL     1      30.812 -24.557 -14.071  0.00  0.00    +0.072 C 
ENDBRANCH   7  11
BRANCH   3  16
ATOM     16  S   UNL     1      35.712 -18.553 -21.619  0.00  0.00    +0.076 S 
ATOM     17  O   UNL     1      35.478 -18.986 -22.990  0.00  0.00    -0.150 OA
ATOM     18  O   UNL     1      37.026 -18.749 -21.019  0.00  0.00    -0.150 OA
BRANCH  16  19
ATOM     19  C   UNL     1      35.311 -16.859 -21.487  0.00  0.00    +0.125 C 
ATOM     20  C   UNL     1      35.166 -16.271 -20.230  0.00  0.00    +0.020 C 
ATOM     21  C   UNL     1      35.136 -16.092 -22.639  0.00  0.00    +0.020 C 
ATOM     22  C   UNL     1      34.672 -14.151 -21.276  0.00  0.00    -0.022 C 
ATOM     23  C   UNL     1      34.848 -14.918 -20.125  0.00  0.00    -0.003 C 
ATOM     24  C   UNL     1      34.817 -14.739 -22.534  0.00  0.00    -0.003 C 
ATOM     25  C   UNL     1      34.331 -12.704 -21.164  0.00  0.00    +0.031 C 
ENDBRANCH  16  19
ENDBRANCH   3  16
TORSDOF 3
ENDMDL
MODEL 8
REMARK VINA RESULT:      -9.2      2.778      4.515
REMARK  Name = 7297549
REMARK  3 active torsions:
REMARK  status: ('A' for Active; 'I' for Inactive)
REMARK    1  A    between atoms: N_3  and  S_16
REMARK    2  A    between atoms: C_7  and  C_11
REMARK    3  A    between atoms: S_16  and  C_19
REMARK                            x       y       z     vdW  Elec       q    Type
REMARK                         _______ _______ _______ _____ _____    ______ ____
ROOT
ATOM      1  S   UNL     1      34.435 -18.011 -20.491  0.00  0.00    -0.025 S 
ATOM      2  O   UNL     1      38.184 -18.371 -21.084  0.00  0.00    -0.209 OA
ATOM      3  N   UNL     1      34.380 -20.380 -19.226  0.00  0.00    -0.183 N 
ATOM      4  N   UNL     1      36.471 -19.579 -20.088  0.00  0.00    -0.309 NA
ATOM      5  C   UNL     1      35.202 -19.448 -19.891  0.00  0.00    +0.243 C 
ATOM      6  C   UNL     1      35.960 -17.488 -21.086  0.00  0.00    +0.131 C 
ATOM      7  C   UNL     1      36.198 -16.350 -21.738  0.00  0.00    +0.057 C 
ATOM      8  C   UNL     1      37.009 -18.500 -20.771  0.00  0.00    +0.213 C 
ATOM      9  H   UNL     1      33.417 -20.184 -19.168  0.00  0.00    +0.177 HD
ENDROOT
BRANCH   7  11
ATOM     10  O   UNL     1      34.683 -14.566 -21.096  0.00  0.00    -0.458 OA
ATOM     11  C   UNL     1      35.204 -15.363 -22.051  0.00  0.00    +0.146 C 
ATOM     12  C   UNL     1      33.786 -13.766 -21.731  0.00  0.00    +0.123 C 
ATOM     13  C   UNL     1      34.674 -15.105 -23.279  0.00  0.00    +0.040 C 
ATOM     14  C   UNL     1      33.743 -14.059 -23.074  0.00  0.00    +0.036 C 
ATOM     15  C   UNL     1      33.075 -12.794 -20.891  0.00  0.00    +0.072 C 
ENDBRANCH   7  11
BRANCH   3  16
ATOM     16  S   UNL     1      34.943 -21.832 -18.514  0.00  0.00    +0.076 S 
ATOM     17  O   UNL     1      36.246 -21.585 -17.909  0.00  0.00    -0.150 OA
ATOM     18  O   UNL     1      34.796 -22.914 -19.479  0.00  0.00    -0.150 OA
BRANCH  16  19
ATOM     19  C   UNL     1      33.771 -22.082 -17.246  0.00  0.00    +0.125 C 
ATOM     20  C   UNL     1      32.426 -21.785 -17.470  0.00  0.00    +0.020 C 
ATOM     21  C   UNL     1      34.178 -22.579 -16.007  0.00  0.00    +0.020 C 
ATOM     22  C   UNL     1      31.896 -22.483 -15.219  0.00  0.00    -0.022 C 
ATOM     23  C   UNL     1      31.489 -21.986 -16.457  0.00  0.00    -0.003 C 
ATOM     24  C   UNL     1      33.241 -22.780 -14.994  0.00  0.00    -0.003 C 
ATOM     25  C   UNL     1      30.894 -22.698 -14.135  0.00  0.00    +0.031 C 
ENDBRANCH  16  19
ENDBRANCH   3  16
TORSDOF 3
ENDMDL
MODEL 9
REMARK VINA RESULT:      -9.2      5.829      8.718
REMARK  Name = 7297549
REMARK  3 active torsions:
REMARK  status: ('A' for Active; 'I' for Inactive)
REMARK    1  A    between atoms: N_3  and  S_16
REMARK    2  A    between atoms: C_7  and  C_11
REMARK    3  A    between atoms: S_16  and  C_19
REMARK                            x       y       z     vdW  Elec       q    Type
REMARK                         _______ _______ _______ _____ _____    ______ ____
ROOT
ATOM      1  S   UNL     1      35.700 -20.955 -17.950  0.00  0.00    -0.025 S 
ATOM      2  O   UNL     1      32.002 -21.859 -17.736  0.00  0.00    -0.209 OA
ATOM      3  N   UNL     1      36.201 -22.360 -15.716  0.00  0.00    -0.183 N 
ATOM      4  N   UNL     1      33.949 -22.265 -16.541  0.00  0.00    -0.309 NA
ATOM      5  C   UNL     1      35.200 -21.954 -16.622  0.00  0.00    +0.243 C 
ATOM      6  C   UNL     1      34.070 -20.923 -18.493  0.00  0.00    +0.131 C 
ATOM      7  C   UNL     1      33.617 -20.287 -19.574  0.00  0.00    +0.057 C 
ATOM      8  C   UNL     1      33.207 -21.719 -17.575  0.00  0.00    +0.213 C 
ATOM      9  H   UNL     1      37.117 -22.030 -15.865  0.00  0.00    +0.177 HD
ENDROOT
BRANCH   7  11
ATOM     10  O   UNL     1      33.961 -19.105 -21.666  0.00  0.00    -0.458 OA
ATOM     11  C   UNL     1      34.431 -19.517 -20.470  0.00  0.00    +0.146 C 
ATOM     12  C   UNL     1      34.977 -18.415 -22.245  0.00  0.00    +0.123 C 
ATOM     13  C   UNL     1      35.716 -19.115 -20.260  0.00  0.00    +0.040 C 
ATOM     14  C   UNL     1      36.078 -18.392 -21.421  0.00  0.00    +0.036 C 
ATOM     15  C   UNL     1      34.707 -17.856 -23.577  0.00  0.00    +0.072 C 
ENDBRANCH   7  11
BRANCH   3  16
ATOM     16  S   UNL     1      35.931 -23.388 -14.373  0.00  0.00    +0.076 S 
ATOM     17  O   UNL     1      34.914 -24.369 -14.727  0.00  0.00    -0.150 OA
ATOM     18  O   UNL     1      35.749 -22.564 -13.184  0.00  0.00    -0.150 OA
BRANCH  16  19
ATOM     19  C   UNL     1      37.471 -24.198 -14.233  0.00  0.00    +0.125 C 
ATOM     20  C   UNL     1      37.533 -25.497 -13.728  0.00  0.00    +0.020 C 
ATOM     21  C   UNL     1      38.640 -23.546 -14.627  0.00  0.00    +0.020 C 
ATOM     22  C   UNL     1      39.932 -25.493 -14.012  0.00  0.00    -0.022 C 
ATOM     23  C   UNL     1      38.763 -26.144 -13.618  0.00  0.00    -0.003 C 
ATOM     24  C   UNL     1      39.870 -24.194 -14.517  0.00  0.00    -0.003 C 
ATOM     25  C   UNL     1      41.247 -26.185 -13.894  0.00  0.00    +0.031 C 
ENDBRANCH  16  19
ENDBRANCH   3  16
TORSDOF 3
ENDMDL
