MODEL 1
REMARK VINA RESULT:     -11.7      0.000      0.000
REMARK  Name = 3351
REMARK  5 active torsions:
REMARK  status: ('A' for Active; 'I' for Inactive)
REMARK    1  A    between atoms: N_2  and  C_10
REMARK    2  A    between atoms: C_8  and  C_20
REMARK    3  A    between atoms: C_10  and  C_13
REMARK    4  A    between atoms: C_20  and  O_21
REMARK    5  A    between atoms: O_21  and  C_23
REMARK                            x       y       z     vdW  Elec       q    Type
REMARK                         _______ _______ _______ _____ _____    ______ ____
ROOT
ATOM      1  O   UNL     1      35.722 -16.663 -23.038  0.00  0.00    -0.271 OA
ATOM      2  N   UNL     1      33.226 -12.699 -21.313  0.00  0.00    +0.392 N 
ATOM      3  N   UNL     1      34.952 -14.959 -21.659  0.00  0.00    -0.281 N 
ATOM      4  C   UNL     1      33.337 -13.360 -22.622  0.00  0.00    -0.055 C 
ATOM      5  C   UNL     1      33.399 -13.676 -20.228  0.00  0.00    -0.055 C 
ATOM      6  C   UNL     1      34.695 -14.043 -22.770  0.00  0.00    +0.071 C 
ATOM      7  C   UNL     1      34.758 -14.373 -20.330  0.00  0.00    +0.071 C 
ATOM      8  C   UNL     1      35.461 -16.232 -21.912  0.00  0.00    +0.270 C 
ATOM      9  H   UNL     1      33.967 -12.001 -21.240  0.00  0.00    -0.079 HD
ENDROOT
BRANCH   2  10
ATOM     10  C   UNL     1      31.939 -12.017 -21.189  0.00  0.00    -0.050 C 
BRANCH  10  13
ATOM     11  O   UNL     1      32.486  -7.115 -20.978  0.00  0.00    -0.435 OA
ATOM     12  O   UNL     1      32.420  -7.095 -18.569  0.00  0.00    -0.435 OA
ATOM     13  C   UNL     1      32.065 -10.711 -20.451  0.00  0.00    -0.040 C 
ATOM     14  C   UNL     1      32.218  -9.533 -21.175  0.00  0.00    +0.034 C 
ATOM     15  C   UNL     1      32.025 -10.711 -19.052  0.00  0.00    -0.003 C 
ATOM     16  C   UNL     1      32.330  -8.361 -20.454  0.00  0.00    +0.176 C 
ATOM     17  C   UNL     1      32.292  -8.350 -19.079  0.00  0.00    +0.176 C 
ATOM     18  C   UNL     1      32.140  -9.510 -18.347  0.00  0.00    +0.040 C 
ATOM     19  C   UNL     1      32.542  -6.317 -19.778  0.00  0.00    +0.429 C 
ENDBRANCH  10  13
ENDBRANCH   2  10
BRANCH   8  20
ATOM     20  C   UNL     1      35.692 -17.117 -20.713  0.00  0.00    +0.290 C 
BRANCH  20  21
ATOM     21  O   UNL     1      35.604 -18.444 -21.169  0.00  0.00    -0.466 OA
BRANCH  21  23
ATOM     22 CL   UNL     1      33.679 -22.477 -17.359  0.00  0.00    -0.082 Cl
ATOM     23  C   UNL     1      35.153 -19.391 -20.277  0.00  0.00    +0.139 C 
ATOM     24  C   UNL     1      33.789 -19.602 -20.140  0.00  0.00    +0.038 C 
ATOM     25  C   UNL     1      36.070 -20.116 -19.530  0.00  0.00    +0.038 C 
ATOM     26  C   UNL     1      33.331 -20.560 -19.234  0.00  0.00    +0.015 C 
ATOM     27  C   UNL     1      35.612 -21.073 -18.624  0.00  0.00    +0.015 C 
ATOM     28  C   UNL     1      34.244 -21.296 -18.476  0.00  0.00    +0.058 C 
ENDBRANCH  21  23
ENDBRANCH  20  21
ENDBRANCH   8  20
TORSDOF 5
ENDMDL
MODEL 2
REMARK VINA RESULT:     -11.4      7.995     13.094
REMARK  Name = 3351
REMARK  5 active torsions:
REMARK  status: ('A' for Active; 'I' for Inactive)
REMARK    1  A    between atoms: N_2  and  C_10
REMARK    2  A    between atoms: C_8  and  C_20
REMARK    3  A    between atoms: C_10  and  C_13
REMARK    4  A    between atoms: C_20  and  O_21
REMARK    5  A    between atoms: O_21  and  C_23
REMARK                            x       y       z     vdW  Elec       q    Type
REMARK                         _______ _______ _______ _____ _____    ______ ____
ROOT
ATOM      1  O   UNL     1      31.198 -22.786 -16.271  0.00  0.00    -0.271 OA
ATOM      2  N   UNL     1      34.743 -23.128 -12.774  0.00  0.00    +0.392 N 
ATOM      3  N   UNL     1      33.206 -22.564 -15.125  0.00  0.00    -0.281 N 
ATOM      4  C   UNL     1      33.322 -23.500 -12.844  0.00  0.00    -0.055 C 
ATOM      5  C   UNL     1      35.362 -23.210 -14.105  0.00  0.00    -0.055 C 
ATOM      6  C   UNL     1      32.569 -22.585 -13.809  0.00  0.00    +0.071 C 
ATOM      7  C   UNL     1      34.646 -22.294 -15.100  0.00  0.00    +0.071 C 
ATOM      8  C   UNL     1      32.426 -22.671 -16.275  0.00  0.00    +0.270 C 
ATOM      9  H   UNL     1      34.808 -22.163 -12.447  0.00  0.00    -0.079 HD
ENDROOT
BRANCH   2  10
ATOM     10  C   UNL     1      35.452 -23.983 -11.824  0.00  0.00    -0.050 C 
BRANCH  10  13
ATOM     11  O   UNL     1      39.238 -26.161 -14.128  0.00  0.00    -0.435 OA
ATOM     12  O   UNL     1      40.839 -24.614 -13.206  0.00  0.00    -0.435 OA
ATOM     13  C   UNL     1      36.910 -24.122 -12.174  0.00  0.00    -0.040 C 
ATOM     14  C   UNL     1      37.309 -25.146 -13.028  0.00  0.00    +0.034 C 
ATOM     15  C   UNL     1      37.832 -23.219 -11.633  0.00  0.00    -0.003 C 
ATOM     16  C   UNL     1      38.655 -25.234 -13.320  0.00  0.00    +0.176 C 
ATOM     17  C   UNL     1      39.569 -24.351 -12.793  0.00  0.00    +0.176 C 
ATOM     18  C   UNL     1      39.189 -23.331 -11.945  0.00  0.00    +0.040 C 
ATOM     19  C   UNL     1      40.621 -25.762 -14.052  0.00  0.00    +0.429 C 
ENDBRANCH  10  13
ENDBRANCH   2  10
BRANCH   8  20
ATOM     20  C   UNL     1      33.159 -22.646 -17.593  0.00  0.00    +0.290 C 
BRANCH  20  21
ATOM     21  O   UNL     1      32.771 -21.464 -18.248  0.00  0.00    -0.466 OA
BRANCH  21  23
ATOM     22 CL   UNL     1      36.964 -18.395 -20.984  0.00  0.00    -0.082 Cl
ATOM     23  C   UNL     1      33.753 -20.743 -18.888  0.00  0.00    +0.139 C 
ATOM     24  C   UNL     1      33.395 -19.765 -19.803  0.00  0.00    +0.038 C 
ATOM     25  C   UNL     1      35.086 -21.009 -18.608  0.00  0.00    +0.038 C 
ATOM     26  C   UNL     1      34.390 -19.036 -20.453  0.00  0.00    +0.015 C 
ATOM     27  C   UNL     1      36.082 -20.280 -19.258  0.00  0.00    +0.015 C 
ATOM     28  C   UNL     1      35.735 -19.294 -20.181  0.00  0.00    +0.058 C 
ENDBRANCH  21  23
ENDBRANCH  20  21
ENDBRANCH   8  20
TORSDOF 5
ENDMDL
MODEL 3
REMARK VINA RESULT:     -11.3      0.611      1.318
REMARK  Name = 3351
REMARK  5 active torsions:
REMARK  status: ('A' for Active; 'I' for Inactive)
REMARK    1  A    between atoms: N_2  and  C_10
REMARK    2  A    between atoms: C_8  and  C_20
REMARK    3  A    between atoms: C_10  and  C_13
REMARK    4  A    between atoms: C_20  and  O_21
REMARK    5  A    between atoms: O_21  and  C_23
REMARK                            x       y       z     vdW  Elec       q    Type
REMARK                         _______ _______ _______ _____ _____    ______ ____
ROOT
ATOM      1  O   UNL     1      35.595 -16.733 -22.966  0.00  0.00    -0.271 OA
ATOM      2  N   UNL     1      33.300 -12.548 -21.507  0.00  0.00    +0.392 N 
ATOM      3  N   UNL     1      34.923 -14.900 -21.708  0.00  0.00    -0.281 N 
ATOM      4  C   UNL     1      33.358 -13.309 -22.764  0.00  0.00    -0.055 C 
ATOM      5  C   UNL     1      33.452 -13.447 -20.354  0.00  0.00    -0.055 C 
ATOM      6  C   UNL     1      34.684 -14.059 -22.881  0.00  0.00    +0.071 C 
ATOM      7  C   UNL     1      34.778 -14.208 -20.424  0.00  0.00    +0.071 C 
ATOM      8  C   UNL     1      35.373 -16.209 -21.872  0.00  0.00    +0.270 C 
ATOM      9  H   UNL     1      34.070 -11.879 -21.498  0.00  0.00    -0.079 HD
ENDROOT
BRANCH   2  10
ATOM     10  C   UNL     1      32.045 -11.804 -21.415  0.00  0.00    -0.050 C 
BRANCH  10  13
ATOM     11  O   UNL     1      32.186  -7.724 -18.638  0.00  0.00    -0.435 OA
ATOM     12  O   UNL     1      32.881  -6.348 -20.491  0.00  0.00    -0.435 OA
ATOM     13  C   UNL     1      32.279 -10.332 -21.203  0.00  0.00    -0.040 C 
ATOM     14  C   UNL     1      32.090  -9.789 -19.936  0.00  0.00    +0.034 C 
ATOM     15  C   UNL     1      32.682  -9.542 -22.286  0.00  0.00    -0.003 C 
ATOM     16  C   UNL     1      32.317  -8.435 -19.790  0.00  0.00    +0.176 C 
ATOM     17  C   UNL     1      32.714  -7.650 -20.848  0.00  0.00    +0.176 C 
ATOM     18  C   UNL     1      32.905  -8.173 -22.110  0.00  0.00    +0.040 C 
ATOM     19  C   UNL     1      32.545  -6.402 -19.089  0.00  0.00    +0.429 C 
ENDBRANCH  10  13
ENDBRANCH   2  10
BRANCH   8  20
ATOM     20  C   UNL     1      35.589 -17.011 -20.613  0.00  0.00    +0.290 C 
BRANCH  20  21
ATOM     21  O   UNL     1      35.792 -18.344 -21.014  0.00  0.00    -0.466 OA
BRANCH  21  23
ATOM     22 CL   UNL     1      33.637 -22.558 -17.539  0.00  0.00    -0.082 Cl
ATOM     23  C   UNL     1      35.286 -19.333 -20.201  0.00  0.00    +0.139 C 
ATOM     24  C   UNL     1      33.914 -19.512 -20.118  0.00  0.00    +0.038 C 
ATOM     25  C   UNL     1      36.159 -20.132 -19.477  0.00  0.00    +0.038 C 
ATOM     26  C   UNL     1      33.402 -20.513 -19.292  0.00  0.00    +0.015 C 
ATOM     27  C   UNL     1      35.647 -21.133 -18.651  0.00  0.00    +0.015 C 
ATOM     28  C   UNL     1      34.269 -21.324 -18.558  0.00  0.00    +0.058 C 
ENDBRANCH  21  23
ENDBRANCH  20  21
ENDBRANCH   8  20
TORSDOF 5
ENDMDL
MODEL 4
REMARK VINA RESULT:     -11.2      5.630      7.922
REMARK  Name = 3351
REMARK  5 active torsions:
REMARK  status: ('A' for Active; 'I' for Inactive)
REMARK    1  A    between atoms: N_2  and  C_10
REMARK    2  A    between atoms: C_8  and  C_20
REMARK    3  A    between atoms: C_10  and  C_13
REMARK    4  A    between atoms: C_20  and  O_21
REMARK    5  A    between atoms: O_21  and  C_23
REMARK                            x       y       z     vdW  Elec       q    Type
REMARK                         _______ _______ _______ _____ _____    ______ ____
ROOT
ATOM      1  O   UNL     1      31.965 -21.731 -17.222  0.00  0.00    -0.271 OA
ATOM      2  N   UNL     1      35.117 -19.687 -20.508  0.00  0.00    +0.392 N 
ATOM      3  N   UNL     1      33.750 -21.411 -18.674  0.00  0.00    -0.281 N 
ATOM      4  C   UNL     1      33.824 -19.289 -19.934  0.00  0.00    -0.055 C 
ATOM      5  C   UNL     1      35.875 -20.505 -19.550  0.00  0.00    -0.055 C 
ATOM      6  C   UNL     1      32.998 -20.519 -19.557  0.00  0.00    +0.071 C 
ATOM      7  C   UNL     1      35.089 -21.758 -19.158  0.00  0.00    +0.071 C 
ATOM      8  C   UNL     1      33.134 -21.952 -17.547  0.00  0.00    +0.270 C 
ATOM      9  H   UNL     1      34.942 -20.247 -21.343  0.00  0.00    -0.079 HD
ENDROOT
BRANCH   2  10
ATOM     10  C   UNL     1      35.890 -18.509 -20.900  0.00  0.00    -0.050 C 
BRANCH  10  13
ATOM     11  O   UNL     1      34.761 -14.656 -23.774  0.00  0.00    -0.435 OA
ATOM     12  O   UNL     1      33.953 -16.070 -25.551  0.00  0.00    -0.435 OA
ATOM     13  C   UNL     1      35.362 -17.887 -22.166  0.00  0.00    -0.040 C 
ATOM     14  C   UNL     1      35.350 -16.502 -22.289  0.00  0.00    +0.034 C 
ATOM     15  C   UNL     1      34.895 -18.718 -23.191  0.00  0.00    -0.003 C 
ATOM     16  C   UNL     1      34.857 -15.978 -23.467  0.00  0.00    +0.176 C 
ATOM     17  C   UNL     1      34.395 -16.786 -24.480  0.00  0.00    +0.176 C 
ATOM     18  C   UNL     1      34.400 -18.161 -24.373  0.00  0.00    +0.040 C 
ATOM     19  C   UNL     1      34.189 -14.722 -25.096  0.00  0.00    +0.429 C 
ENDBRANCH  10  13
ENDBRANCH   2  10
BRANCH   8  20
ATOM     20  C   UNL     1      33.979 -22.858 -16.687  0.00  0.00    +0.290 C 
BRANCH  20  21
ATOM     21  O   UNL     1      34.815 -22.025 -15.923  0.00  0.00    -0.466 OA
BRANCH  21  23
ATOM     22 CL   UNL     1      39.160 -24.579 -12.910  0.00  0.00    -0.082 Cl
ATOM     23  C   UNL     1      35.833 -22.625 -15.218  0.00  0.00    +0.139 C 
ATOM     24  C   UNL     1      35.532 -23.614 -14.294  0.00  0.00    +0.038 C 
ATOM     25  C   UNL     1      37.144 -22.229 -15.443  0.00  0.00    +0.038 C 
ATOM     26  C   UNL     1      36.564 -24.221 -13.578  0.00  0.00    +0.015 C 
ATOM     27  C   UNL     1      38.176 -22.835 -14.726  0.00  0.00    +0.015 C 
ATOM     28  C   UNL     1      37.887 -23.831 -13.794  0.00  0.00    +0.058 C 
ENDBRANCH  21  23
ENDBRANCH  20  21
ENDBRANCH   8  20
TORSDOF 5
ENDMDL
MODEL 5
REMARK VINA RESULT:     -10.9      0.825      1.792
REMARK  Name = 3351
REMARK  5 active torsions:
REMARK  status: ('A' for Active; 'I' for Inactive)
REMARK    1  A    between atoms: N_2  and  C_10
REMARK    2  A    between atoms: C_8  and  C_20
REMARK    3  A    between atoms: C_10  and  C_13
REMARK    4  A    between atoms: C_20  and  O_21
REMARK    5  A    between atoms: O_21  and  C_23
REMARK                            x       y       z     vdW  Elec       q    Type
REMARK                         _______ _______ _______ _____ _____    ______ ____
ROOT
ATOM      1  O   UNL     1      35.603 -16.942 -22.959  0.00  0.00    -0.271 OA
ATOM      2  N   UNL     1      33.452 -12.660 -21.560  0.00  0.00    +0.392 N 
ATOM      3  N   UNL     1      35.010 -15.057 -21.736  0.00  0.00    -0.281 N 
ATOM      4  C   UNL     1      33.458 -13.456 -22.795  0.00  0.00    -0.055 C 
ATOM      5  C   UNL     1      33.613 -13.530 -20.386  0.00  0.00    -0.055 C 
ATOM      6  C   UNL     1      34.761 -14.244 -22.926  0.00  0.00    +0.071 C 
ATOM      7  C   UNL     1      34.917 -14.326 -20.469  0.00  0.00    +0.071 C 
ATOM      8  C   UNL     1      35.423 -16.382 -21.874  0.00  0.00    +0.270 C 
ATOM      9  H   UNL     1      34.239 -12.011 -21.590  0.00  0.00    -0.079 HD
ENDROOT
BRANCH   2  10
ATOM     10  C   UNL     1      32.219 -11.881 -21.456  0.00  0.00    -0.050 C 
BRANCH  10  13
ATOM     11  O   UNL     1      31.962  -7.214 -19.866  0.00  0.00    -0.435 OA
ATOM     12  O   UNL     1      33.108  -6.367 -21.810  0.00  0.00    -0.435 OA
ATOM     13  C   UNL     1      32.476 -10.404 -21.585  0.00  0.00    -0.040 C 
ATOM     14  C   UNL     1      32.046  -9.548 -20.575  0.00  0.00    +0.034 C 
ATOM     15  C   UNL     1      33.142  -9.922 -22.718  0.00  0.00    -0.003 C 
ATOM     16  C   UNL     1      32.303  -8.202 -20.737  0.00  0.00    +0.176 C 
ATOM     17  C   UNL     1      32.957  -7.719 -21.847  0.00  0.00    +0.176 C 
ATOM     18  C   UNL     1      33.389  -8.554 -22.857  0.00  0.00    +0.040 C 
ATOM     19  C   UNL     1      32.475  -6.054 -20.552  0.00  0.00    +0.429 C 
ENDBRANCH  10  13
ENDBRANCH   2  10
BRANCH   8  20
ATOM     20  C   UNL     1      35.654 -17.153 -20.599  0.00  0.00    +0.290 C 
BRANCH  20  21
ATOM     21  O   UNL     1      35.766 -18.507 -20.963  0.00  0.00    -0.466 OA
BRANCH  21  23
ATOM     22 CL   UNL     1      33.454 -22.487 -17.317  0.00  0.00    -0.082 Cl
ATOM     23  C   UNL     1      35.225 -19.439 -20.106  0.00  0.00    +0.139 C 
ATOM     24  C   UNL     1      36.065 -20.212 -19.320  0.00  0.00    +0.038 C 
ATOM     25  C   UNL     1      33.847 -19.590 -20.047  0.00  0.00    +0.038 C 
ATOM     26  C   UNL     1      35.516 -21.158 -18.454  0.00  0.00    +0.015 C 
ATOM     27  C   UNL     1      33.298 -20.536 -19.181  0.00  0.00    +0.015 C 
ATOM     28  C   UNL     1      34.131 -21.320 -18.384  0.00  0.00    +0.058 C 
ENDBRANCH  21  23
ENDBRANCH  20  21
ENDBRANCH   8  20
TORSDOF 5
ENDMDL
MODEL 6
REMARK VINA RESULT:     -10.9      8.380     11.411
REMARK  Name = 3351
REMARK  5 active torsions:
REMARK  status: ('A' for Active; 'I' for Inactive)
REMARK    1  A    between atoms: N_2  and  C_10
REMARK    2  A    between atoms: C_8  and  C_20
REMARK    3  A    between atoms: C_10  and  C_13
REMARK    4  A    between atoms: C_20  and  O_21
REMARK    5  A    between atoms: O_21  and  C_23
REMARK                            x       y       z     vdW  Elec       q    Type
REMARK                         _______ _______ _______ _____ _____    ______ ____
ROOT
ATOM      1  O   UNL     1      37.939 -22.167 -14.355  0.00  0.00    -0.271 OA
ATOM      2  N   UNL     1      33.158 -23.561 -14.020  0.00  0.00    +0.392 N 
ATOM      3  N   UNL     1      35.746 -22.707 -14.901  0.00  0.00    -0.281 N 
ATOM      4  C   UNL     1      34.287 -23.512 -13.080  0.00  0.00    -0.055 C 
ATOM      5  C   UNL     1      33.287 -22.505 -15.034  0.00  0.00    -0.055 C 
ATOM      6  C   UNL     1      35.614 -23.681 -13.819  0.00  0.00    +0.071 C 
ATOM      7  C   UNL     1      34.599 -22.648 -15.810  0.00  0.00    +0.071 C 
ATOM      8  C   UNL     1      36.945 -22.015 -15.071  0.00  0.00    +0.270 C 
ATOM      9  H   UNL     1      33.170 -24.466 -14.493  0.00  0.00    -0.079 HD
ENDROOT
BRANCH   2  10
ATOM     10  C   UNL     1      31.889 -23.434 -13.306  0.00  0.00    -0.050 C 
BRANCH  10  13
ATOM     11  O   UNL     1      28.225 -21.184 -15.733  0.00  0.00    -0.435 OA
ATOM     12  O   UNL     1      27.507 -23.231 -16.782  0.00  0.00    -0.435 OA
ATOM     13  C   UNL     1      30.714 -23.417 -14.247  0.00  0.00    -0.040 C 
ATOM     14  C   UNL     1      30.060 -22.214 -14.496  0.00  0.00    +0.034 C 
ATOM     15  C   UNL     1      30.306 -24.611 -14.851  0.00  0.00    -0.003 C 
ATOM     16  C   UNL     1      28.988 -22.248 -15.366  0.00  0.00    +0.176 C 
ATOM     17  C   UNL     1      28.579 -23.417 -15.964  0.00  0.00    +0.176 C 
ATOM     18  C   UNL     1      29.217 -24.617 -15.727  0.00  0.00    +0.040 C 
ATOM     19  C   UNL     1      27.289 -21.813 -16.631  0.00  0.00    +0.429 C 
ENDBRANCH  10  13
ENDBRANCH   2  10
BRANCH   8  20
ATOM     20  C   UNL     1      36.998 -21.025 -16.206  0.00  0.00    +0.290 C 
BRANCH  20  21
ATOM     21  O   UNL     1      36.502 -21.688 -17.343  0.00  0.00    -0.466 OA
BRANCH  21  23
ATOM     22 CL   UNL     1      34.790 -18.371 -21.876  0.00  0.00    -0.082 Cl
ATOM     23  C   UNL     1      36.100 -20.909 -18.404  0.00  0.00    +0.139 C 
ATOM     24  C   UNL     1      34.765 -20.905 -18.779  0.00  0.00    +0.038 C 
ATOM     25  C   UNL     1      37.037 -20.143 -19.081  0.00  0.00    +0.038 C 
ATOM     26  C   UNL     1      34.358 -20.117 -19.857  0.00  0.00    +0.015 C 
ATOM     27  C   UNL     1      36.630 -19.355 -20.158  0.00  0.00    +0.015 C 
ATOM     28  C   UNL     1      35.292 -19.342 -20.546  0.00  0.00    +0.058 C 
ENDBRANCH  21  23
ENDBRANCH  20  21
ENDBRANCH   8  20
TORSDOF 5
ENDMDL
MODEL 7
REMARK VINA RESULT:     -10.8      3.769      6.139
REMARK  Name = 3351
REMARK  5 active torsions:
REMARK  status: ('A' for Active; 'I' for Inactive)
REMARK    1  A    between atoms: N_2  and  C_10
REMARK    2  A    between atoms: C_8  and  C_20
REMARK    3  A    between atoms: C_10  and  C_13
REMARK    4  A    between atoms: C_20  and  O_21
REMARK    5  A    between atoms: O_21  and  C_23
REMARK                            x       y       z     vdW  Elec       q    Type
REMARK                         _______ _______ _______ _____ _____    ______ ____
ROOT
ATOM      1  O   UNL     1      36.895 -20.957 -18.188  0.00  0.00    -0.271 OA
ATOM      2  N   UNL     1      35.380 -17.913 -21.842  0.00  0.00    +0.392 N 
ATOM      3  N   UNL     1      35.558 -19.681 -19.594  0.00  0.00    -0.281 N 
ATOM      4  C   UNL     1      36.691 -18.332 -21.324  0.00  0.00    -0.055 C 
ATOM      5  C   UNL     1      34.389 -18.982 -21.656  0.00  0.00    -0.055 C 
ATOM      6  C   UNL     1      36.599 -18.683 -19.840  0.00  0.00    +0.071 C 
ATOM      7  C   UNL     1      34.254 -19.354 -20.178  0.00  0.00    +0.071 C 
ATOM      8  C   UNL     1      35.818 -20.765 -18.758  0.00  0.00    +0.270 C 
ATOM      9  H   UNL     1      35.073 -17.093 -21.317  0.00  0.00    -0.079 HD
ENDROOT
BRANCH   2  10
ATOM     10  C   UNL     1      35.479 -17.544 -23.253  0.00  0.00    -0.050 C 
BRANCH  10  13
ATOM     11  O   UNL     1      34.753 -12.826 -21.992  0.00  0.00    -0.435 OA
ATOM     12  O   UNL     1      33.632 -12.324 -24.066  0.00  0.00    -0.435 OA
ATOM     13  C   UNL     1      34.970 -16.150 -23.506  0.00  0.00    -0.040 C 
ATOM     14  C   UNL     1      35.155 -15.172 -22.535  0.00  0.00    +0.034 C 
ATOM     15  C   UNL     1      34.319 -15.870 -24.713  0.00  0.00    -0.003 C 
ATOM     16  C   UNL     1      34.671 -13.909 -22.811  0.00  0.00    +0.176 C 
ATOM     17  C   UNL     1      34.030 -13.623 -23.995  0.00  0.00    +0.176 C 
ATOM     18  C   UNL     1      33.838 -14.583 -24.967  0.00  0.00    +0.040 C 
ATOM     19  C   UNL     1      34.094 -11.825 -22.793  0.00  0.00    +0.429 C 
ENDBRANCH  10  13
ENDBRANCH   2  10
BRANCH   8  20
ATOM     20  C   UNL     1      34.694 -21.750 -18.561  0.00  0.00    +0.290 C 
BRANCH  20  21
ATOM     21  O   UNL     1      34.959 -22.430 -17.359  0.00  0.00    -0.466 OA
BRANCH  21  23
ATOM     22 CL   UNL     1      30.579 -22.850 -13.471  0.00  0.00    -0.082 Cl
ATOM     23  C   UNL     1      33.933 -22.527 -16.447  0.00  0.00    +0.139 C 
ATOM     24  C   UNL     1      34.219 -22.865 -15.133  0.00  0.00    +0.038 C 
ATOM     25  C   UNL     1      32.630 -22.286 -16.859  0.00  0.00    +0.038 C 
ATOM     26  C   UNL     1      33.178 -22.965 -14.209  0.00  0.00    +0.015 C 
ATOM     27  C   UNL     1      31.590 -22.386 -15.935  0.00  0.00    +0.015 C 
ATOM     28  C   UNL     1      31.863 -22.725 -14.611  0.00  0.00    +0.058 C 
ENDBRANCH  21  23
ENDBRANCH  20  21
ENDBRANCH   8  20
TORSDOF 5
ENDMDL
MODEL 8
REMARK VINA RESULT:     -10.8      6.386     11.720
REMARK  Name = 3351
REMARK  5 active torsions:
REMARK  status: ('A' for Active; 'I' for Inactive)
REMARK    1  A    between atoms: N_2  and  C_10
REMARK    2  A    between atoms: C_8  and  C_20
REMARK    3  A    between atoms: C_10  and  C_13
REMARK    4  A    between atoms: C_20  and  O_21
REMARK    5  A    between atoms: O_21  and  C_23
REMARK                            x       y       z     vdW  Elec       q    Type
REMARK                         _______ _______ _______ _____ _____    ______ ____
ROOT
ATOM      1  O   UNL     1      36.820 -18.796 -19.833  0.00  0.00    -0.271 OA
ATOM      2  N   UNL     1      34.999 -22.324 -16.808  0.00  0.00    +0.392 N 
ATOM      3  N   UNL     1      35.601 -20.596 -19.011  0.00  0.00    -0.281 N 
ATOM      4  C   UNL     1      36.076 -21.329 -16.702  0.00  0.00    -0.055 C 
ATOM      5  C   UNL     1      33.924 -21.828 -17.679  0.00  0.00    -0.055 C 
ATOM      6  C   UNL     1      36.652 -21.007 -18.080  0.00  0.00    +0.071 C 
ATOM      7  C   UNL     1      34.457 -21.508 -19.078  0.00  0.00    +0.071 C 
ATOM      8  C   UNL     1      35.796 -19.484 -19.830  0.00  0.00    +0.270 C 
ATOM      9  H   UNL     1      35.384 -23.174 -17.222  0.00  0.00    -0.079 HD
ENDROOT
BRANCH   2  10
ATOM     10  C   UNL     1      34.474 -22.656 -15.484  0.00  0.00    -0.050 C 
BRANCH  10  13
ATOM     11  O   UNL     1      37.902 -22.409 -11.939  0.00  0.00    -0.435 OA
ATOM     12  O   UNL     1      38.425 -24.755 -12.121  0.00  0.00    -0.435 OA
ATOM     13  C   UNL     1      35.531 -23.254 -14.595  0.00  0.00    -0.040 C 
ATOM     14  C   UNL     1      36.191 -22.440 -13.679  0.00  0.00    +0.034 C 
ATOM     15  C   UNL     1      35.827 -24.618 -14.709  0.00  0.00    -0.003 C 
ATOM     16  C   UNL     1      37.152 -23.034 -12.886  0.00  0.00    +0.176 C 
ATOM     17  C   UNL     1      37.450 -24.373 -12.991  0.00  0.00    +0.176 C 
ATOM     18  C   UNL     1      36.805 -25.193 -13.893  0.00  0.00    +0.040 C 
ATOM     19  C   UNL     1      38.706 -23.505 -11.458  0.00  0.00    +0.429 C 
ENDBRANCH  10  13
ENDBRANCH   2  10
BRANCH   8  20
ATOM     20  C   UNL     1      34.663 -19.124 -20.758  0.00  0.00    +0.290 C 
BRANCH  20  21
ATOM     21  O   UNL     1      35.195 -19.113 -22.059  0.00  0.00    -0.466 OA
BRANCH  21  23
ATOM     22 CL   UNL     1      34.144 -14.371 -25.359  0.00  0.00    -0.082 Cl
ATOM     23  C   UNL     1      34.951 -18.001 -22.833  0.00  0.00    +0.139 C 
ATOM     24  C   UNL     1      35.408 -16.762 -22.411  0.00  0.00    +0.038 C 
ATOM     25  C   UNL     1      34.250 -18.140 -24.022  0.00  0.00    +0.038 C 
ATOM     26  C   UNL     1      35.158 -15.635 -23.195  0.00  0.00    +0.015 C 
ATOM     27  C   UNL     1      33.999 -17.013 -24.806  0.00  0.00    +0.015 C 
ATOM     28  C   UNL     1      34.453 -15.761 -24.393  0.00  0.00    +0.058 C 
ENDBRANCH  21  23
ENDBRANCH  20  21
ENDBRANCH   8  20
TORSDOF 5
ENDMDL
MODEL 9
REMARK VINA RESULT:     -10.7      4.113     10.160
REMARK  Name = 3351
REMARK  5 active torsions:
REMARK  status: ('A' for Active; 'I' for Inactive)
REMARK    1  A    between atoms: N_2  and  C_10
REMARK    2  A    between atoms: C_8  and  C_20
REMARK    3  A    between atoms: C_10  and  C_13
REMARK    4  A    between atoms: C_20  and  O_21
REMARK    5  A    between atoms: O_21  and  C_23
REMARK                            x       y       z     vdW  Elec       q    Type
REMARK                         _______ _______ _______ _____ _____    ______ ____
ROOT
ATOM      1  O   UNL     1      33.653 -12.363 -25.166  0.00  0.00    -0.271 OA
ATOM      2  N   UNL     1      35.065 -16.482 -22.727  0.00  0.00    +0.392 N 
ATOM      3  N   UNL     1      34.069 -13.903 -23.478  0.00  0.00    -0.281 N 
ATOM      4  C   UNL     1      34.966 -16.105 -24.144  0.00  0.00    -0.055 C 
ATOM      5  C   UNL     1      35.357 -15.302 -21.900  0.00  0.00    -0.055 C 
ATOM      6  C   UNL     1      33.870 -15.060 -24.351  0.00  0.00    +0.071 C 
ATOM      7  C   UNL     1      34.272 -14.236 -22.065  0.00  0.00    +0.071 C 
ATOM      8  C   UNL     1      33.936 -12.614 -23.992  0.00  0.00    +0.270 C 
ATOM      9  H   UNL     1      34.168 -16.869 -22.432  0.00  0.00    -0.079 HD
ENDROOT
BRANCH   2  10
ATOM     10  C   UNL     1      36.091 -17.507 -22.538  0.00  0.00    -0.050 C 
BRANCH  10  13
ATOM     11  O   UNL     1      32.925 -20.198 -19.871  0.00  0.00    -0.435 OA
ATOM     12  O   UNL     1      34.662 -21.003 -18.408  0.00  0.00    -0.435 OA
ATOM     13  C   UNL     1      35.743 -18.449 -21.417  0.00  0.00    -0.040 C 
ATOM     14  C   UNL     1      34.419 -18.841 -21.243  0.00  0.00    +0.034 C 
ATOM     15  C   UNL     1      36.760 -18.910 -20.572  0.00  0.00    -0.003 C 
ATOM     16  C   UNL     1      34.149 -19.705 -20.202  0.00  0.00    +0.176 C 
ATOM     17  C   UNL     1      35.141 -20.164 -19.366  0.00  0.00    +0.176 C 
ATOM     18  C   UNL     1      36.458 -19.785 -19.525  0.00  0.00    +0.040 C 
ATOM     19  C   UNL     1      33.257 -21.020 -18.734  0.00  0.00    +0.429 C 
ENDBRANCH  10  13
ENDBRANCH   2  10
BRANCH   8  20
ATOM     20  C   UNL     1      34.162 -11.477 -23.028  0.00  0.00    +0.290 C 
BRANCH  20  21
ATOM     21  O   UNL     1      33.684 -10.314 -23.658  0.00  0.00    -0.466 OA
BRANCH  21  23
ATOM     22 CL   UNL     1      32.380  -5.734 -20.223  0.00  0.00    -0.082 Cl
ATOM     23  C   UNL     1      33.378  -9.239 -22.854  0.00  0.00    +0.139 C 
ATOM     24  C   UNL     1      34.179  -8.109 -22.893  0.00  0.00    +0.038 C 
ATOM     25  C   UNL     1      32.273  -9.307 -22.018  0.00  0.00    +0.038 C 
ATOM     26  C   UNL     1      33.870  -7.021 -22.076  0.00  0.00    +0.015 C 
ATOM     27  C   UNL     1      31.964  -8.219 -21.202  0.00  0.00    +0.015 C 
ATOM     28  C   UNL     1      32.761  -7.076 -21.231  0.00  0.00    +0.058 C 
ENDBRANCH  21  23
ENDBRANCH  20  21
ENDBRANCH   8  20
TORSDOF 5
ENDMDL
