MODEL 1
REMARK VINA RESULT:     -12.9      0.000      0.000
REMARK  Name = 11740318
REMARK  5 active torsions:
REMARK  status: ('A' for Active; 'I' for Inactive)
REMARK    1  A    between atoms: N_1  and  C_20
REMARK    2  A    between atoms: C_2  and  O_8
REMARK    3  A    between atoms: O_8  and  C_9
REMARK    4  A    between atoms: C_14  and  N_15
REMARK    5  A    between atoms: C_20  and  C_23
REMARK                            x       y       z     vdW  Elec       q    Type
REMARK                         _______ _______ _______ _____ _____    ______ ____
ROOT
ATOM      1  N   UNL     1      34.149 -22.862 -13.610  0.00  0.00    +0.392 N 
ATOM      2  C   UNL     1      33.931 -22.372 -16.027  0.00  0.00    +0.145 C 
ATOM      3  C   UNL     1      34.716 -23.113 -14.941  0.00  0.00    -0.032 C 
ATOM      4  C   UNL     1      32.451 -22.739 -15.984  0.00  0.00    +0.039 C 
ATOM      5  C   UNL     1      31.894 -22.548 -14.580  0.00  0.00    -0.019 C 
ATOM      6  C   UNL     1      32.744 -23.285 -13.542  0.00  0.00    -0.077 C 
ATOM      7  H   UNL     1      34.183 -21.857 -13.439  0.00  0.00    -0.079 HD
ENDROOT
BRANCH   2   8
ATOM      8  O   UNL     1      34.445 -22.712 -17.309  0.00  0.00    -0.481 OA
BRANCH   8   9
ATOM      9  C   UNL     1      34.620 -21.684 -18.196  0.00  0.00    +0.138 C 
ATOM     10  C   UNL     1      35.898 -21.195 -18.442  0.00  0.00    +0.038 C 
ATOM     11  C   UNL     1      33.517 -21.138 -18.844  0.00  0.00    +0.038 C 
ATOM     12  C   UNL     1      36.076 -20.147 -19.346  0.00  0.00    +0.018 C 
ATOM     13  C   UNL     1      33.694 -20.090 -19.747  0.00  0.00    +0.018 C 
ATOM     14  C   UNL     1      34.974 -19.595 -19.999  0.00  0.00    +0.057 C 
BRANCH  14  15
ATOM     15  N   UNL     1      35.150 -18.557 -20.895  0.00  0.00    -0.246 N 
ATOM     16  N   UNL     1      35.170 -17.444 -22.827  0.00  0.00    -0.224 NA
ATOM     17  C   UNL     1      35.594 -17.292 -20.606  0.00  0.00    +0.092 C 
ATOM     18  C   UNL     1      34.908 -18.594 -22.246  0.00  0.00    +0.172 C 
ATOM     19  C   UNL     1      35.598 -16.628 -21.809  0.00  0.00    +0.117 C 
ENDBRANCH  14  15
ENDBRANCH   8   9
ENDBRANCH   2   8
BRANCH   1  20
ATOM     20  C   UNL     1      34.938 -23.539 -12.581  0.00  0.00    -0.050 C 
BRANCH  20  23
ATOM     21  O   UNL     1      39.828 -24.062 -13.017  0.00  0.00    -0.435 OA
ATOM     22  O   UNL     1      39.611 -25.837 -14.632  0.00  0.00    -0.435 OA
ATOM     23  C   UNL     1      36.174 -24.180 -13.153  0.00  0.00    -0.040 C 
ATOM     24  C   UNL     1      37.425 -23.736 -12.738  0.00  0.00    +0.034 C 
ATOM     25  C   UNL     1      36.037 -25.210 -14.091  0.00  0.00    -0.003 C 
ATOM     26  C   UNL     1      38.527 -24.355 -13.291  0.00  0.00    +0.176 C 
ATOM     27  C   UNL     1      37.169 -25.820 -14.635  0.00  0.00    +0.040 C 
ATOM     28  C   UNL     1      38.403 -25.368 -14.214  0.00  0.00    +0.176 C 
ATOM     29  C   UNL     1      40.509 -25.007 -13.869  0.00  0.00    +0.429 C 
ENDBRANCH  20  23
ENDBRANCH   1  20
TORSDOF 5
ENDMDL
MODEL 2
REMARK VINA RESULT:     -11.7      3.399      5.796
REMARK  Name = 11740318
REMARK  5 active torsions:
REMARK  status: ('A' for Active; 'I' for Inactive)
REMARK    1  A    between atoms: N_1  and  C_20
REMARK    2  A    between atoms: C_2  and  O_8
REMARK    3  A    between atoms: O_8  and  C_9
REMARK    4  A    between atoms: C_14  and  N_15
REMARK    5  A    between atoms: C_20  and  C_23
REMARK                            x       y       z     vdW  Elec       q    Type
REMARK                         _______ _______ _______ _____ _____    ______ ____
ROOT
ATOM      1  N   UNL     1      35.906 -20.158 -18.737  0.00  0.00    +0.392 N 
ATOM      2  C   UNL     1      35.424 -18.309 -20.311  0.00  0.00    +0.145 C 
ATOM      3  C   UNL     1      36.480 -19.271 -19.756  0.00  0.00    -0.032 C 
ATOM      4  C   UNL     1      34.221 -19.069 -20.861  0.00  0.00    +0.039 C 
ATOM      5  C   UNL     1      33.684 -20.043 -19.820  0.00  0.00    -0.019 C 
ATOM      6  C   UNL     1      34.795 -20.948 -19.284  0.00  0.00    -0.077 C 
ATOM      7  H   UNL     1      35.538 -19.575 -17.985  0.00  0.00    -0.079 HD
ENDROOT
BRANCH   2   8
ATOM      8  O   UNL     1      35.987 -17.531 -21.361  0.00  0.00    -0.481 OA
BRANCH   8   9
ATOM      9  C   UNL     1      35.459 -16.282 -21.554  0.00  0.00    +0.138 C 
ATOM     10  C   UNL     1      35.113 -15.503 -20.455  0.00  0.00    +0.038 C 
ATOM     11  C   UNL     1      35.274 -15.804 -22.847  0.00  0.00    +0.038 C 
ATOM     12  C   UNL     1      34.575 -14.230 -20.652  0.00  0.00    +0.018 C 
ATOM     13  C   UNL     1      34.737 -14.532 -23.043  0.00  0.00    +0.018 C 
ATOM     14  C   UNL     1      34.388 -13.745 -21.945  0.00  0.00    +0.057 C 
BRANCH  14  15
ATOM     15  N   UNL     1      33.856 -12.483 -22.140  0.00  0.00    -0.246 N 
ATOM     16  N   UNL     1      32.559 -10.694 -21.848  0.00  0.00    -0.224 NA
ATOM     17  C   UNL     1      34.246 -11.568 -23.084  0.00  0.00    +0.092 C 
ATOM     18  C   UNL     1      32.837 -11.906 -21.423  0.00  0.00    +0.172 C 
ATOM     19  C   UNL     1      33.434 -10.477 -22.883  0.00  0.00    +0.117 C 
ENDBRANCH  14  15
ENDBRANCH   8   9
ENDBRANCH   2   8
BRANCH   1  20
ATOM     20  C   UNL     1      36.937 -21.037 -18.185  0.00  0.00    -0.050 C 
BRANCH  20  23
ATOM     21  O   UNL     1      37.963 -22.287 -13.520  0.00  0.00    -0.435 OA
ATOM     22  O   UNL     1      35.684 -22.926 -13.068  0.00  0.00    -0.435 OA
ATOM     23  C   UNL     1      36.565 -21.550 -16.820  0.00  0.00    -0.040 C 
ATOM     24  C   UNL     1      37.545 -21.645 -15.838  0.00  0.00    +0.034 C 
ATOM     25  C   UNL     1      35.238 -21.918 -16.567  0.00  0.00    -0.003 C 
ATOM     26  C   UNL     1      37.155 -22.119 -14.603  0.00  0.00    +0.176 C 
ATOM     27  C   UNL     1      34.870 -22.395 -15.307  0.00  0.00    +0.040 C 
ATOM     28  C   UNL     1      35.854 -22.485 -14.345  0.00  0.00    +0.176 C 
ATOM     29  C   UNL     1      37.024 -22.797 -12.551  0.00  0.00    +0.429 C 
ENDBRANCH  20  23
ENDBRANCH   1  20
TORSDOF 5
ENDMDL
MODEL 3
REMARK VINA RESULT:     -11.7      4.627      8.844
REMARK  Name = 11740318
REMARK  5 active torsions:
REMARK  status: ('A' for Active; 'I' for Inactive)
REMARK    1  A    between atoms: N_1  and  C_20
REMARK    2  A    between atoms: C_2  and  O_8
REMARK    3  A    between atoms: O_8  and  C_9
REMARK    4  A    between atoms: C_14  and  N_15
REMARK    5  A    between atoms: C_20  and  C_23
REMARK                            x       y       z     vdW  Elec       q    Type
REMARK                         _______ _______ _______ _____ _____    ______ ____
ROOT
ATOM      1  N   UNL     1      35.087 -18.233 -22.047  0.00  0.00    +0.392 N 
ATOM      2  C   UNL     1      34.596 -16.000 -22.997  0.00  0.00    +0.145 C 
ATOM      3  C   UNL     1      35.480 -16.819 -22.051  0.00  0.00    -0.032 C 
ATOM      4  C   UNL     1      34.616 -16.579 -24.409  0.00  0.00    +0.039 C 
ATOM      5  C   UNL     1      34.283 -18.064 -24.382  0.00  0.00    -0.019 C 
ATOM      6  C   UNL     1      35.177 -18.815 -23.393  0.00  0.00    -0.077 C 
ATOM      7  H   UNL     1      34.113 -18.287 -21.747  0.00  0.00    -0.079 HD
ENDROOT
BRANCH   2   8
ATOM      8  O   UNL     1      35.064 -14.657 -23.051  0.00  0.00    -0.481 OA
BRANCH   8   9
ATOM      9  C   UNL     1      34.369 -13.733 -22.318  0.00  0.00    +0.138 C 
ATOM     10  C   UNL     1      34.125 -13.965 -20.969  0.00  0.00    +0.038 C 
ATOM     11  C   UNL     1      33.914 -12.569 -22.930  0.00  0.00    +0.038 C 
ATOM     12  C   UNL     1      33.417 -13.022 -20.222  0.00  0.00    +0.018 C 
ATOM     13  C   UNL     1      33.207 -11.627 -22.183  0.00  0.00    +0.018 C 
ATOM     14  C   UNL     1      32.958 -11.854 -20.829  0.00  0.00    +0.057 C 
BRANCH  14  15
ATOM     15  N   UNL     1      32.257 -10.919 -20.089  0.00  0.00    -0.246 N 
ATOM     16  N   UNL     1      31.448  -8.945 -19.443  0.00  0.00    -0.224 NA
ATOM     17  C   UNL     1      31.480 -11.165 -18.986  0.00  0.00    +0.092 C 
ATOM     18  C   UNL     1      32.202  -9.567 -20.321  0.00  0.00    +0.172 C 
ATOM     19  C   UNL     1      30.994  -9.936 -18.608  0.00  0.00    +0.117 C 
ENDBRANCH  14  15
ENDBRANCH   8   9
ENDBRANCH   2   8
BRANCH   1  20
ATOM     20  C   UNL     1      35.910 -18.991 -21.105  0.00  0.00    -0.050 C 
BRANCH  20  23
ATOM     21  O   UNL     1      35.306 -22.107 -17.322  0.00  0.00    -0.435 OA
ATOM     22  O   UNL     1      32.905 -21.926 -17.407  0.00  0.00    -0.435 OA
ATOM     23  C   UNL     1      35.071 -19.767 -20.125  0.00  0.00    -0.040 C 
ATOM     24  C   UNL     1      35.697 -20.576 -19.184  0.00  0.00    +0.034 C 
ATOM     25  C   UNL     1      33.676 -19.655 -20.183  0.00  0.00    -0.003 C 
ATOM     26  C   UNL     1      34.886 -21.267 -18.307  0.00  0.00    +0.176 C 
ATOM     27  C   UNL     1      32.878 -20.365 -19.283  0.00  0.00    +0.040 C 
ATOM     28  C   UNL     1      33.514 -21.164 -18.356  0.00  0.00    +0.176 C 
ATOM     29  C   UNL     1      34.046 -22.519 -16.755  0.00  0.00    +0.429 C 
ENDBRANCH  20  23
ENDBRANCH   1  20
TORSDOF 5
ENDMDL
MODEL 4
REMARK VINA RESULT:     -11.6      3.634      7.222
REMARK  Name = 11740318
REMARK  5 active torsions:
REMARK  status: ('A' for Active; 'I' for Inactive)
REMARK    1  A    between atoms: N_1  and  C_20
REMARK    2  A    between atoms: C_2  and  O_8
REMARK    3  A    between atoms: O_8  and  C_9
REMARK    4  A    between atoms: C_14  and  N_15
REMARK    5  A    between atoms: C_20  and  C_23
REMARK                            x       y       z     vdW  Elec       q    Type
REMARK                         _______ _______ _______ _____ _____    ______ ____
ROOT
ATOM      1  N   UNL     1      36.322 -22.407 -14.042  0.00  0.00    +0.392 N 
ATOM      2  C   UNL     1      34.543 -23.147 -12.487  0.00  0.00    +0.145 C 
ATOM      3  C   UNL     1      35.102 -23.214 -13.911  0.00  0.00    -0.032 C 
ATOM      4  C   UNL     1      35.592 -23.571 -11.463  0.00  0.00    +0.039 C 
ATOM      5  C   UNL     1      36.878 -22.781 -11.659  0.00  0.00    -0.019 C 
ATOM      6  C   UNL     1      37.362 -22.861 -13.109  0.00  0.00    -0.077 C 
ATOM      7  H   UNL     1      36.087 -21.443 -13.805  0.00  0.00    -0.079 HD
ENDROOT
BRANCH   2   8
ATOM      8  O   UNL     1      33.420 -24.014 -12.370  0.00  0.00    -0.481 OA
BRANCH   8   9
ATOM      9  C   UNL     1      32.317 -23.697 -13.118  0.00  0.00    +0.138 C 
ATOM     10  C   UNL     1      31.429 -24.699 -13.494  0.00  0.00    +0.038 C 
ATOM     11  C   UNL     1      32.095 -22.377 -13.494  0.00  0.00    +0.038 C 
ATOM     12  C   UNL     1      30.305 -24.377 -14.257  0.00  0.00    +0.018 C 
ATOM     13  C   UNL     1      30.972 -22.055 -14.256  0.00  0.00    +0.018 C 
ATOM     14  C   UNL     1      30.077 -23.055 -14.636  0.00  0.00    +0.057 C 
BRANCH  14  15
ATOM     15  N   UNL     1      28.962 -22.735 -15.391  0.00  0.00    -0.246 N 
ATOM     16  N   UNL     1      27.443 -22.831 -17.019  0.00  0.00    -0.224 NA
ATOM     17  C   UNL     1      28.066 -21.729 -15.139  0.00  0.00    +0.092 C 
ATOM     18  C   UNL     1      28.540 -23.367 -16.534  0.00  0.00    +0.172 C 
ATOM     19  C   UNL     1      27.142 -21.809 -16.154  0.00  0.00    +0.117 C 
ENDBRANCH  14  15
ENDBRANCH   8   9
ENDBRANCH   2   8
BRANCH   1  20
ATOM     20  C   UNL     1      36.816 -22.444 -15.418  0.00  0.00    -0.050 C 
BRANCH  20  23
ATOM     21  O   UNL     1      35.097 -20.150 -19.438  0.00  0.00    -0.435 OA
ATOM     22  O   UNL     1      32.894 -21.093 -19.175  0.00  0.00    -0.435 OA
ATOM     23  C   UNL     1      35.737 -22.102 -16.410  0.00  0.00    -0.040 C 
ATOM     24  C   UNL     1      36.030 -21.246 -17.466  0.00  0.00    +0.034 C 
ATOM     25  C   UNL     1      34.461 -22.654 -16.249  0.00  0.00    -0.003 C 
ATOM     26  C   UNL     1      35.009 -20.963 -18.350  0.00  0.00    +0.176 C 
ATOM     27  C   UNL     1      33.445 -22.352 -17.157  0.00  0.00    +0.040 C 
ATOM     28  C   UNL     1      33.751 -21.500 -18.199  0.00  0.00    +0.176 C 
ATOM     29  C   UNL     1      33.754 -20.239 -19.957  0.00  0.00    +0.429 C 
ENDBRANCH  20  23
ENDBRANCH   1  20
TORSDOF 5
ENDMDL
MODEL 5
REMARK VINA RESULT:     -11.4      5.062      9.575
REMARK  Name = 11740318
REMARK  5 active torsions:
REMARK  status: ('A' for Active; 'I' for Inactive)
REMARK    1  A    between atoms: N_1  and  C_20
REMARK    2  A    between atoms: C_2  and  O_8
REMARK    3  A    between atoms: O_8  and  C_9
REMARK    4  A    between atoms: C_14  and  N_15
REMARK    5  A    between atoms: C_20  and  C_23
REMARK                            x       y       z     vdW  Elec       q    Type
REMARK                         _______ _______ _______ _____ _____    ______ ____
ROOT
ATOM      1  N   UNL     1      35.167 -17.305 -22.326  0.00  0.00    +0.392 N 
ATOM      2  C   UNL     1      34.187 -15.602 -23.832  0.00  0.00    +0.145 C 
ATOM      3  C   UNL     1      35.336 -15.958 -22.884  0.00  0.00    -0.032 C 
ATOM      4  C   UNL     1      34.046 -16.641 -24.941  0.00  0.00    +0.039 C 
ATOM      5  C   UNL     1      33.950 -18.041 -24.351  0.00  0.00    -0.019 C 
ATOM      6  C   UNL     1      35.107 -18.318 -23.388  0.00  0.00    -0.077 C 
ATOM      7  H   UNL     1      34.281 -17.326 -21.821  0.00  0.00    -0.079 HD
ENDROOT
BRANCH   2   8
ATOM      8  O   UNL     1      34.430 -14.333 -24.429  0.00  0.00    -0.481 OA
BRANCH   8   9
ATOM      9  C   UNL     1      33.998 -13.234 -23.736  0.00  0.00    +0.138 C 
ATOM     10  C   UNL     1      33.367 -13.397 -22.508  0.00  0.00    +0.038 C 
ATOM     11  C   UNL     1      34.194 -11.963 -24.268  0.00  0.00    +0.038 C 
ATOM     12  C   UNL     1      32.926 -12.276 -21.802  0.00  0.00    +0.018 C 
ATOM     13  C   UNL     1      33.754 -10.844 -23.563  0.00  0.00    +0.018 C 
ATOM     14  C   UNL     1      33.120 -11.000 -22.330  0.00  0.00    +0.057 C 
BRANCH  14  15
ATOM     15  N   UNL     1      32.684  -9.889 -21.631  0.00  0.00    -0.246 N 
ATOM     16  N   UNL     1      31.715  -8.672 -20.034  0.00  0.00    -0.224 NA
ATOM     17  C   UNL     1      32.873  -8.577 -21.980  0.00  0.00    +0.092 C 
ATOM     18  C   UNL     1      31.982  -9.890 -20.451  0.00  0.00    +0.172 C 
ATOM     19  C   UNL     1      32.269  -7.849 -20.983  0.00  0.00    +0.117 C 
ENDBRANCH  14  15
ENDBRANCH   8   9
ENDBRANCH   2   8
BRANCH   1  20
ATOM     20  C   UNL     1      36.247 -17.610 -21.388  0.00  0.00    -0.050 C 
BRANCH  20  23
ATOM     21  O   UNL     1      33.068 -20.621 -19.106  0.00  0.00    -0.435 OA
ATOM     22  O   UNL     1      34.835 -21.905 -18.090  0.00  0.00    -0.435 OA
ATOM     23  C   UNL     1      35.903 -18.772 -20.495  0.00  0.00    -0.040 C 
ATOM     24  C   UNL     1      34.568 -19.087 -20.272  0.00  0.00    +0.034 C 
ATOM     25  C   UNL     1      36.938 -19.512 -19.909  0.00  0.00    -0.003 C 
ATOM     26  C   UNL     1      34.303 -20.160 -19.447  0.00  0.00    +0.176 C 
ATOM     27  C   UNL     1      36.642 -20.595 -19.078  0.00  0.00    +0.040 C 
ATOM     28  C   UNL     1      35.312 -20.894 -18.866  0.00  0.00    +0.176 C 
ATOM     29  C   UNL     1      33.413 -21.727 -18.248  0.00  0.00    +0.429 C 
ENDBRANCH  20  23
ENDBRANCH   1  20
TORSDOF 5
ENDMDL
MODEL 6
REMARK VINA RESULT:     -11.3      5.855     10.074
REMARK  Name = 11740318
REMARK  5 active torsions:
REMARK  status: ('A' for Active; 'I' for Inactive)
REMARK    1  A    between atoms: N_1  and  C_20
REMARK    2  A    between atoms: C_2  and  O_8
REMARK    3  A    between atoms: O_8  and  C_9
REMARK    4  A    between atoms: C_14  and  N_15
REMARK    5  A    between atoms: C_20  and  C_23
REMARK                            x       y       z     vdW  Elec       q    Type
REMARK                         _______ _______ _______ _____ _____    ______ ____
ROOT
ATOM      1  N   UNL     1      35.812 -16.313 -21.651  0.00  0.00    +0.392 N 
ATOM      2  C   UNL     1      34.735 -14.146 -22.174  0.00  0.00    +0.145 C 
ATOM      3  C   UNL     1      34.951 -15.600 -22.604  0.00  0.00    -0.032 C 
ATOM      4  C   UNL     1      34.168 -14.069 -20.759  0.00  0.00    +0.039 C 
ATOM      5  C   UNL     1      35.026 -14.876 -19.796  0.00  0.00    -0.019 C 
ATOM      6  C   UNL     1      35.232 -16.306 -20.302  0.00  0.00    -0.077 C 
ATOM      7  H   UNL     1      36.707 -15.825 -21.611  0.00  0.00    -0.079 HD
ENDROOT
BRANCH   2   8
ATOM      8  O   UNL     1      33.821 -13.513 -23.063  0.00  0.00    -0.481 OA
BRANCH   8   9
ATOM      9  C   UNL     1      33.526 -12.200 -22.810  0.00  0.00    +0.138 C 
ATOM     10  C   UNL     1      34.189 -11.197 -23.510  0.00  0.00    +0.038 C 
ATOM     11  C   UNL     1      32.564 -11.880 -21.857  0.00  0.00    +0.038 C 
ATOM     12  C   UNL     1      33.888  -9.859 -23.252  0.00  0.00    +0.018 C 
ATOM     13  C   UNL     1      32.263 -10.543 -21.600  0.00  0.00    +0.018 C 
ATOM     14  C   UNL     1      32.925  -9.532 -22.298  0.00  0.00    +0.057 C 
BRANCH  14  15
ATOM     15  N   UNL     1      32.626  -8.206 -22.043  0.00  0.00    -0.246 N 
ATOM     16  N   UNL     1      31.516  -6.273 -22.062  0.00  0.00    -0.224 NA
ATOM     17  C   UNL     1      33.380  -7.323 -21.313  0.00  0.00    +0.092 C 
ATOM     18  C   UNL     1      31.515  -7.522 -22.470  0.00  0.00    +0.172 C 
ATOM     19  C   UNL     1      32.676  -6.143 -21.339  0.00  0.00    +0.117 C 
ENDBRANCH  14  15
ENDBRANCH   8   9
ENDBRANCH   2   8
BRANCH   1  20
ATOM     20  C   UNL     1      36.047 -17.685 -22.101  0.00  0.00    -0.050 C 
BRANCH  20  23
ATOM     21  O   UNL     1      33.060 -20.559 -19.419  0.00  0.00    -0.435 OA
ATOM     22  O   UNL     1      34.880 -21.406 -18.087  0.00  0.00    -0.435 OA
ATOM     23  C   UNL     1      35.769 -18.687 -21.012  0.00  0.00    -0.040 C 
ATOM     24  C   UNL     1      34.462 -19.110 -20.794  0.00  0.00    +0.034 C 
ATOM     25  C   UNL     1      36.834 -19.172 -20.244  0.00  0.00    -0.003 C 
ATOM     26  C   UNL     1      34.258 -20.029 -19.786  0.00  0.00    +0.176 C 
ATOM     27  C   UNL     1      36.600 -20.103 -19.230  0.00  0.00    +0.040 C 
ATOM     28  C   UNL     1      35.298 -20.512 -19.025  0.00  0.00    +0.176 C 
ATOM     29  C   UNL     1      33.462 -21.432 -18.343  0.00  0.00    +0.429 C 
ENDBRANCH  20  23
ENDBRANCH   1  20
TORSDOF 5
ENDMDL
MODEL 7
REMARK VINA RESULT:     -10.9      4.615     10.969
REMARK  Name = 11740318
REMARK  5 active torsions:
REMARK  status: ('A' for Active; 'I' for Inactive)
REMARK    1  A    between atoms: N_1  and  C_20
REMARK    2  A    between atoms: C_2  and  O_8
REMARK    3  A    between atoms: O_8  and  C_9
REMARK    4  A    between atoms: C_14  and  N_15
REMARK    5  A    between atoms: C_20  and  C_23
REMARK                            x       y       z     vdW  Elec       q    Type
REMARK                         _______ _______ _______ _____ _____    ______ ____
ROOT
ATOM      1  N   UNL     1      35.368 -16.044 -20.882  0.00  0.00    +0.392 N 
ATOM      2  C   UNL     1      35.372 -18.451 -21.460  0.00  0.00    +0.145 C 
ATOM      3  C   UNL     1      34.907 -17.377 -20.473  0.00  0.00    -0.032 C 
ATOM      4  C   UNL     1      34.920 -18.127 -22.881  0.00  0.00    +0.039 C 
ATOM      5  C   UNL     1      35.337 -16.714 -23.264  0.00  0.00    -0.019 C 
ATOM      6  C   UNL     1      34.871 -15.697 -22.220  0.00  0.00    -0.077 C 
ATOM      7  H   UNL     1      36.387 -16.063 -20.920  0.00  0.00    -0.079 HD
ENDROOT
BRANCH   2   8
ATOM      8  O   UNL     1      34.829 -19.713 -21.089  0.00  0.00    -0.481 OA
BRANCH   8   9
ATOM      9  C   UNL     1      35.230 -20.227 -19.884  0.00  0.00    +0.138 C 
ATOM     10  C   UNL     1      34.316 -20.902 -19.084  0.00  0.00    +0.038 C 
ATOM     11  C   UNL     1      36.549 -20.068 -19.472  0.00  0.00    +0.038 C 
ATOM     12  C   UNL     1      34.724 -21.426 -17.856  0.00  0.00    +0.018 C 
ATOM     13  C   UNL     1      36.958 -20.590 -18.246  0.00  0.00    +0.018 C 
ATOM     14  C   UNL     1      36.045 -21.270 -17.438  0.00  0.00    +0.057 C 
BRANCH  14  15
ATOM     15  N   UNL     1      36.451 -21.789 -16.222  0.00  0.00    -0.246 N 
ATOM     16  N   UNL     1      37.795 -22.368 -14.541  0.00  0.00    -0.224 NA
ATOM     17  C   UNL     1      35.652 -22.380 -15.277  0.00  0.00    +0.092 C 
ATOM     18  C   UNL     1      37.732 -21.808 -15.728  0.00  0.00    +0.172 C 
ATOM     19  C   UNL     1      36.502 -22.727 -14.254  0.00  0.00    +0.117 C 
ENDBRANCH  14  15
ENDBRANCH   8   9
ENDBRANCH   2   8
BRANCH   1  20
ATOM     20  C   UNL     1      34.954 -15.037 -19.905  0.00  0.00    -0.050 C 
BRANCH  20  23
ATOM     21  O   UNL     1      34.605 -11.335 -23.153  0.00  0.00    -0.435 OA
ATOM     22  O   UNL     1      32.394 -10.736 -22.408  0.00  0.00    -0.435 OA
ATOM     23  C   UNL     1      34.236 -13.885 -20.556  0.00  0.00    -0.040 C 
ATOM     24  C   UNL     1      34.863 -13.185 -21.581  0.00  0.00    +0.034 C 
ATOM     25  C   UNL     1      32.952 -13.545 -20.115  0.00  0.00    -0.003 C 
ATOM     26  C   UNL     1      34.164 -12.138 -22.146  0.00  0.00    +0.176 C 
ATOM     27  C   UNL     1      32.267 -12.481 -20.705  0.00  0.00    +0.040 C 
ATOM     28  C   UNL     1      32.902 -11.795 -21.720  0.00  0.00    +0.176 C 
ATOM     29  C   UNL     1      33.478 -10.451 -23.315  0.00  0.00    +0.429 C 
ENDBRANCH  20  23
ENDBRANCH   1  20
TORSDOF 5
ENDMDL
MODEL 8
REMARK VINA RESULT:     -10.8      3.860     10.737
REMARK  Name = 11740318
REMARK  5 active torsions:
REMARK  status: ('A' for Active; 'I' for Inactive)
REMARK    1  A    between atoms: N_1  and  C_20
REMARK    2  A    between atoms: C_2  and  O_8
REMARK    3  A    between atoms: O_8  and  C_9
REMARK    4  A    between atoms: C_14  and  N_15
REMARK    5  A    between atoms: C_20  and  C_23
REMARK                            x       y       z     vdW  Elec       q    Type
REMARK                         _______ _______ _______ _____ _____    ______ ____
ROOT
ATOM      1  N   UNL     1      35.600 -17.778 -21.488  0.00  0.00    +0.392 N 
ATOM      2  C   UNL     1      35.287 -19.622 -19.866  0.00  0.00    +0.145 C 
ATOM      3  C   UNL     1      34.863 -19.017 -21.208  0.00  0.00    -0.032 C 
ATOM      4  C   UNL     1      36.794 -19.859 -19.820  0.00  0.00    +0.039 C 
ATOM      5  C   UNL     1      37.545 -18.587 -20.189  0.00  0.00    -0.019 C 
ATOM      6  C   UNL     1      37.050 -18.016 -21.519  0.00  0.00    -0.077 C 
ATOM      7  H   UNL     1      35.406 -17.121 -20.733  0.00  0.00    -0.079 HD
ENDROOT
BRANCH   2   8
ATOM      8  O   UNL     1      34.627 -20.868 -19.671  0.00  0.00    -0.481 OA
BRANCH   8   9
ATOM      9  C   UNL     1      34.612 -21.364 -18.395  0.00  0.00    +0.138 C 
ATOM     10  C   UNL     1      35.771 -21.329 -17.628  0.00  0.00    +0.038 C 
ATOM     11  C   UNL     1      33.437 -21.898 -17.877  0.00  0.00    +0.038 C 
ATOM     12  C   UNL     1      35.756 -21.834 -16.327  0.00  0.00    +0.018 C 
ATOM     13  C   UNL     1      33.421 -22.402 -16.577  0.00  0.00    +0.018 C 
ATOM     14  C   UNL     1      34.580 -22.370 -15.802  0.00  0.00    +0.057 C 
BRANCH  14  15
ATOM     15  N   UNL     1      34.564 -22.870 -14.512  0.00  0.00    -0.246 N 
ATOM     16  N   UNL     1      33.766 -23.667 -12.590  0.00  0.00    -0.224 NA
ATOM     17  C   UNL     1      35.653 -23.113 -13.716  0.00  0.00    +0.092 C 
ATOM     18  C   UNL     1      33.454 -23.221 -13.786  0.00  0.00    +0.172 C 
ATOM     19  C   UNL     1      35.136 -23.603 -12.540  0.00  0.00    +0.117 C 
ENDBRANCH  14  15
ENDBRANCH   8   9
ENDBRANCH   2   8
BRANCH   1  20
ATOM     20  C   UNL     1      35.150 -17.189 -22.749  0.00  0.00    -0.050 C 
BRANCH  20  23
ATOM     21  O   UNL     1      33.948 -12.750 -24.546  0.00  0.00    -0.435 OA
ATOM     22  O   UNL     1      34.131 -11.698 -22.385  0.00  0.00    -0.435 OA
ATOM     23  C   UNL     1      34.883 -15.713 -22.615  0.00  0.00    -0.040 C 
ATOM     24  C   UNL     1      34.533 -14.980 -23.743  0.00  0.00    +0.034 C 
ATOM     25  C   UNL     1      34.992 -15.112 -21.355  0.00  0.00    -0.003 C 
ATOM     26  C   UNL     1      34.297 -13.632 -23.570  0.00  0.00    +0.176 C 
ATOM     27  C   UNL     1      34.748 -13.745 -21.207  0.00  0.00    +0.040 C 
ATOM     28  C   UNL     1      34.403 -13.031 -22.336  0.00  0.00    +0.176 C 
ATOM     29  C   UNL     1      33.843 -11.527 -23.788  0.00  0.00    +0.429 C 
ENDBRANCH  20  23
ENDBRANCH   1  20
TORSDOF 5
ENDMDL
MODEL 9
REMARK VINA RESULT:     -10.8      9.223     15.709
REMARK  Name = 11740318
REMARK  5 active torsions:
REMARK  status: ('A' for Active; 'I' for Inactive)
REMARK    1  A    between atoms: N_1  and  C_20
REMARK    2  A    between atoms: C_2  and  O_8
REMARK    3  A    between atoms: O_8  and  C_9
REMARK    4  A    between atoms: C_14  and  N_15
REMARK    5  A    between atoms: C_20  and  C_23
REMARK                            x       y       z     vdW  Elec       q    Type
REMARK                         _______ _______ _______ _____ _____    ______ ____
ROOT
ATOM      1  N   UNL     1      33.632  -7.931 -23.607  0.00  0.00    +0.392 N 
ATOM      2  C   UNL     1      34.206 -10.316 -23.939  0.00  0.00    +0.145 C 
ATOM      3  C   UNL     1      33.117  -9.242 -24.021  0.00  0.00    -0.032 C 
ATOM      4  C   UNL     1      35.429  -9.924 -24.762  0.00  0.00    +0.039 C 
ATOM      5  C   UNL     1      35.907  -8.530 -24.378  0.00  0.00    -0.019 C 
ATOM      6  C   UNL     1      34.764  -7.515 -24.446  0.00  0.00    -0.077 C 
ATOM      7  H   UNL     1      33.968  -8.014 -22.647  0.00  0.00    -0.079 HD
ENDROOT
BRANCH   2   8
ATOM      8  O   UNL     1      33.702 -11.551 -24.437  0.00  0.00    -0.481 OA
BRANCH   8   9
ATOM      9  C   UNL     1      34.096 -12.686 -23.782  0.00  0.00    +0.138 C 
ATOM     10  C   UNL     1      34.154 -13.894 -24.470  0.00  0.00    +0.038 C 
ATOM     11  C   UNL     1      34.436 -12.622 -22.435  0.00  0.00    +0.038 C 
ATOM     12  C   UNL     1      34.555 -15.052 -23.802  0.00  0.00    +0.018 C 
ATOM     13  C   UNL     1      34.837 -13.779 -21.767  0.00  0.00    +0.018 C 
ATOM     14  C   UNL     1      34.897 -14.994 -22.451  0.00  0.00    +0.057 C 
BRANCH  14  15
ATOM     15  N   UNL     1      35.296 -16.141 -21.789  0.00  0.00    -0.246 N 
ATOM     16  N   UNL     1      35.773 -17.525 -20.108  0.00  0.00    -0.224 NA
ATOM     17  C   UNL     1      35.705 -17.317 -22.364  0.00  0.00    +0.092 C 
ATOM     18  C   UNL     1      35.356 -16.321 -20.430  0.00  0.00    +0.172 C 
ATOM     19  C   UNL     1      35.992 -18.151 -21.310  0.00  0.00    +0.117 C 
ENDBRANCH  14  15
ENDBRANCH   8   9
ENDBRANCH   2   8
BRANCH   1  20
ATOM     20  C   UNL     1      32.569  -6.927 -23.646  0.00  0.00    -0.050 C 
BRANCH  20  23
ATOM     21  O   UNL     1      32.758  -6.554 -18.726  0.00  0.00    -0.435 OA
ATOM     22  O   UNL     1      32.236  -4.202 -18.769  0.00  0.00    -0.435 OA
ATOM     23  C   UNL     1      32.472  -6.163 -22.352  0.00  0.00    -0.040 C 
ATOM     24  C   UNL     1      32.686  -6.829 -21.151  0.00  0.00    +0.034 C 
ATOM     25  C   UNL     1      32.168  -4.797 -22.388  0.00  0.00    -0.003 C 
ATOM     26  C   UNL     1      32.586  -6.086 -19.993  0.00  0.00    +0.176 C 
ATOM     27  C   UNL     1      32.073  -4.068 -21.201  0.00  0.00    +0.040 C 
ATOM     28  C   UNL     1      32.288  -4.743 -20.017  0.00  0.00    +0.176 C 
ATOM     29  C   UNL     1      32.536  -5.355 -17.956  0.00  0.00    +0.429 C 
ENDBRANCH  20  23
ENDBRANCH   1  20
TORSDOF 5
ENDMDL
