MODEL 1
REMARK VINA RESULT:     -11.5      0.000      0.000
REMARK  Name = 657131
REMARK  7 active torsions:
REMARK  status: ('A' for Active; 'I' for Inactive)
REMARK    1  A    between atoms: C_1  and  CA_2
REMARK    2  A    between atoms: C_1  and  C_3
REMARK    3  A    between atoms: CA_2  and  C_28
REMARK    4  A    between atoms: C_4  and  O_9
REMARK    5  A    between atoms: O_9  and  C_11
REMARK    6  A    between atoms: C_19  and  C_21
REMARK    7  A    between atoms: C_28  and  O_29
REMARK                            x       y       z     vdW  Elec       q    Type
REMARK                         _______ _______ _______ _____ _____    ______ ____
ROOT
ATOM      1  C   UNL     1      35.324 -15.218 -20.473  0.00  0.00    +0.074 C 
ENDROOT
BRANCH   1   2
ATOM      2  C   UNL     1      34.369 -14.150 -20.717  0.00  0.00    -0.016 C 
ATOM      3  C   UNL     1      32.535 -12.101 -21.188  0.00  0.00    +0.145 C 
ATOM      4  C   UNL     1      33.241 -14.022 -19.906  0.00  0.00    -0.001 C 
ATOM      5  C   UNL     1      34.579 -13.253 -21.765  0.00  0.00    -0.001 C 
ATOM      6  C   UNL     1      32.325 -12.997 -20.141  0.00  0.00    +0.037 C 
ATOM      7  C   UNL     1      33.662 -12.228 -22.000  0.00  0.00    +0.037 C 
BRANCH   3   8
ATOM      8  O   UNL     1      31.642 -11.101 -21.417  0.00  0.00    -0.453 OA
BRANCH   8  10
ATOM      9 BR   UNL     1      31.178 -10.123 -18.489  0.00  0.00    -0.046 Br
ATOM     10  C   UNL     1      32.064  -9.798 -21.208  0.00  0.00    +0.151 C 
ATOM     11  C   UNL     1      31.933  -9.204 -19.965  0.00  0.00    +0.069 C 
ATOM     12  C   UNL     1      32.617  -9.120 -22.281  0.00  0.00    +0.038 C 
ATOM     13  C   UNL     1      32.369  -7.891 -19.789  0.00  0.00    +0.010 C 
ATOM     14  C   UNL     1      33.053  -7.807 -22.104  0.00  0.00    +0.003 C 
ATOM     15  C   UNL     1      32.929  -7.192 -20.858  0.00  0.00    +0.001 C 
ENDBRANCH   8  10
ENDBRANCH   3   8
ENDBRANCH   1   2
BRANCH   1  16
ATOM     16  CA  UNL     1      35.252 -16.482 -20.950  0.00  0.00    +0.108 C 
ATOM     17  O   UNL     1      35.072 -19.191 -21.832  0.00  0.00    -0.270 OA
ATOM     18  N   UNL     1      34.990 -17.570 -20.166  0.00  0.00    -0.278 N 
ATOM     19  C   UNL     1      34.915 -18.864 -20.657  0.00  0.00    +0.249 C 
ATOM     20  H   UNL     1      34.846 -17.427 -19.202  0.00  0.00    +0.155 HD
BRANCH  19  21
ATOM     21  C   UNL     1      34.643 -19.919 -19.646  0.00  0.00    +0.054 C 
ATOM     22  C   UNL     1      35.709 -20.523 -19.012  0.00  0.00    +0.005 C 
ATOM     23  C   UNL     1      33.335 -20.259 -19.374  0.00  0.00    +0.005 C 
ATOM     24  C   UNL     1      35.454 -21.512 -18.063  0.00  0.00    +0.000 C 
ATOM     25  C   UNL     1      33.080 -21.249 -18.424  0.00  0.00    +0.000 C 
ATOM     26  C   UNL     1      34.140 -21.876 -17.769  0.00  0.00    +0.000 C 
ENDBRANCH  19  21
BRANCH  16  28
ATOM     27  OXT UNL     1      34.683 -16.466 -23.293  0.00  0.00    -0.244 OA
ATOM     28  C   UNL     1      35.486 -16.699 -22.402  0.00  0.00    +0.348 C 
BRANCH  28  29
ATOM     29  O   UNL     1      36.725 -17.201 -22.623  0.00  0.00    -0.476 OA
ATOM     30  H   UNL     1      37.472 -16.636 -22.587  0.00  0.00    +0.295 HD
ENDBRANCH  28  29
ENDBRANCH  16  28
ENDBRANCH   1  16
TORSDOF 7
ENDMDL
MODEL 2
REMARK VINA RESULT:     -11.4      1.071      1.925
REMARK  Name = 657131
REMARK  7 active torsions:
REMARK  status: ('A' for Active; 'I' for Inactive)
REMARK    1  A    between atoms: C_1  and  CA_2
REMARK    2  A    between atoms: C_1  and  C_3
REMARK    3  A    between atoms: CA_2  and  C_28
REMARK    4  A    between atoms: C_4  and  O_9
REMARK    5  A    between atoms: O_9  and  C_11
REMARK    6  A    between atoms: C_19  and  C_21
REMARK    7  A    between atoms: C_28  and  O_29
REMARK                            x       y       z     vdW  Elec       q    Type
REMARK                         _______ _______ _______ _____ _____    ______ ____
ROOT
ATOM      1  C   UNL     1      35.376 -15.243 -20.508  0.00  0.00    +0.074 C 
ENDROOT
BRANCH   1   2
ATOM      2  C   UNL     1      34.446 -14.153 -20.752  0.00  0.00    -0.016 C 
ATOM      3  C   UNL     1      32.659 -12.062 -21.217  0.00  0.00    +0.145 C 
ATOM      4  C   UNL     1      34.680 -13.254 -21.792  0.00  0.00    -0.001 C 
ATOM      5  C   UNL     1      33.317 -14.007 -19.944  0.00  0.00    -0.001 C 
ATOM      6  C   UNL     1      33.786 -12.208 -22.025  0.00  0.00    +0.037 C 
ATOM      7  C   UNL     1      32.424 -12.961 -20.178  0.00  0.00    +0.037 C 
BRANCH   3   8
ATOM      8  O   UNL     1      31.787 -11.043 -21.446  0.00  0.00    -0.453 OA
BRANCH   8  10
ATOM      9 BR   UNL     1      32.948  -8.872 -23.365  0.00  0.00    -0.046 Br
ATOM     10  C   UNL     1      32.028  -9.835 -20.813  0.00  0.00    +0.151 C 
ATOM     11  C   UNL     1      32.544  -8.760 -21.517  0.00  0.00    +0.069 C 
ATOM     12  C   UNL     1      31.736  -9.744 -19.463  0.00  0.00    +0.038 C 
ATOM     13  C   UNL     1      32.775  -7.557 -20.849  0.00  0.00    +0.010 C 
ATOM     14  C   UNL     1      31.966  -8.541 -18.796  0.00  0.00    +0.003 C 
ATOM     15  C   UNL     1      32.486  -7.448 -19.489  0.00  0.00    +0.001 C 
ENDBRANCH   8  10
ENDBRANCH   3   8
ENDBRANCH   1   2
BRANCH   1  16
ATOM     16  CA  UNL     1      35.270 -16.507 -20.982  0.00  0.00    +0.108 C 
ATOM     17  O   UNL     1      35.023 -19.213 -21.855  0.00  0.00    -0.270 OA
ATOM     18  N   UNL     1      35.018 -17.591 -20.189  0.00  0.00    -0.278 N 
ATOM     19  C   UNL     1      34.909 -18.884 -20.676  0.00  0.00    +0.249 C 
ATOM     20  H   UNL     1      34.908 -17.445 -19.221  0.00  0.00    +0.155 HD
BRANCH  19  21
ATOM     21  C   UNL     1      34.656 -19.935 -19.656  0.00  0.00    +0.054 C 
ATOM     22  C   UNL     1      33.353 -20.311 -19.399  0.00  0.00    +0.005 C 
ATOM     23  C   UNL     1      35.729 -20.501 -19.003  0.00  0.00    +0.005 C 
ATOM     24  C   UNL     1      33.115 -21.297 -18.442  0.00  0.00    +0.000 C 
ATOM     25  C   UNL     1      35.491 -21.488 -18.046  0.00  0.00    +0.000 C 
ATOM     26  C   UNL     1      34.183 -21.886 -17.766  0.00  0.00    +0.000 C 
ENDBRANCH  19  21
BRANCH  16  28
ATOM     27  OXT UNL     1      34.625 -16.485 -23.305  0.00  0.00    -0.244 OA
ATOM     28  C   UNL     1      35.454 -16.728 -22.441  0.00  0.00    +0.348 C 
BRANCH  28  29
ATOM     29  O   UNL     1      36.679 -17.244 -22.701  0.00  0.00    -0.476 OA
ATOM     30  H   UNL     1      37.197 -17.596 -22.004  0.00  0.00    +0.295 HD
ENDBRANCH  28  29
ENDBRANCH  16  28
ENDBRANCH   1  16
TORSDOF 7
ENDMDL
MODEL 3
REMARK VINA RESULT:     -11.0      1.460      1.991
REMARK  Name = 657131
REMARK  7 active torsions:
REMARK  status: ('A' for Active; 'I' for Inactive)
REMARK    1  A    between atoms: C_1  and  CA_2
REMARK    2  A    between atoms: C_1  and  C_3
REMARK    3  A    between atoms: CA_2  and  C_28
REMARK    4  A    between atoms: C_4  and  O_9
REMARK    5  A    between atoms: O_9  and  C_11
REMARK    6  A    between atoms: C_19  and  C_21
REMARK    7  A    between atoms: C_28  and  O_29
REMARK                            x       y       z     vdW  Elec       q    Type
REMARK                         _______ _______ _______ _____ _____    ______ ____
ROOT
ATOM      1  C   UNL     1      35.242 -14.118 -22.847  0.00  0.00    +0.074 C 
ENDROOT
BRANCH   1   2
ATOM      2  C   UNL     1      34.275 -13.105 -22.460  0.00  0.00    -0.016 C 
ATOM      3  C   UNL     1      32.419 -11.159 -21.717  0.00  0.00    +0.145 C 
ATOM      4  C   UNL     1      33.378 -13.356 -21.421  0.00  0.00    -0.001 C 
ATOM      5  C   UNL     1      34.244 -11.879 -23.126  0.00  0.00    -0.001 C 
ATOM      6  C   UNL     1      32.450 -12.383 -21.050  0.00  0.00    +0.037 C 
ATOM      7  C   UNL     1      33.316 -10.906 -22.755  0.00  0.00    +0.037 C 
BRANCH   3   8
ATOM      8  O   UNL     1      31.515 -10.209 -21.354  0.00  0.00    -0.453 OA
BRANCH   8  10
ATOM      9 BR   UNL     1      31.411 -10.293 -18.234  0.00  0.00    -0.046 Br
ATOM     10  C   UNL     1      31.996  -9.052 -20.765  0.00  0.00    +0.151 C 
ATOM     11  C   UNL     1      32.023  -8.919 -19.387  0.00  0.00    +0.069 C 
ATOM     12  C   UNL     1      32.445  -8.043 -21.599  0.00  0.00    +0.038 C 
ATOM     13  C   UNL     1      32.515  -7.739 -18.827  0.00  0.00    +0.010 C 
ATOM     14  C   UNL     1      32.937  -6.864 -21.038  0.00  0.00    +0.003 C 
ATOM     15  C   UNL     1      32.972  -6.712 -19.652  0.00  0.00    +0.001 C 
ENDBRANCH   8  10
ENDBRANCH   3   8
ENDBRANCH   1   2
BRANCH   1  16
ATOM     16  CA  UNL     1      34.981 -15.424 -23.089  0.00  0.00    +0.108 C 
ATOM     17  O   UNL     1      34.463 -18.205 -23.471  0.00  0.00    -0.270 OA
ATOM     18  N   UNL     1      35.134 -16.409 -22.154  0.00  0.00    -0.278 N 
ATOM     19  C   UNL     1      34.864 -17.746 -22.404  0.00  0.00    +0.249 C 
ATOM     20  H   UNL     1      35.451 -16.156 -21.257  0.00  0.00    +0.155 HD
BRANCH  19  21
ATOM     21  C   UNL     1      35.113 -18.673 -21.269  0.00  0.00    +0.054 C 
ATOM     22  C   UNL     1      36.398 -18.802 -20.785  0.00  0.00    +0.005 C 
ATOM     23  C   UNL     1      34.051 -19.372 -20.736  0.00  0.00    +0.005 C 
ATOM     24  C   UNL     1      36.632 -19.671 -19.721  0.00  0.00    +0.000 C 
ATOM     25  C   UNL     1      34.285 -20.242 -19.670  0.00  0.00    +0.000 C 
ATOM     26  C   UNL     1      35.576 -20.391 -19.163  0.00  0.00    +0.000 C 
ENDBRANCH  19  21
BRANCH  16  28
ATOM     27  OXT UNL     1      35.240 -16.002 -25.415  0.00  0.00    -0.244 OA
ATOM     28  C   UNL     1      34.518 -15.807 -24.449  0.00  0.00    +0.348 C 
BRANCH  28  29
ATOM     29  O   UNL     1      33.168 -15.916 -24.488  0.00  0.00    -0.476 OA
ATOM     30  H   UNL     1      32.689 -16.094 -23.702  0.00  0.00    +0.295 HD
ENDBRANCH  28  29
ENDBRANCH  16  28
ENDBRANCH   1  16
TORSDOF 7
ENDMDL
MODEL 4
REMARK VINA RESULT:     -10.8      4.950      8.199
REMARK  Name = 657131
REMARK  7 active torsions:
REMARK  status: ('A' for Active; 'I' for Inactive)
REMARK    1  A    between atoms: C_1  and  CA_2
REMARK    2  A    between atoms: C_1  and  C_3
REMARK    3  A    between atoms: CA_2  and  C_28
REMARK    4  A    between atoms: C_4  and  O_9
REMARK    5  A    between atoms: O_9  and  C_11
REMARK    6  A    between atoms: C_19  and  C_21
REMARK    7  A    between atoms: C_28  and  O_29
REMARK                            x       y       z     vdW  Elec       q    Type
REMARK                         _______ _______ _______ _____ _____    ______ ____
ROOT
ATOM      1  C   UNL     1      37.063 -21.464 -16.669  0.00  0.00    +0.074 C 
ENDROOT
BRANCH   1   2
ATOM      2  C   UNL     1      36.450 -20.919 -17.869  0.00  0.00    -0.016 C 
ATOM      3  C   UNL     1      35.276 -19.872 -20.173  0.00  0.00    +0.145 C 
ATOM      4  C   UNL     1      35.106 -21.171 -18.144  0.00  0.00    -0.001 C 
ATOM      5  C   UNL     1      37.207 -20.143 -18.747  0.00  0.00    -0.001 C 
ATOM      6  C   UNL     1      34.519 -20.647 -19.296  0.00  0.00    +0.037 C 
ATOM      7  C   UNL     1      36.620 -19.619 -19.899  0.00  0.00    +0.037 C 
BRANCH   3   8
ATOM      8  O   UNL     1      34.703 -19.360 -21.296  0.00  0.00    -0.453 OA
BRANCH   8  10
ATOM      9 BR   UNL     1      34.570 -18.705 -24.346  0.00  0.00    -0.046 Br
ATOM     10  C   UNL     1      34.909 -18.018 -21.571  0.00  0.00    +0.151 C 
ATOM     11  C   UNL     1      34.884 -17.552 -22.874  0.00  0.00    +0.069 C 
ATOM     12  C   UNL     1      35.139 -17.169 -20.502  0.00  0.00    +0.038 C 
ATOM     13  C   UNL     1      35.095 -16.195 -23.116  0.00  0.00    +0.010 C 
ATOM     14  C   UNL     1      35.350 -15.811 -20.744  0.00  0.00    +0.003 C 
ATOM     15  C   UNL     1      35.328 -15.325 -22.051  0.00  0.00    +0.001 C 
ENDBRANCH   8  10
ENDBRANCH   3   8
ENDBRANCH   1   2
BRANCH   1  16
ATOM     16  CA  UNL     1      36.434 -22.162 -15.695  0.00  0.00    +0.108 C 
ATOM     17  O   UNL     1      34.987 -23.593 -13.693  0.00  0.00    -0.270 OA
ATOM     18  N   UNL     1      35.074 -22.204 -15.556  0.00  0.00    -0.278 N 
ATOM     19  C   UNL     1      34.431 -22.920 -14.559  0.00  0.00    +0.249 C 
ATOM     20  H   UNL     1      34.524 -21.700 -16.198  0.00  0.00    +0.155 HD
BRANCH  19  21
ATOM     21  C   UNL     1      32.949 -22.825 -14.555  0.00  0.00    +0.054 C 
ATOM     22  C   UNL     1      32.275 -22.978 -13.361  0.00  0.00    +0.005 C 
ATOM     23  C   UNL     1      32.294 -22.584 -15.744  0.00  0.00    +0.005 C 
ATOM     24  C   UNL     1      30.884 -22.889 -13.357  0.00  0.00    +0.000 C 
ATOM     25  C   UNL     1      30.902 -22.495 -15.741  0.00  0.00    +0.000 C 
ATOM     26  C   UNL     1      30.197 -22.647 -14.546  0.00  0.00    +0.000 C 
ENDBRANCH  19  21
BRANCH  16  28
ATOM     27  OXT UNL     1      37.815 -22.427 -13.737  0.00  0.00    -0.244 OA
ATOM     28  C   UNL     1      37.266 -22.910 -14.716  0.00  0.00    +0.348 C 
BRANCH  28  29
ATOM     29  O   UNL     1      37.345 -24.221 -15.049  0.00  0.00    -0.476 OA
ATOM     30  H   UNL     1      36.574 -24.752 -15.045  0.00  0.00    +0.295 HD
ENDBRANCH  28  29
ENDBRANCH  16  28
ENDBRANCH   1  16
TORSDOF 7
ENDMDL
MODEL 5
REMARK VINA RESULT:     -10.8      4.931      7.866
REMARK  Name = 657131
REMARK  7 active torsions:
REMARK  status: ('A' for Active; 'I' for Inactive)
REMARK    1  A    between atoms: C_1  and  CA_2
REMARK    2  A    between atoms: C_1  and  C_3
REMARK    3  A    between atoms: CA_2  and  C_28
REMARK    4  A    between atoms: C_4  and  O_9
REMARK    5  A    between atoms: O_9  and  C_11
REMARK    6  A    between atoms: C_19  and  C_21
REMARK    7  A    between atoms: C_28  and  O_29
REMARK                            x       y       z     vdW  Elec       q    Type
REMARK                         _______ _______ _______ _____ _____    ______ ____
ROOT
ATOM      1  C   UNL     1      34.834 -22.274 -18.329  0.00  0.00    +0.074 C 
ENDROOT
BRANCH   1   2
ATOM      2  C   UNL     1      35.050 -21.022 -19.035  0.00  0.00    -0.016 C 
ATOM      3  C   UNL     1      35.467 -18.619 -20.390  0.00  0.00    +0.145 C 
ATOM      4  C   UNL     1      33.962 -20.297 -19.522  0.00  0.00    -0.001 C 
ATOM      5  C   UNL     1      36.347 -20.544 -19.225  0.00  0.00    -0.001 C 
ATOM      6  C   UNL     1      34.170 -19.096 -20.200  0.00  0.00    +0.037 C 
ATOM      7  C   UNL     1      36.555 -19.342 -19.902  0.00  0.00    +0.037 C 
BRANCH   3   8
ATOM      8  O   UNL     1      35.669 -17.446 -21.050  0.00  0.00    -0.453 OA
BRANCH   8  10
ATOM      9 BR   UNL     1      35.031 -14.497 -21.852  0.00  0.00    -0.046 Br
ATOM     10  C   UNL     1      35.161 -17.333 -22.333  0.00  0.00    +0.151 C 
ATOM     11  C   UNL     1      34.823 -16.094 -22.851  0.00  0.00    +0.069 C 
ATOM     12  C   UNL     1      35.005 -18.494 -23.070  0.00  0.00    +0.038 C 
ATOM     13  C   UNL     1      34.313 -16.016 -24.148  0.00  0.00    +0.010 C 
ATOM     14  C   UNL     1      34.496 -18.415 -24.366  0.00  0.00    +0.003 C 
ATOM     15  C   UNL     1      34.150 -17.176 -24.905  0.00  0.00    +0.001 C 
ENDBRANCH   8  10
ENDBRANCH   3   8
ENDBRANCH   1   2
BRANCH   1  16
ATOM     16  CA  UNL     1      34.358 -22.410 -17.069  0.00  0.00    +0.108 C 
ATOM     17  O   UNL     1      33.230 -22.712 -14.464  0.00  0.00    -0.270 OA
ATOM     18  N   UNL     1      33.035 -22.593 -16.779  0.00  0.00    -0.278 N 
ATOM     19  C   UNL     1      32.549 -22.733 -15.488  0.00  0.00    +0.249 C 
ATOM     20  H   UNL     1      32.394 -22.626 -17.525  0.00  0.00    +0.155 HD
BRANCH  19  21
ATOM     21  C   UNL     1      31.077 -22.899 -15.371  0.00  0.00    +0.054 C 
ATOM     22  C   UNL     1      30.253 -21.958 -15.952  0.00  0.00    +0.005 C 
ATOM     23  C   UNL     1      30.583 -23.990 -14.688  0.00  0.00    +0.005 C 
ATOM     24  C   UNL     1      28.872 -22.114 -15.843  0.00  0.00    +0.000 C 
ATOM     25  C   UNL     1      29.201 -24.146 -14.579  0.00  0.00    +0.000 C 
ATOM     26  C   UNL     1      28.345 -23.207 -15.157  0.00  0.00    +0.000 C 
ENDBRANCH  19  21
BRANCH  16  28
ATOM     27  OXT UNL     1      35.815 -21.318 -15.488  0.00  0.00    -0.244 OA
ATOM     28  C   UNL     1      35.324 -22.342 -15.941  0.00  0.00    +0.348 C 
BRANCH  28  29
ATOM     29  O   UNL     1      35.603 -23.580 -15.467  0.00  0.00    -0.476 OA
ATOM     30  H   UNL     1      36.023 -23.680 -14.636  0.00  0.00    +0.295 HD
ENDBRANCH  28  29
ENDBRANCH  16  28
ENDBRANCH   1  16
TORSDOF 7
ENDMDL
MODEL 6
REMARK VINA RESULT:     -10.7      3.707     10.075
REMARK  Name = 657131
REMARK  7 active torsions:
REMARK  status: ('A' for Active; 'I' for Inactive)
REMARK    1  A    between atoms: C_1  and  CA_2
REMARK    2  A    between atoms: C_1  and  C_3
REMARK    3  A    between atoms: CA_2  and  C_28
REMARK    4  A    between atoms: C_4  and  O_9
REMARK    5  A    between atoms: O_9  and  C_11
REMARK    6  A    between atoms: C_19  and  C_21
REMARK    7  A    between atoms: C_28  and  O_29
REMARK                            x       y       z     vdW  Elec       q    Type
REMARK                         _______ _______ _______ _____ _____    ______ ____
ROOT
ATOM      1  C   UNL     1      31.712 -11.563 -20.378  0.00  0.00    +0.074 C 
ENDROOT
BRANCH   1   2
ATOM      2  C   UNL     1      32.721 -12.462 -20.912  0.00  0.00    -0.016 C 
ATOM      3  C   UNL     1      34.659 -14.186 -21.940  0.00  0.00    +0.145 C 
ATOM      4  C   UNL     1      33.324 -13.408 -20.083  0.00  0.00    -0.001 C 
ATOM      5  C   UNL     1      33.088 -12.378 -22.256  0.00  0.00    -0.001 C 
ATOM      6  C   UNL     1      34.293 -14.271 -20.597  0.00  0.00    +0.037 C 
ATOM      7  C   UNL     1      34.057 -13.241 -22.770  0.00  0.00    +0.037 C 
BRANCH   3   8
ATOM      8  O   UNL     1      35.603 -15.028 -22.441  0.00  0.00    -0.453 OA
BRANCH   8  10
ATOM      9 BR   UNL     1      36.087 -17.576 -20.702  0.00  0.00    -0.046 Br
ATOM     10  C   UNL     1      35.169 -16.192 -23.054  0.00  0.00    +0.151 C 
ATOM     11  C   UNL     1      35.307 -17.416 -22.422  0.00  0.00    +0.069 C 
ATOM     12  C   UNL     1      34.598 -16.085 -24.310  0.00  0.00    +0.038 C 
ATOM     13  C   UNL     1      34.859 -18.569 -23.068  0.00  0.00    +0.010 C 
ATOM     14  C   UNL     1      34.150 -17.238 -24.955  0.00  0.00    +0.003 C 
ATOM     15  C   UNL     1      34.281 -18.480 -24.334  0.00  0.00    +0.001 C 
ENDBRANCH   8  10
ENDBRANCH   3   8
ENDBRANCH   1   2
BRANCH   1  16
ATOM     16  CA  UNL     1      31.870 -10.244 -20.120  0.00  0.00    +0.108 C 
ATOM     17  O   UNL     1      32.218  -7.441 -19.711  0.00  0.00    -0.270 OA
ATOM     18  N   UNL     1      32.091  -9.308 -21.092  0.00  0.00    -0.278 N 
ATOM     19  C   UNL     1      32.252  -7.957 -20.826  0.00  0.00    +0.249 C 
ATOM     20  H   UNL     1      32.137  -9.609 -22.028  0.00  0.00    +0.155 HD
BRANCH  19  21
ATOM     21  C   UNL     1      32.506  -7.096 -22.010  0.00  0.00    +0.054 C 
ATOM     22  C   UNL     1      33.548  -7.419 -22.856  0.00  0.00    +0.005 C 
ATOM     23  C   UNL     1      31.692  -6.005 -22.228  0.00  0.00    +0.005 C 
ATOM     24  C   UNL     1      33.786  -6.612 -23.967  0.00  0.00    +0.000 C 
ATOM     25  C   UNL     1      31.931  -5.198 -23.340  0.00  0.00    +0.000 C 
ATOM     26  C   UNL     1      32.979  -5.502 -24.210  0.00  0.00    +0.000 C 
ENDBRANCH  19  21
BRANCH  16  28
ATOM     27  OXT UNL     1      32.786  -9.553 -18.000  0.00  0.00    -0.244 OA
ATOM     28  C   UNL     1      31.817  -9.793 -18.705  0.00  0.00    +0.348 C 
BRANCH  28  29
ATOM     29  O   UNL     1      30.535  -9.679 -18.281  0.00  0.00    -0.476 OA
ATOM     30  H   UNL     1      30.325  -9.821 -17.380  0.00  0.00    +0.295 HD
ENDBRANCH  28  29
ENDBRANCH  16  28
ENDBRANCH   1  16
TORSDOF 7
ENDMDL
MODEL 7
REMARK VINA RESULT:     -10.6      3.607      6.477
REMARK  Name = 657131
REMARK  7 active torsions:
REMARK  status: ('A' for Active; 'I' for Inactive)
REMARK    1  A    between atoms: C_1  and  CA_2
REMARK    2  A    between atoms: C_1  and  C_3
REMARK    3  A    between atoms: CA_2  and  C_28
REMARK    4  A    between atoms: C_4  and  O_9
REMARK    5  A    between atoms: O_9  and  C_11
REMARK    6  A    between atoms: C_19  and  C_21
REMARK    7  A    between atoms: C_28  and  O_29
REMARK                            x       y       z     vdW  Elec       q    Type
REMARK                         _______ _______ _______ _____ _____    ______ ____
ROOT
ATOM      1  C   UNL     1      36.320 -20.929 -18.886  0.00  0.00    +0.074 C 
ENDROOT
BRANCH   1   2
ATOM      2  C   UNL     1      36.121 -19.872 -19.864  0.00  0.00    -0.016 C 
ATOM      3  C   UNL     1      35.736 -17.845 -21.742  0.00  0.00    +0.145 C 
ATOM      4  C   UNL     1      37.154 -18.981 -20.151  0.00  0.00    -0.001 C 
ATOM      5  C   UNL     1      34.894 -19.750 -20.517  0.00  0.00    -0.001 C 
ATOM      6  C   UNL     1      36.962 -17.967 -21.090  0.00  0.00    +0.037 C 
ATOM      7  C   UNL     1      34.702 -18.736 -21.456  0.00  0.00    +0.037 C 
BRANCH   3   8
ATOM      8  O   UNL     1      35.549 -16.857 -22.658  0.00  0.00    -0.453 OA
BRANCH   8  10
ATOM      9 BR   UNL     1      34.262 -15.142 -24.928  0.00  0.00    -0.046 Br
ATOM     10  C   UNL     1      35.054 -15.644 -22.207  0.00  0.00    +0.151 C 
ATOM     11  C   UNL     1      34.449 -14.758 -23.082  0.00  0.00    +0.069 C 
ATOM     12  C   UNL     1      35.187 -15.356 -20.859  0.00  0.00    +0.038 C 
ATOM     13  C   UNL     1      33.962 -13.545 -22.593  0.00  0.00    +0.010 C 
ATOM     14  C   UNL     1      34.699 -14.143 -20.372  0.00  0.00    +0.003 C 
ATOM     15  C   UNL     1      34.087 -13.238 -21.239  0.00  0.00    +0.001 C 
ENDBRANCH   8  10
ENDBRANCH   3   8
ENDBRANCH   1   2
BRANCH   1  16
ATOM     16  CA  UNL     1      35.369 -21.475 -18.093  0.00  0.00    +0.108 C 
ATOM     17  O   UNL     1      33.454 -22.628 -16.318  0.00  0.00    -0.270 OA
ATOM     18  N   UNL     1      35.583 -21.818 -16.787  0.00  0.00    -0.278 N 
ATOM     19  C   UNL     1      34.607 -22.376 -15.975  0.00  0.00    +0.249 C 
ATOM     20  H   UNL     1      36.475 -21.660 -16.403  0.00  0.00    +0.155 HD
BRANCH  19  21
ATOM     21  C   UNL     1      35.035 -22.703 -14.590  0.00  0.00    +0.054 C 
ATOM     22  C   UNL     1      36.334 -22.430 -14.214  0.00  0.00    +0.005 C 
ATOM     23  C   UNL     1      34.120 -23.265 -13.726  0.00  0.00    +0.005 C 
ATOM     24  C   UNL     1      36.735 -22.736 -12.914  0.00  0.00    +0.000 C 
ATOM     25  C   UNL     1      34.522 -23.571 -12.426  0.00  0.00    +0.000 C 
ATOM     26  C   UNL     1      35.830 -23.307 -12.020  0.00  0.00    +0.000 C 
ENDBRANCH  19  21
BRANCH  16  28
ATOM     27  OXT UNL     1      33.082 -20.954 -18.651  0.00  0.00    -0.244 OA
ATOM     28  C   UNL     1      34.026 -21.730 -18.678  0.00  0.00    +0.348 C 
BRANCH  28  29
ATOM     29  O   UNL     1      33.975 -22.954 -19.256  0.00  0.00    -0.476 OA
ATOM     30  H   UNL     1      34.706 -23.270 -19.749  0.00  0.00    +0.295 HD
ENDBRANCH  28  29
ENDBRANCH  16  28
ENDBRANCH   1  16
TORSDOF 7
ENDMDL
MODEL 8
REMARK VINA RESULT:     -10.6      3.382     10.311
REMARK  Name = 657131
REMARK  7 active torsions:
REMARK  status: ('A' for Active; 'I' for Inactive)
REMARK    1  A    between atoms: C_1  and  CA_2
REMARK    2  A    between atoms: C_1  and  C_3
REMARK    3  A    between atoms: CA_2  and  C_28
REMARK    4  A    between atoms: C_4  and  O_9
REMARK    5  A    between atoms: O_9  and  C_11
REMARK    6  A    between atoms: C_19  and  C_21
REMARK    7  A    between atoms: C_28  and  O_29
REMARK                            x       y       z     vdW  Elec       q    Type
REMARK                         _______ _______ _______ _____ _____    ______ ____
ROOT
ATOM      1  C   UNL     1      31.668 -11.340 -20.674  0.00  0.00    +0.074 C 
ENDROOT
BRANCH   1   2
ATOM      2  C   UNL     1      32.716 -12.252 -21.100  0.00  0.00    -0.016 C 
ATOM      3  C   UNL     1      34.727 -14.003 -21.921  0.00  0.00    +0.145 C 
ATOM      4  C   UNL     1      33.216 -13.206 -20.213  0.00  0.00    -0.001 C 
ATOM      5  C   UNL     1      33.221 -12.175 -22.398  0.00  0.00    -0.001 C 
ATOM      6  C   UNL     1      34.222 -14.081 -20.623  0.00  0.00    +0.037 C 
ATOM      7  C   UNL     1      34.227 -13.051 -22.808  0.00  0.00    +0.037 C 
BRANCH   3   8
ATOM      8  O   UNL     1      35.707 -14.858 -22.321  0.00  0.00    -0.453 OA
BRANCH   8  10
ATOM      9 BR   UNL     1      34.444 -16.072 -24.906  0.00  0.00    -0.046 Br
ATOM     10  C   UNL     1      35.459 -16.217 -22.216  0.00  0.00    +0.151 C 
ATOM     11  C   UNL     1      34.901 -16.917 -23.272  0.00  0.00    +0.069 C 
ATOM     12  C   UNL     1      35.789 -16.842 -21.026  0.00  0.00    +0.038 C 
ATOM     13  C   UNL     1      34.665 -18.285 -23.132  0.00  0.00    +0.010 C 
ATOM     14  C   UNL     1      35.554 -18.210 -20.887  0.00  0.00    +0.003 C 
ATOM     15  C   UNL     1      34.991 -18.931 -21.940  0.00  0.00    +0.001 C 
ENDBRANCH   8  10
ENDBRANCH   3   8
ENDBRANCH   1   2
BRANCH   1  16
ATOM     16  CA  UNL     1      31.834 -10.050 -20.298  0.00  0.00    +0.108 C 
ATOM     17  O   UNL     1      32.191  -7.296 -19.637  0.00  0.00    -0.270 OA
ATOM     18  N   UNL     1      32.002  -9.022 -21.184  0.00  0.00    -0.278 N 
ATOM     19  C   UNL     1      32.171  -7.702 -20.797  0.00  0.00    +0.249 C 
ATOM     20  H   UNL     1      32.003  -9.231 -22.146  0.00  0.00    +0.155 HD
BRANCH  19  21
ATOM     21  C   UNL     1      32.362  -6.729 -21.904  0.00  0.00    +0.054 C 
ATOM     22  C   UNL     1      31.795  -5.476 -21.794  0.00  0.00    +0.005 C 
ATOM     23  C   UNL     1      33.102  -7.109 -23.003  0.00  0.00    +0.005 C 
ATOM     24  C   UNL     1      31.974  -4.563 -22.832  0.00  0.00    +0.000 C 
ATOM     25  C   UNL     1      33.282  -6.195 -24.042  0.00  0.00    +0.000 C 
ATOM     26  C   UNL     1      32.717  -4.921 -23.956  0.00  0.00    +0.000 C 
ENDBRANCH  19  21
BRANCH  16  28
ATOM     27  OXT UNL     1      32.853  -9.552 -18.170  0.00  0.00    -0.244 OA
ATOM     28  C   UNL     1      31.851  -9.738 -18.844  0.00  0.00    +0.348 C 
BRANCH  28  29
ATOM     29  O   UNL     1      30.592  -9.684 -18.347  0.00  0.00    -0.476 OA
ATOM     30  H   UNL     1      30.186  -8.855 -18.186  0.00  0.00    +0.295 HD
ENDBRANCH  28  29
ENDBRANCH  16  28
ENDBRANCH   1  16
TORSDOF 7
ENDMDL
MODEL 9
REMARK VINA RESULT:     -10.5      3.114      9.389
REMARK  Name = 657131
REMARK  7 active torsions:
REMARK  status: ('A' for Active; 'I' for Inactive)
REMARK    1  A    between atoms: C_1  and  CA_2
REMARK    2  A    between atoms: C_1  and  C_3
REMARK    3  A    between atoms: CA_2  and  C_28
REMARK    4  A    between atoms: C_4  and  O_9
REMARK    5  A    between atoms: O_9  and  C_11
REMARK    6  A    between atoms: C_19  and  C_21
REMARK    7  A    between atoms: C_28  and  O_29
REMARK                            x       y       z     vdW  Elec       q    Type
REMARK                         _______ _______ _______ _____ _____    ______ ____
ROOT
ATOM      1  C   UNL     1      36.233 -16.648 -21.522  0.00  0.00    +0.074 C 
ENDROOT
BRANCH   1   2
ATOM      2  C   UNL     1      35.943 -17.890 -20.826  0.00  0.00    -0.016 C 
ATOM      3  C   UNL     1      35.389 -20.275 -19.489  0.00  0.00    +0.145 C 
ATOM      4  C   UNL     1      34.623 -18.313 -20.672  0.00  0.00    -0.001 C 
ATOM      5  C   UNL     1      36.987 -18.661 -20.311  0.00  0.00    -0.001 C 
ATOM      6  C   UNL     1      34.346 -19.506 -20.003  0.00  0.00    +0.037 C 
ATOM      7  C   UNL     1      36.709 -19.853 -19.643  0.00  0.00    +0.037 C 
BRANCH   3   8
ATOM      8  O   UNL     1      35.118 -21.439 -18.838  0.00  0.00    -0.453 OA
BRANCH   8  10
ATOM      9 BR   UNL     1      32.996 -22.610 -16.870  0.00  0.00    -0.046 Br
ATOM     10  C   UNL     1      35.598 -21.582 -17.546  0.00  0.00    +0.151 C 
ATOM     11  C   UNL     1      34.788 -22.087 -16.544  0.00  0.00    +0.069 C 
ATOM     12  C   UNL     1      36.906 -21.202 -17.299  0.00  0.00    +0.038 C 
ATOM     13  C   UNL     1      35.304 -22.218 -15.254  0.00  0.00    +0.010 C 
ATOM     14  C   UNL     1      37.421 -21.334 -16.009  0.00  0.00    +0.003 C 
ATOM     15  C   UNL     1      36.619 -21.841 -14.987  0.00  0.00    +0.001 C 
ENDBRANCH   8  10
ENDBRANCH   3   8
ENDBRANCH   1   2
BRANCH   1  16
ATOM     16  CA  UNL     1      35.342 -15.876 -22.188  0.00  0.00    +0.108 C 
ATOM     17  O   UNL     1      33.446 -14.176 -23.477  0.00  0.00    -0.270 OA
ATOM     18  N   UNL     1      34.678 -14.828 -21.615  0.00  0.00    -0.278 N 
ATOM     19  C   UNL     1      33.766 -14.038 -22.298  0.00  0.00    +0.249 C 
ATOM     20  H   UNL     1      34.857 -14.623 -20.669  0.00  0.00    +0.155 HD
BRANCH  19  21
ATOM     21  C   UNL     1      33.128 -12.959 -21.500  0.00  0.00    +0.054 C 
ATOM     22  C   UNL     1      32.979 -11.711 -22.069  0.00  0.00    +0.005 C 
ATOM     23  C   UNL     1      32.702 -13.241 -20.220  0.00  0.00    +0.005 C 
ATOM     24  C   UNL     1      32.380 -10.698 -21.321  0.00  0.00    +0.000 C 
ATOM     25  C   UNL     1      32.102 -12.228 -19.472  0.00  0.00    +0.000 C 
ATOM     26  C   UNL     1      31.941 -10.956 -20.022  0.00  0.00    +0.000 C 
ENDBRANCH  19  21
BRANCH  16  28
ATOM     27  OXT UNL     1      34.355 -17.114 -24.006  0.00  0.00    -0.244 OA
ATOM     28  C   UNL     1      35.060 -16.197 -23.612  0.00  0.00    +0.348 C 
BRANCH  28  29
ATOM     29  O   UNL     1      35.694 -15.330 -24.438  0.00  0.00    -0.476 OA
ATOM     30  H   UNL     1      35.377 -15.196 -25.309  0.00  0.00    +0.295 HD
ENDBRANCH  28  29
ENDBRANCH  16  28
ENDBRANCH   1  16
TORSDOF 7
ENDMDL
