MODEL 1
REMARK VINA RESULT:     -12.3      0.000      0.000
REMARK  Name = 11626560
REMARK  5 active torsions:
REMARK  status: ('A' for Active; 'I' for Inactive)
REMARK    1  A    between atoms: C_2  and  C_10
REMARK    2  A    between atoms: C_5  and  O_23
REMARK    3  A    between atoms: N_7  and  C_13
REMARK    4  A    between atoms: O_23  and  C_24
REMARK    5  A    between atoms: C_24  and  C_29
REMARK                            x       y       z     vdW  Elec       q    Type
REMARK                         _______ _______ _______ _____ _____    ______ ____
ROOT
ATOM      1  N   UNL     1      32.797 -21.628 -17.926  0.00  0.00    -0.226 NA
ATOM      2  C   UNL     1      34.835 -20.650 -18.791  0.00  0.00    +0.025 C 
ATOM      3  C   UNL     1      35.580 -21.370 -17.861  0.00  0.00    +0.041 C 
ATOM      4  C   UNL     1      33.458 -20.815 -18.780  0.00  0.00    +0.101 C 
ATOM      5  C   UNL     1      34.937 -22.216 -16.965  0.00  0.00    +0.170 C 
ATOM      6  C   UNL     1      33.556 -22.310 -17.038  0.00  0.00    +0.160 C 
ATOM      7  N   UNL     1      32.899 -23.174 -16.127  0.00  0.00    -0.340 N 
ATOM      8  H   UNL     1      31.919 -23.263 -16.152  0.00  0.00    +0.144 HD
ATOM      9  H   UNL     1      33.423 -23.685 -15.469  0.00  0.00    +0.144 HD
ENDROOT
BRANCH   2  13
ATOM     10  N   UNL     1      35.776 -18.437 -21.422  0.00  0.00    -0.212 N 
ATOM     11  N   UNL     1      36.984 -18.479 -20.842  0.00  0.00    -0.176 NA
ATOM     12  C   UNL     1      34.831 -19.191 -20.795  0.00  0.00    +0.086 C 
ATOM     13  C   UNL     1      35.468 -19.771 -19.725  0.00  0.00    +0.039 C 
ATOM     14  C   UNL     1      36.792 -19.297 -19.804  0.00  0.00    +0.119 C 
BRANCH  10  16
ATOM     15  N   UNL     1      34.032 -15.845 -24.356  0.00  0.00    +0.384 N 
ATOM     16  C   UNL     1      35.577 -17.622 -22.625  0.00  0.00    +0.092 C 
ATOM     17  C   UNL     1      35.386 -16.131 -22.306  0.00  0.00    -0.002 C 
ATOM     18  C   UNL     1      34.426 -18.134 -23.506  0.00  0.00    -0.002 C 
ATOM     19  C   UNL     1      35.160 -15.324 -23.584  0.00  0.00    -0.080 C 
ATOM     20  C   UNL     1      34.241 -17.243 -24.734  0.00  0.00    -0.080 C 
ATOM     21  H   UNL     1      33.922 -15.286 -25.202  0.00  0.00    -0.085 HD
ATOM     22  H   UNL     1      33.195 -15.793 -23.775  0.00  0.00    -0.085 HD
ENDBRANCH  10  16
ENDBRANCH   2  13
BRANCH   5  23
ATOM     23  O   UNL     1      35.664 -22.920 -16.058  0.00  0.00    -0.472 OA
BRANCH  23  24
ATOM     24  C   UNL     1      36.187 -22.199 -14.942  0.00  0.00    +0.190 C 
ATOM     25  C   UNL     1      37.251 -21.220 -15.424  0.00  0.00    +0.052 C 
BRANCH  24  29
ATOM     26 CL   UNL     1      39.093 -23.046 -15.290  0.00  0.00    -0.080 Cl
ATOM     27 CL   UNL     1      34.269 -23.129 -12.756  0.00  0.00    -0.082 Cl
ATOM     28  F   UNL     1      39.824 -24.938 -13.168  0.00  0.00    -0.203 F 
ATOM     29  C   UNL     1      36.734 -23.178 -13.929  0.00  0.00    +0.041 C 
ATOM     30  C   UNL     1      38.052 -23.606 -14.031  0.00  0.00    +0.085 C 
ATOM     31  C   UNL     1      35.912 -23.639 -12.909  0.00  0.00    +0.058 C 
ATOM     32  C   UNL     1      38.556 -24.509 -13.095  0.00  0.00    +0.150 C 
ATOM     33  C   UNL     1      36.416 -24.543 -11.974  0.00  0.00    +0.014 C 
ATOM     34  C   UNL     1      37.738 -24.978 -12.068  0.00  0.00    +0.031 C 
ENDBRANCH  24  29
ENDBRANCH  23  24
ENDBRANCH   5  23
TORSDOF 5
ENDMDL
MODEL 2
REMARK VINA RESULT:     -11.6      1.023      2.145
REMARK  Name = 11626560
REMARK  5 active torsions:
REMARK  status: ('A' for Active; 'I' for Inactive)
REMARK    1  A    between atoms: C_2  and  C_10
REMARK    2  A    between atoms: C_5  and  O_23
REMARK    3  A    between atoms: N_7  and  C_13
REMARK    4  A    between atoms: O_23  and  C_24
REMARK    5  A    between atoms: C_24  and  C_29
REMARK                            x       y       z     vdW  Elec       q    Type
REMARK                         _______ _______ _______ _____ _____    ______ ____
ROOT
ATOM      1  N   UNL     1      32.589 -21.946 -17.415  0.00  0.00    -0.226 NA
ATOM      2  C   UNL     1      34.489 -20.914 -18.502  0.00  0.00    +0.025 C 
ATOM      3  C   UNL     1      35.351 -21.577 -17.633  0.00  0.00    +0.041 C 
ATOM      4  C   UNL     1      33.128 -21.132 -18.350  0.00  0.00    +0.101 C 
ATOM      5  C   UNL     1      34.835 -22.422 -16.657  0.00  0.00    +0.170 C 
ATOM      6  C   UNL     1      33.459 -22.572 -16.590  0.00  0.00    +0.160 C 
ATOM      7  N   UNL     1      32.931 -23.435 -15.598  0.00  0.00    -0.340 N 
ATOM      8  H   UNL     1      31.957 -23.563 -15.523  0.00  0.00    +0.144 HD
ATOM      9  H   UNL     1      33.538 -23.906 -14.982  0.00  0.00    +0.144 HD
ENDROOT
BRANCH   2  13
ATOM     10  N   UNL     1      35.059 -18.562 -21.119  0.00  0.00    -0.212 N 
ATOM     11  N   UNL     1      36.349 -18.882 -20.941  0.00  0.00    -0.176 NA
ATOM     12  C   UNL     1      34.203 -19.222 -20.291  0.00  0.00    +0.086 C 
ATOM     13  C   UNL     1      34.990 -20.038 -19.515  0.00  0.00    +0.039 C 
ATOM     14  C   UNL     1      36.303 -19.787 -19.960  0.00  0.00    +0.119 C 
BRANCH  10  16
ATOM     15  N   UNL     1      35.209 -15.925 -24.494  0.00  0.00    +0.384 N 
ATOM     16  C   UNL     1      34.690 -17.573 -22.137  0.00  0.00    +0.092 C 
ATOM     17  C   UNL     1      34.692 -18.156 -23.558  0.00  0.00    -0.002 C 
ATOM     18  C   UNL     1      35.557 -16.305 -22.074  0.00  0.00    -0.002 C 
ATOM     19  C   UNL     1      34.325 -17.087 -24.587  0.00  0.00    -0.080 C 
ATOM     20  C   UNL     1      35.154 -15.313 -23.166  0.00  0.00    -0.080 C 
ATOM     21  H   UNL     1      34.925 -15.234 -25.188  0.00  0.00    -0.085 HD
ATOM     22  H   UNL     1      36.166 -16.236 -24.662  0.00  0.00    -0.085 HD
ENDBRANCH  10  16
ENDBRANCH   2  13
BRANCH   5  23
ATOM     23  O   UNL     1      35.675 -23.071 -15.809  0.00  0.00    -0.472 OA
BRANCH  23  24
ATOM     24  C   UNL     1      36.269 -22.301 -14.763  0.00  0.00    +0.190 C 
ATOM     25  C   UNL     1      37.349 -21.398 -15.349  0.00  0.00    +0.052 C 
BRANCH  24  29
ATOM     26 CL   UNL     1      34.419 -22.979 -12.439  0.00  0.00    -0.080 Cl
ATOM     27 CL   UNL     1      39.119 -23.312 -15.177  0.00  0.00    -0.082 Cl
ATOM     28  F   UNL     1      35.793 -24.798 -10.591  0.00  0.00    -0.203 F 
ATOM     29  C   UNL     1      36.819 -23.233 -13.709  0.00  0.00    +0.041 C 
ATOM     30  C   UNL     1      36.027 -23.582 -12.622  0.00  0.00    +0.085 C 
ATOM     31  C   UNL     1      38.110 -23.729 -13.839  0.00  0.00    +0.058 C 
ATOM     32  C   UNL     1      36.535 -24.444 -11.650  0.00  0.00    +0.150 C 
ATOM     33  C   UNL     1      38.617 -24.589 -12.866  0.00  0.00    +0.014 C 
ATOM     34  C   UNL     1      37.830 -24.946 -11.771  0.00  0.00    +0.031 C 
ENDBRANCH  24  29
ENDBRANCH  23  24
ENDBRANCH   5  23
TORSDOF 5
ENDMDL
MODEL 3
REMARK VINA RESULT:     -11.1      2.009      3.117
REMARK  Name = 11626560
REMARK  5 active torsions:
REMARK  status: ('A' for Active; 'I' for Inactive)
REMARK    1  A    between atoms: C_2  and  C_10
REMARK    2  A    between atoms: C_5  and  O_23
REMARK    3  A    between atoms: N_7  and  C_13
REMARK    4  A    between atoms: O_23  and  C_24
REMARK    5  A    between atoms: C_24  and  C_29
REMARK                            x       y       z     vdW  Elec       q    Type
REMARK                         _______ _______ _______ _____ _____    ______ ____
ROOT
ATOM      1  N   UNL     1      33.232 -23.335 -15.455  0.00  0.00    -0.226 NA
ATOM      2  C   UNL     1      35.122 -22.040 -16.234  0.00  0.00    +0.025 C 
ATOM      3  C   UNL     1      35.737 -22.183 -14.993  0.00  0.00    +0.041 C 
ATOM      4  C   UNL     1      33.880 -22.631 -16.410  0.00  0.00    +0.101 C 
ATOM      5  C   UNL     1      35.103 -22.900 -13.985  0.00  0.00    +0.170 C 
ATOM      6  C   UNL     1      33.862 -23.452 -14.264  0.00  0.00    +0.160 C 
ATOM      7  N   UNL     1      33.215 -24.185 -13.239  0.00  0.00    -0.340 N 
ATOM      8  H   UNL     1      32.333 -24.590 -13.403  0.00  0.00    +0.144 HD
ATOM      9  H   UNL     1      33.648 -24.290 -12.360  0.00  0.00    +0.144 HD
ENDROOT
BRANCH   2  13
ATOM     10  N   UNL     1      36.052 -20.254 -19.175  0.00  0.00    -0.212 N 
ATOM     11  N   UNL     1      37.255 -20.178 -18.585  0.00  0.00    -0.176 NA
ATOM     12  C   UNL     1      35.115 -20.918 -18.445  0.00  0.00    +0.086 C 
ATOM     13  C   UNL     1      35.749 -21.307 -17.290  0.00  0.00    +0.039 C 
ATOM     14  C   UNL     1      37.065 -20.825 -17.432  0.00  0.00    +0.119 C 
BRANCH  10  16
ATOM     15  N   UNL     1      35.065 -17.469 -22.279  0.00  0.00    +0.384 N 
ATOM     16  C   UNL     1      35.852 -19.644 -20.494  0.00  0.00    +0.092 C 
ATOM     17  C   UNL     1      36.736 -18.407 -20.716  0.00  0.00    -0.002 C 
ATOM     18  C   UNL     1      34.379 -19.310 -20.776  0.00  0.00    -0.002 C 
ATOM     19  C   UNL     1      36.479 -17.792 -22.091  0.00  0.00    -0.080 C 
ATOM     20  C   UNL     1      34.221 -18.657 -22.150  0.00  0.00    -0.080 C 
ATOM     21  H   UNL     1      34.936 -17.071 -23.209  0.00  0.00    -0.085 HD
ATOM     22  H   UNL     1      34.790 -16.801 -21.558  0.00  0.00    -0.085 HD
ENDBRANCH  10  16
ENDBRANCH   2  13
BRANCH   5  23
ATOM     23  O   UNL     1      35.702 -23.042 -12.774  0.00  0.00    -0.472 OA
BRANCH  23  24
ATOM     24  C   UNL     1      36.107 -24.358 -12.397  0.00  0.00    +0.190 C 
ATOM     25  C   UNL     1      36.107 -24.472 -10.877  0.00  0.00    +0.052 C 
BRANCH  24  29
ATOM     26 CL   UNL     1      38.481 -22.917 -11.143  0.00  0.00    -0.080 Cl
ATOM     27 CL   UNL     1      36.197 -26.330 -14.726  0.00  0.00    -0.082 Cl
ATOM     28  F   UNL     1      40.948 -23.708 -12.522  0.00  0.00    -0.203 F 
ATOM     29  C   UNL     1      37.466 -24.650 -12.988  0.00  0.00    +0.041 C 
ATOM     30  C   UNL     1      38.591 -24.026 -12.463  0.00  0.00    +0.085 C 
ATOM     31  C   UNL     1      37.575 -25.539 -14.050  0.00  0.00    +0.058 C 
ATOM     32  C   UNL     1      39.846 -24.296 -13.009  0.00  0.00    +0.150 C 
ATOM     33  C   UNL     1      38.830 -25.808 -14.596  0.00  0.00    +0.014 C 
ATOM     34  C   UNL     1      39.965 -25.187 -14.076  0.00  0.00    +0.031 C 
ENDBRANCH  24  29
ENDBRANCH  23  24
ENDBRANCH   5  23
TORSDOF 5
ENDMDL
MODEL 4
REMARK VINA RESULT:     -11.1      6.413     11.622
REMARK  Name = 11626560
REMARK  5 active torsions:
REMARK  status: ('A' for Active; 'I' for Inactive)
REMARK    1  A    between atoms: C_2  and  C_10
REMARK    2  A    between atoms: C_5  and  O_23
REMARK    3  A    between atoms: N_7  and  C_13
REMARK    4  A    between atoms: O_23  and  C_24
REMARK    5  A    between atoms: C_24  and  C_29
REMARK                            x       y       z     vdW  Elec       q    Type
REMARK                         _______ _______ _______ _____ _____    ______ ____
ROOT
ATOM      1  N   UNL     1      34.688 -15.960 -25.262  0.00  0.00    -0.226 NA
ATOM      2  C   UNL     1      35.106 -16.577 -22.960  0.00  0.00    +0.025 C 
ATOM      3  C   UNL     1      34.467 -15.417 -22.530  0.00  0.00    +0.041 C 
ATOM      4  C   UNL     1      35.188 -16.798 -24.326  0.00  0.00    +0.101 C 
ATOM      5  C   UNL     1      33.941 -14.530 -23.461  0.00  0.00    +0.170 C 
ATOM      6  C   UNL     1      34.076 -14.844 -24.804  0.00  0.00    +0.160 C 
ATOM      7  N   UNL     1      33.538 -13.943 -25.756  0.00  0.00    -0.340 N 
ATOM      8  H   UNL     1      33.617 -14.136 -26.718  0.00  0.00    +0.144 HD
ATOM      9  H   UNL     1      33.085 -13.122 -25.455  0.00  0.00    +0.144 HD
ENDROOT
BRANCH   2  13
ATOM     10  N   UNL     1      35.830 -19.170 -20.624  0.00  0.00    -0.212 N 
ATOM     11  N   UNL     1      37.067 -18.651 -20.637  0.00  0.00    -0.176 NA
ATOM     12  C   UNL     1      34.947 -18.526 -21.436  0.00  0.00    +0.086 C 
ATOM     13  C   UNL     1      35.657 -17.508 -22.025  0.00  0.00    +0.039 C 
ATOM     14  C   UNL     1      36.956 -17.633 -21.495  0.00  0.00    +0.119 C 
BRANCH  10  16
ATOM     15  N   UNL     1      34.620 -21.622 -17.324  0.00  0.00    +0.384 N 
ATOM     16  C   UNL     1      35.541 -20.334 -19.780  0.00  0.00    +0.092 C 
ATOM     17  C   UNL     1      34.050 -20.458 -19.431  0.00  0.00    -0.002 C 
ATOM     18  C   UNL     1      36.397 -20.370 -18.504  0.00  0.00    -0.002 C 
ATOM     19  C   UNL     1      33.799 -21.670 -18.534  0.00  0.00    -0.080 C 
ATOM     20  C   UNL     1      36.047 -21.585 -17.646  0.00  0.00    -0.080 C 
ATOM     21  H   UNL     1      34.430 -22.451 -16.760  0.00  0.00    -0.085 HD
ATOM     22  H   UNL     1      34.386 -20.772 -16.811  0.00  0.00    -0.085 HD
ENDBRANCH  10  16
ENDBRANCH   2  13
BRANCH   5  23
ATOM     23  O   UNL     1      33.317 -13.398 -23.042  0.00  0.00    -0.472 OA
BRANCH  23  24
ATOM     24  C   UNL     1      34.137 -12.366 -22.495  0.00  0.00    +0.190 C 
ATOM     25  C   UNL     1      34.808 -12.872 -21.223  0.00  0.00    +0.052 C 
BRANCH  24  29
ATOM     26 CL   UNL     1      32.024 -12.593 -20.312  0.00  0.00    -0.080 Cl
ATOM     27 CL   UNL     1      34.718  -9.915 -24.219  0.00  0.00    -0.082 Cl
ATOM     28  F   UNL     1      30.574 -10.051 -20.082  0.00  0.00    -0.203 F 
ATOM     29  C   UNL     1      33.291 -11.140 -22.240  0.00  0.00    +0.041 C 
ATOM     30  C   UNL     1      32.309 -11.176 -21.259  0.00  0.00    +0.085 C 
ATOM     31  C   UNL     1      33.506  -9.991 -22.991  0.00  0.00    +0.058 C 
ATOM     32  C   UNL     1      31.529 -10.044 -21.024  0.00  0.00    +0.150 C 
ATOM     33  C   UNL     1      32.726  -8.860 -22.756  0.00  0.00    +0.014 C 
ATOM     34  C   UNL     1      31.737  -8.886 -21.773  0.00  0.00    +0.031 C 
ENDBRANCH  24  29
ENDBRANCH  23  24
ENDBRANCH   5  23
TORSDOF 5
ENDMDL
MODEL 5
REMARK VINA RESULT:     -11.1      5.170     10.569
REMARK  Name = 11626560
REMARK  5 active torsions:
REMARK  status: ('A' for Active; 'I' for Inactive)
REMARK    1  A    between atoms: C_2  and  C_10
REMARK    2  A    between atoms: C_5  and  O_23
REMARK    3  A    between atoms: N_7  and  C_13
REMARK    4  A    between atoms: O_23  and  C_24
REMARK    5  A    between atoms: C_24  and  C_29
REMARK                            x       y       z     vdW  Elec       q    Type
REMARK                         _______ _______ _______ _____ _____    ______ ____
ROOT
ATOM      1  N   UNL     1      37.554 -19.319 -20.137  0.00  0.00    -0.226 NA
ATOM      2  C   UNL     1      35.306 -19.954 -19.505  0.00  0.00    +0.025 C 
ATOM      3  C   UNL     1      34.787 -19.041 -20.420  0.00  0.00    +0.041 C 
ATOM      4  C   UNL     1      36.685 -20.052 -19.405  0.00  0.00    +0.101 C 
ATOM      5  C   UNL     1      35.648 -18.268 -21.190  0.00  0.00    +0.170 C 
ATOM      6  C   UNL     1      37.011 -18.443 -21.013  0.00  0.00    +0.160 C 
ATOM      7  N   UNL     1      37.891 -17.659 -21.799  0.00  0.00    -0.340 N 
ATOM      8  H   UNL     1      38.865 -17.758 -21.697  0.00  0.00    +0.144 HD
ATOM      9  H   UNL     1      37.527 -17.012 -22.447  0.00  0.00    +0.144 HD
ENDROOT
BRANCH   2  13
ATOM     10  N   UNL     1      33.757 -22.146 -17.160  0.00  0.00    -0.212 N 
ATOM     11  N   UNL     1      32.625 -21.806 -17.795  0.00  0.00    -0.176 NA
ATOM     12  C   UNL     1      34.875 -21.550 -17.658  0.00  0.00    +0.086 C 
ATOM     13  C   UNL     1      34.445 -20.763 -18.698  0.00  0.00    +0.039 C 
ATOM     14  C   UNL     1      33.051 -20.960 -18.737  0.00  0.00    +0.119 C 
BRANCH  10  16
ATOM     15  N   UNL     1      33.799 -23.771 -13.194  0.00  0.00    +0.384 N 
ATOM     16  C   UNL     1      33.702 -23.082 -16.033  0.00  0.00    +0.092 C 
ATOM     17  C   UNL     1      32.529 -22.799 -15.082  0.00  0.00    -0.002 C 
ATOM     18  C   UNL     1      35.024 -23.149 -15.251  0.00  0.00    -0.002 C 
ATOM     19  C   UNL     1      32.524 -23.783 -13.913  0.00  0.00    -0.080 C 
ATOM     20  C   UNL     1      34.915 -24.119 -14.075  0.00  0.00    -0.080 C 
ATOM     21  H   UNL     1      33.757 -24.446 -12.431  0.00  0.00    -0.085 HD
ATOM     22  H   UNL     1      33.956 -22.828 -12.837  0.00  0.00    -0.085 HD
ENDBRANCH  10  16
ENDBRANCH   2  13
BRANCH   5  23
ATOM     23  O   UNL     1      35.143 -17.377 -22.083  0.00  0.00    -0.472 OA
BRANCH  23  24
ATOM     24  C   UNL     1      35.403 -15.994 -21.843  0.00  0.00    +0.190 C 
ATOM     25  C   UNL     1      34.943 -15.629 -20.436  0.00  0.00    +0.052 C 
BRANCH  24  29
ATOM     26 CL   UNL     1      34.936 -13.055 -21.188  0.00  0.00    -0.080 Cl
ATOM     27 CL   UNL     1      34.612 -17.435 -24.415  0.00  0.00    -0.082 Cl
ATOM     28  F   UNL     1      33.579 -11.752 -23.442  0.00  0.00    -0.203 F 
ATOM     29  C   UNL     1      34.710 -15.166 -22.900  0.00  0.00    +0.041 C 
ATOM     30  C   UNL     1      34.466 -13.819 -22.665  0.00  0.00    +0.085 C 
ATOM     31  C   UNL     1      34.325 -15.763 -24.094  0.00  0.00    +0.058 C 
ATOM     32  C   UNL     1      33.827 -13.055 -23.641  0.00  0.00    +0.150 C 
ATOM     33  C   UNL     1      33.685 -14.999 -25.069  0.00  0.00    +0.014 C 
ATOM     34  C   UNL     1      33.435 -13.645 -24.843  0.00  0.00    +0.031 C 
ENDBRANCH  24  29
ENDBRANCH  23  24
ENDBRANCH   5  23
TORSDOF 5
ENDMDL
MODEL 6
REMARK VINA RESULT:     -11.0      6.834     11.951
REMARK  Name = 11626560
REMARK  5 active torsions:
REMARK  status: ('A' for Active; 'I' for Inactive)
REMARK    1  A    between atoms: C_2  and  C_10
REMARK    2  A    between atoms: C_5  and  O_23
REMARK    3  A    between atoms: N_7  and  C_13
REMARK    4  A    between atoms: O_23  and  C_24
REMARK    5  A    between atoms: C_24  and  C_29
REMARK                            x       y       z     vdW  Elec       q    Type
REMARK                         _______ _______ _______ _____ _____    ______ ____
ROOT
ATOM      1  N   UNL     1      34.470 -15.607 -25.426  0.00  0.00    -0.226 NA
ATOM      2  C   UNL     1      34.973 -16.263 -23.151  0.00  0.00    +0.025 C 
ATOM      3  C   UNL     1      34.393 -15.088 -22.680  0.00  0.00    +0.041 C 
ATOM      4  C   UNL     1      34.985 -16.471 -24.522  0.00  0.00    +0.101 C 
ATOM      5  C   UNL     1      33.853 -14.175 -23.578  0.00  0.00    +0.170 C 
ATOM      6  C   UNL     1      33.916 -14.478 -24.929  0.00  0.00    +0.160 C 
ATOM      7  N   UNL     1      33.363 -13.550 -25.846  0.00  0.00    -0.340 N 
ATOM      8  H   UNL     1      33.392 -13.735 -26.812  0.00  0.00    +0.144 HD
ATOM      9  H   UNL     1      32.951 -12.718 -25.516  0.00  0.00    +0.144 HD
ENDROOT
BRANCH   2  13
ATOM     10  N   UNL     1      35.726 -18.920 -20.897  0.00  0.00    -0.212 N 
ATOM     11  N   UNL     1      36.966 -18.409 -20.923  0.00  0.00    -0.176 NA
ATOM     12  C   UNL     1      34.832 -18.249 -21.674  0.00  0.00    +0.086 C 
ATOM     13  C   UNL     1      35.537 -17.221 -22.251  0.00  0.00    +0.039 C 
ATOM     14  C   UNL     1      36.846 -17.369 -21.753  0.00  0.00    +0.119 C 
BRANCH  10  16
ATOM     15  N   UNL     1      34.635 -21.445 -17.611  0.00  0.00    +0.384 N 
ATOM     16  C   UNL     1      35.447 -20.102 -20.077  0.00  0.00    +0.092 C 
ATOM     17  C   UNL     1      33.977 -20.184 -19.635  0.00  0.00    -0.002 C 
ATOM     18  C   UNL     1      36.381 -20.217 -18.861  0.00  0.00    -0.002 C 
ATOM     19  C   UNL     1      33.736 -21.417 -18.765  0.00  0.00    -0.080 C 
ATOM     20  C   UNL     1      36.039 -21.450 -18.024  0.00  0.00    -0.080 C 
ATOM     21  H   UNL     1      34.448 -22.286 -17.065  0.00  0.00    -0.085 HD
ATOM     22  H   UNL     1      34.468 -20.607 -17.055  0.00  0.00    -0.085 HD
ENDBRANCH  10  16
ENDBRANCH   2  13
BRANCH   5  23
ATOM     23  O   UNL     1      33.286 -13.028 -23.119  0.00  0.00    -0.472 OA
BRANCH  23  24
ATOM     24  C   UNL     1      34.160 -12.045 -22.565  0.00  0.00    +0.190 C 
ATOM     25  C   UNL     1      34.634 -12.505 -21.191  0.00  0.00    +0.052 C 
BRANCH  24  29
ATOM     26 CL   UNL     1      35.178  -9.846 -24.412  0.00  0.00    -0.080 Cl
ATOM     27 CL   UNL     1      31.833 -11.839 -20.599  0.00  0.00    -0.082 Cl
ATOM     28  F   UNL     1      33.566  -7.423 -24.035  0.00  0.00    -0.203 F 
ATOM     29  C   UNL     1      33.439 -10.718 -22.501  0.00  0.00    +0.041 C 
ATOM     30  C   UNL     1      33.854  -9.673 -23.317  0.00  0.00    +0.085 C 
ATOM     31  C   UNL     1      32.371 -10.560 -21.627  0.00  0.00    +0.058 C 
ATOM     32  C   UNL     1      33.188  -8.449 -23.258  0.00  0.00    +0.150 C 
ATOM     33  C   UNL     1      31.707  -9.335 -21.568  0.00  0.00    +0.014 C 
ATOM     34  C   UNL     1      32.115  -8.280 -22.383  0.00  0.00    +0.031 C 
ENDBRANCH  24  29
ENDBRANCH  23  24
ENDBRANCH   5  23
TORSDOF 5
ENDMDL
MODEL 7
REMARK VINA RESULT:     -11.0      8.760     12.656
REMARK  Name = 11626560
REMARK  5 active torsions:
REMARK  status: ('A' for Active; 'I' for Inactive)
REMARK    1  A    between atoms: C_2  and  C_10
REMARK    2  A    between atoms: C_5  and  O_23
REMARK    3  A    between atoms: N_7  and  C_13
REMARK    4  A    between atoms: O_23  and  C_24
REMARK    5  A    between atoms: C_24  and  C_29
REMARK                            x       y       z     vdW  Elec       q    Type
REMARK                         _______ _______ _______ _____ _____    ______ ____
ROOT
ATOM      1  N   UNL     1      31.736 -11.403 -18.694  0.00  0.00    -0.226 NA
ATOM      2  C   UNL     1      32.088  -9.490 -20.135  0.00  0.00    +0.025 C 
ATOM      3  C   UNL     1      32.404 -10.340 -21.191  0.00  0.00    +0.041 C 
ATOM      4  C   UNL     1      31.764 -10.069 -18.917  0.00  0.00    +0.101 C 
ATOM      5  C   UNL     1      32.387 -11.717 -21.002  0.00  0.00    +0.170 C 
ATOM      6  C   UNL     1      32.049 -12.194 -19.745  0.00  0.00    +0.160 C 
ATOM      7  N   UNL     1      32.028 -13.597 -19.550  0.00  0.00    -0.340 N 
ATOM      8  H   UNL     1      31.793 -13.969 -18.669  0.00  0.00    +0.144 HD
ATOM      9  H   UNL     1      32.250 -14.201 -20.295  0.00  0.00    +0.144 HD
ENDROOT
BRANCH   2  13
ATOM     10  N   UNL     1      31.950  -6.097 -21.217  0.00  0.00    -0.212 N 
ATOM     11  N   UNL     1      32.258  -5.820 -19.941  0.00  0.00    -0.176 NA
ATOM     12  C   UNL     1      31.841  -7.427 -21.486  0.00  0.00    +0.086 C 
ATOM     13  C   UNL     1      32.098  -8.070 -20.300  0.00  0.00    +0.039 C 
ATOM     14  C   UNL     1      32.348  -7.030 -19.383  0.00  0.00    +0.119 C 
BRANCH  10  16
ATOM     15  N   UNL     1      32.708  -2.833 -23.888  0.00  0.00    +0.384 N 
ATOM     16  C   UNL     1      31.762  -5.001 -22.172  0.00  0.00    +0.092 C 
ATOM     17  C   UNL     1      32.448  -5.265 -23.521  0.00  0.00    -0.002 C 
ATOM     18  C   UNL     1      32.194  -3.639 -21.606  0.00  0.00    -0.002 C 
ATOM     19  C   UNL     1      32.245  -4.090 -24.477  0.00  0.00    -0.080 C 
ATOM     20  C   UNL     1      32.002  -2.531 -22.643  0.00  0.00    -0.080 C 
ATOM     21  H   UNL     1      32.546  -2.075 -24.552  0.00  0.00    -0.085 HD
ATOM     22  H   UNL     1      33.702  -2.924 -23.678  0.00  0.00    -0.085 HD
ENDBRANCH  10  16
ENDBRANCH   2  13
BRANCH   5  23
ATOM     23  O   UNL     1      32.694 -12.547 -22.032  0.00  0.00    -0.472 OA
BRANCH  23  24
ATOM     24  C   UNL     1      34.064 -12.612 -22.431  0.00  0.00    +0.190 C 
ATOM     25  C   UNL     1      34.281 -11.715 -23.644  0.00  0.00    +0.052 C 
BRANCH  24  29
ATOM     26 CL   UNL     1      35.219 -14.212 -20.110  0.00  0.00    -0.080 Cl
ATOM     27 CL   UNL     1      33.575 -13.618 -25.272  0.00  0.00    -0.082 Cl
ATOM     28  F   UNL     1      35.817 -16.943 -21.003  0.00  0.00    -0.203 F 
ATOM     29  C   UNL     1      34.432 -14.050 -22.716  0.00  0.00    +0.041 C 
ATOM     30  C   UNL     1      34.964 -14.835 -21.701  0.00  0.00    +0.085 C 
ATOM     31  C   UNL     1      34.233 -14.569 -23.989  0.00  0.00    +0.058 C 
ATOM     32  C   UNL     1      35.303 -16.162 -21.963  0.00  0.00    +0.150 C 
ATOM     33  C   UNL     1      34.573 -15.895 -24.251  0.00  0.00    +0.014 C 
ATOM     34  C   UNL     1      35.108 -16.692 -23.239  0.00  0.00    +0.031 C 
ENDBRANCH  24  29
ENDBRANCH  23  24
ENDBRANCH   5  23
TORSDOF 5
ENDMDL
MODEL 8
REMARK VINA RESULT:     -10.8      9.042     12.821
REMARK  Name = 11626560
REMARK  5 active torsions:
REMARK  status: ('A' for Active; 'I' for Inactive)
REMARK    1  A    between atoms: C_2  and  C_10
REMARK    2  A    between atoms: C_5  and  O_23
REMARK    3  A    between atoms: N_7  and  C_13
REMARK    4  A    between atoms: O_23  and  C_24
REMARK    5  A    between atoms: C_24  and  C_29
REMARK                            x       y       z     vdW  Elec       q    Type
REMARK                         _______ _______ _______ _____ _____    ______ ____
ROOT
ATOM      1  N   UNL     1      31.728 -11.286 -18.668  0.00  0.00    -0.226 NA
ATOM      2  C   UNL     1      32.171  -9.373 -20.083  0.00  0.00    +0.025 C 
ATOM      3  C   UNL     1      32.472 -10.223 -21.144  0.00  0.00    +0.041 C 
ATOM      4  C   UNL     1      31.808  -9.952 -18.876  0.00  0.00    +0.101 C 
ATOM      5  C   UNL     1      32.402 -11.600 -20.969  0.00  0.00    +0.170 C 
ATOM      6  C   UNL     1      32.028 -12.077 -19.723  0.00  0.00    +0.160 C 
ATOM      7  N   UNL     1      31.953 -13.481 -19.543  0.00  0.00    -0.340 N 
ATOM      8  H   UNL     1      31.691 -13.853 -18.670  0.00  0.00    +0.144 HD
ATOM      9  H   UNL     1      32.164 -14.085 -20.292  0.00  0.00    +0.144 HD
ENDROOT
BRANCH   2  13
ATOM     10  N   UNL     1      32.318  -5.974 -21.147  0.00  0.00    -0.212 N 
ATOM     11  N   UNL     1      32.340  -5.706 -19.833  0.00  0.00    -0.176 NA
ATOM     12  C   UNL     1      32.254  -7.302 -21.442  0.00  0.00    +0.086 C 
ATOM     13  C   UNL     1      32.235  -7.952 -20.232  0.00  0.00    +0.039 C 
ATOM     14  C   UNL     1      32.290  -6.919 -19.276  0.00  0.00    +0.119 C 
BRANCH  10  16
ATOM     15  N   UNL     1      31.134  -2.923 -23.914  0.00  0.00    +0.384 N 
ATOM     16  C   UNL     1      32.358  -4.872 -22.113  0.00  0.00    +0.092 C 
ATOM     17  C   UNL     1      31.663  -3.603 -21.595  0.00  0.00    -0.002 C 
ATOM     18  C   UNL     1      31.800  -5.268 -23.489  0.00  0.00    -0.002 C 
ATOM     19  C   UNL     1      31.710  -2.490 -22.641  0.00  0.00    -0.080 C 
ATOM     20  C   UNL     1      31.842  -4.084 -24.456  0.00  0.00    -0.080 C 
ATOM     21  H   UNL     1      31.194  -2.157 -24.584  0.00  0.00    -0.085 HD
ATOM     22  H   UNL     1      30.162  -3.189 -23.752  0.00  0.00    -0.085 HD
ENDBRANCH  10  16
ENDBRANCH   2  13
BRANCH   5  23
ATOM     23  O   UNL     1      32.694 -12.430 -22.004  0.00  0.00    -0.472 OA
BRANCH  23  24
ATOM     24  C   UNL     1      34.058 -12.494 -22.423  0.00  0.00    +0.190 C 
ATOM     25  C   UNL     1      34.248 -11.629 -23.664  0.00  0.00    +0.052 C 
BRANCH  24  29
ATOM     26 CL   UNL     1      33.585 -13.563 -25.237  0.00  0.00    -0.080 Cl
ATOM     27 CL   UNL     1      35.214 -14.041 -20.059  0.00  0.00    -0.082 Cl
ATOM     28  F   UNL     1      34.420 -16.373 -25.372  0.00  0.00    -0.203 F 
ATOM     29  C   UNL     1      34.434 -13.936 -22.673  0.00  0.00    +0.041 C 
ATOM     30  C   UNL     1      34.244 -14.486 -23.934  0.00  0.00    +0.085 C 
ATOM     31  C   UNL     1      34.967 -14.695 -21.638  0.00  0.00    +0.058 C 
ATOM     32  C   UNL     1      34.592 -15.817 -24.165  0.00  0.00    +0.150 C 
ATOM     33  C   UNL     1      35.314 -16.025 -21.868  0.00  0.00    +0.014 C 
ATOM     34  C   UNL     1      35.127 -16.586 -23.131  0.00  0.00    +0.031 C 
ENDBRANCH  24  29
ENDBRANCH  23  24
ENDBRANCH   5  23
TORSDOF 5
ENDMDL
MODEL 9
REMARK VINA RESULT:     -10.7      9.382     14.027
REMARK  Name = 11626560
REMARK  5 active torsions:
REMARK  status: ('A' for Active; 'I' for Inactive)
REMARK    1  A    between atoms: C_2  and  C_10
REMARK    2  A    between atoms: C_5  and  O_23
REMARK    3  A    between atoms: N_7  and  C_13
REMARK    4  A    between atoms: O_23  and  C_24
REMARK    5  A    between atoms: C_24  and  C_29
REMARK                            x       y       z     vdW  Elec       q    Type
REMARK                         _______ _______ _______ _____ _____    ______ ____
ROOT
ATOM      1  N   UNL     1      31.766 -11.605 -19.287  0.00  0.00    -0.226 NA
ATOM      2  C   UNL     1      32.736 -11.977 -21.473  0.00  0.00    +0.025 C 
ATOM      3  C   UNL     1      32.617 -10.620 -21.761  0.00  0.00    +0.041 C 
ATOM      4  C   UNL     1      32.298 -12.413 -20.231  0.00  0.00    +0.101 C 
ATOM      5  C   UNL     1      32.075  -9.757 -20.816  0.00  0.00    +0.170 C 
ATOM      6  C   UNL     1      31.668 -10.294 -19.605  0.00  0.00    +0.160 C 
ATOM      7  N   UNL     1      31.117  -9.416 -18.639  0.00  0.00    -0.340 N 
ATOM      8  H   UNL     1      30.817  -9.765 -17.769  0.00  0.00    +0.144 HD
ATOM      9  H   UNL     1      31.032  -8.455 -18.839  0.00  0.00    +0.144 HD
ENDROOT
BRANCH   2  13
ATOM     10  N   UNL     1      34.258 -14.647 -23.279  0.00  0.00    -0.212 N 
ATOM     11  N   UNL     1      33.986 -13.893 -24.355  0.00  0.00    -0.176 NA
ATOM     12  C   UNL     1      33.862 -14.095 -22.099  0.00  0.00    +0.086 C 
ATOM     13  C   UNL     1      33.290 -12.889 -22.425  0.00  0.00    +0.039 C 
ATOM     14  C   UNL     1      33.395 -12.818 -23.828  0.00  0.00    +0.119 C 
BRANCH  10  16
ATOM     15  N   UNL     1      35.192 -18.822 -23.035  0.00  0.00    +0.384 N 
ATOM     16  C   UNL     1      34.924 -15.942 -23.450  0.00  0.00    +0.092 C 
ATOM     17  C   UNL     1      34.053 -16.962 -24.201  0.00  0.00    -0.002 C 
ATOM     18  C   UNL     1      35.422 -16.534 -22.122  0.00  0.00    -0.002 C 
ATOM     19  C   UNL     1      34.776 -18.301 -24.337  0.00  0.00    -0.080 C 
ATOM     20  C   UNL     1      36.087 -17.892 -22.346  0.00  0.00    -0.080 C 
ATOM     21  H   UNL     1      35.677 -19.709 -23.171  0.00  0.00    -0.085 HD
ATOM     22  H   UNL     1      34.359 -18.949 -22.460  0.00  0.00    -0.085 HD
ENDBRANCH  10  16
ENDBRANCH   2  13
BRANCH   5  23
ATOM     23  O   UNL     1      31.959  -8.432 -21.095  0.00  0.00    -0.472 OA
BRANCH  23  24
ATOM     24  C   UNL     1      33.164  -7.668 -21.142  0.00  0.00    +0.190 C 
ATOM     25  C   UNL     1      33.284  -6.833 -19.872  0.00  0.00    +0.052 C 
BRANCH  24  29
ATOM     26 CL   UNL     1      35.359  -8.218 -23.182  0.00  0.00    -0.080 Cl
ATOM     27 CL   UNL     1      30.965  -5.562 -21.357  0.00  0.00    -0.082 Cl
ATOM     28  F   UNL     1      35.062  -6.390 -25.459  0.00  0.00    -0.203 F 
ATOM     29  C   UNL     1      33.163  -6.811 -22.386  0.00  0.00    +0.041 C 
ATOM     30  C   UNL     1      34.137  -7.010 -23.357  0.00  0.00    +0.085 C 
ATOM     31  C   UNL     1      32.188  -5.835 -22.545  0.00  0.00    +0.058 C 
ATOM     32  C   UNL     1      34.135  -6.219 -24.506  0.00  0.00    +0.150 C 
ATOM     33  C   UNL     1      32.187  -5.044 -23.694  0.00  0.00    +0.014 C 
ATOM     34  C   UNL     1      33.160  -5.236 -24.674  0.00  0.00    +0.031 C 
ENDBRANCH  24  29
ENDBRANCH  23  24
ENDBRANCH   5  23
TORSDOF 5
ENDMDL
