MODEL 1
REMARK VINA RESULT:     -10.0      0.000      0.000
REMARK  Name = 446286
REMARK  4 active torsions:
REMARK  status: ('A' for Active; 'I' for Inactive)
REMARK    1  A    between atoms: C_9  and  C_17
REMARK    2  A    between atoms: C_11  and  C_22
REMARK    3  A    between atoms: C_25  and  O_28
REMARK    4  A    between atoms: C_27  and  O_30
REMARK                            x       y       z     vdW  Elec       q    Type
REMARK                         _______ _______ _______ _____ _____    ______ ____
ROOT
ATOM      1  O   UNL     1      34.605 -10.255 -23.311  0.00  0.00    -0.270 OA
ATOM      2  N   UNL     1      33.046 -11.019 -21.708  0.00  0.00    -0.255 N 
ATOM      3  C   UNL     1      32.000 -11.197 -19.463  0.00  0.00    +0.027 C 
ATOM      4  C   UNL     1      32.093 -12.710 -19.493  0.00  0.00    +0.029 C 
ATOM      5  C   UNL     1      31.873 -10.672 -20.883  0.00  0.00    +0.099 C 
ATOM      6  C   UNL     1      33.127 -13.176 -20.484  0.00  0.00    -0.008 C 
ATOM      7  C   UNL     1      33.575 -12.357 -21.546  0.00  0.00    +0.050 C 
ATOM      8  C   UNL     1      33.619 -14.487 -20.344  0.00  0.00    -0.002 C 
ATOM      9  C   UNL     1      34.555 -14.995 -21.236  0.00  0.00    +0.016 C 
ATOM     10  C   UNL     1      34.507 -12.904 -22.445  0.00  0.00    +0.015 C 
ATOM     11  C   UNL     1      33.632 -10.079 -22.581  0.00  0.00    +0.253 C 
ATOM     12  C   UNL     1      34.996 -14.204 -22.288  0.00  0.00    +0.003 C 
ENDROOT
BRANCH   9  17
ATOM     13  S   UNL     1      34.421 -18.978 -21.262  0.00  0.00    -0.051 S 
ATOM     14  O   UNL     1      36.296 -20.136 -19.895  0.00  0.00    -0.261 OA
ATOM     15  N   UNL     1      35.845 -16.606 -20.017  0.00  0.00    -0.182 NA
ATOM     16  N   UNL     1      36.321 -17.848 -19.767  0.00  0.00    -0.198 N 
ATOM     17  C   UNL     1      35.099 -16.380 -21.055  0.00  0.00    +0.086 C 
ATOM     18  C   UNL     1      34.786 -17.426 -22.108  0.00  0.00    +0.098 C 
ATOM     19  C   UNL     1      35.938 -17.592 -23.096  0.00  0.00    +0.019 C 
ATOM     20  C   UNL     1      35.822 -19.050 -20.218  0.00  0.00    +0.292 C 
ATOM     21  H   UNL     1      37.119 -17.898 -19.194  0.00  0.00    +0.178 HD
ENDBRANCH   9  17
BRANCH  11  22
ATOM     22  C   UNL     1      33.043  -8.726 -22.635  0.00  0.00    +0.057 C 
ATOM     23  C   UNL     1      33.168  -7.874 -21.542  0.00  0.00    +0.045 C 
ATOM     24  C   UNL     1      32.364  -8.314 -23.778  0.00  0.00    +0.008 C 
ATOM     25  C   UNL     1      32.610  -6.596 -21.592  0.00  0.00    +0.173 C 
ATOM     26  C   UNL     1      31.805  -7.036 -23.828  0.00  0.00    +0.040 C 
ATOM     27  C   UNL     1      31.929  -6.179 -22.735  0.00  0.00    +0.172 C 
BRANCH  25  28
ATOM     28  O   UNL     1      32.737  -5.767 -20.519  0.00  0.00    -0.468 OA
ATOM     29  C   UNL     1      32.434  -6.314 -19.238  0.00  0.00    +0.253 C 
ENDBRANCH  25  28
BRANCH  27  30
ATOM     30  O   UNL     1      31.380  -4.932 -22.797  0.00  0.00    -0.468 OA
ATOM     31  C   UNL     1      32.022  -3.982 -23.643  0.00  0.00    +0.253 C 
ENDBRANCH  27  30
ENDBRANCH  11  22
TORSDOF 4
ENDMDL
MODEL 2
REMARK VINA RESULT:      -9.7      3.716      9.976
REMARK  Name = 446286
REMARK  4 active torsions:
REMARK  status: ('A' for Active; 'I' for Inactive)
REMARK    1  A    between atoms: C_9  and  C_17
REMARK    2  A    between atoms: C_11  and  C_22
REMARK    3  A    between atoms: C_25  and  O_28
REMARK    4  A    between atoms: C_27  and  O_30
REMARK                            x       y       z     vdW  Elec       q    Type
REMARK                         _______ _______ _______ _____ _____    ______ ____
ROOT
ATOM      1  O   UNL     1      34.366 -12.200 -24.478  0.00  0.00    -0.270 OA
ATOM      2  N   UNL     1      33.570 -12.051 -22.258  0.00  0.00    -0.255 N 
ATOM      3  C   UNL     1      31.992 -12.440 -20.381  0.00  0.00    +0.027 C 
ATOM      4  C   UNL     1      31.932 -10.957 -20.068  0.00  0.00    +0.029 C 
ATOM      5  C   UNL     1      33.342 -12.772 -20.990  0.00  0.00    +0.099 C 
ATOM      6  C   UNL     1      32.366 -10.130 -21.250  0.00  0.00    -0.008 C 
ATOM      7  C   UNL     1      33.155 -10.665 -22.294  0.00  0.00    +0.050 C 
ATOM      8  C   UNL     1      31.987  -8.775 -21.270  0.00  0.00    -0.002 C 
ATOM      9  C   UNL     1      32.372  -7.943 -22.315  0.00  0.00    +0.016 C 
ATOM     10  C   UNL     1      33.547  -9.796 -23.327  0.00  0.00    +0.015 C 
ATOM     11  C   UNL     1      34.133 -12.697 -23.378  0.00  0.00    +0.253 C 
ATOM     12  C   UNL     1      33.155  -8.454 -23.341  0.00  0.00    +0.003 C 
ENDROOT
BRANCH   9  17
ATOM     13  S   UNL     1      32.832  -4.015 -22.806  0.00  0.00    -0.051 S 
ATOM     14  O   UNL     1      30.968  -2.563 -21.736  0.00  0.00    -0.261 OA
ATOM     15  N   UNL     1      31.138  -6.103 -21.400  0.00  0.00    -0.182 NA
ATOM     16  N   UNL     1      30.749  -4.809 -21.338  0.00  0.00    -0.198 N 
ATOM     17  C   UNL     1      31.933  -6.511 -22.343  0.00  0.00    +0.086 C 
ATOM     18  C   UNL     1      32.400  -5.630 -23.486  0.00  0.00    +0.098 C 
ATOM     19  C   UNL     1      31.336  -5.506 -24.573  0.00  0.00    +0.019 C 
ATOM     20  C   UNL     1      31.373  -3.712 -21.889  0.00  0.00    +0.292 C 
ATOM     21  H   UNL     1      29.920  -4.630 -20.838  0.00  0.00    +0.178 HD
ENDBRANCH   9  17
BRANCH  11  22
ATOM     22  C   UNL     1      34.477 -14.127 -23.249  0.00  0.00    +0.057 C 
ATOM     23  C   UNL     1      34.197 -15.002 -24.295  0.00  0.00    +0.045 C 
ATOM     24  C   UNL     1      35.077 -14.591 -22.082  0.00  0.00    +0.008 C 
ATOM     25  C   UNL     1      34.521 -16.353 -24.173  0.00  0.00    +0.173 C 
ATOM     26  C   UNL     1      35.401 -15.943 -21.959  0.00  0.00    +0.040 C 
ATOM     27  C   UNL     1      35.122 -16.823 -23.005  0.00  0.00    +0.172 C 
BRANCH  25  28
ATOM     28  O   UNL     1      34.244 -17.204 -25.200  0.00  0.00    -0.468 OA
ATOM     29  C   UNL     1      33.010 -17.915 -25.139  0.00  0.00    +0.253 C 
ENDBRANCH  25  28
BRANCH  27  30
ATOM     30  O   UNL     1      35.443 -18.141 -22.874  0.00  0.00    -0.468 OA
ATOM     31  C   UNL     1      35.041 -18.791 -21.671  0.00  0.00    +0.253 C 
ENDBRANCH  27  30
ENDBRANCH  11  22
TORSDOF 4
ENDMDL
MODEL 3
REMARK VINA RESULT:      -9.6      3.862      9.864
REMARK  Name = 446286
REMARK  4 active torsions:
REMARK  status: ('A' for Active; 'I' for Inactive)
REMARK    1  A    between atoms: C_9  and  C_17
REMARK    2  A    between atoms: C_11  and  C_22
REMARK    3  A    between atoms: C_25  and  O_28
REMARK    4  A    between atoms: C_27  and  O_30
REMARK                            x       y       z     vdW  Elec       q    Type
REMARK                         _______ _______ _______ _____ _____    ______ ____
ROOT
ATOM      1  O   UNL     1      34.167 -11.279 -24.573  0.00  0.00    -0.270 OA
ATOM      2  N   UNL     1      33.322 -11.381 -22.369  0.00  0.00    -0.255 N 
ATOM      3  C   UNL     1      31.670 -11.911 -20.592  0.00  0.00    +0.027 C 
ATOM      4  C   UNL     1      31.701 -10.485 -20.078  0.00  0.00    +0.029 C 
ATOM      5  C   UNL     1      33.012 -12.251 -21.218  0.00  0.00    +0.099 C 
ATOM      6  C   UNL     1      32.221  -9.536 -21.126  0.00  0.00    -0.008 C 
ATOM      7  C   UNL     1      33.002  -9.977 -22.220  0.00  0.00    +0.050 C 
ATOM      8  C   UNL     1      31.934  -8.168 -20.965  0.00  0.00    -0.002 C 
ATOM      9  C   UNL     1      32.403  -7.230 -21.877  0.00  0.00    +0.016 C 
ATOM     10  C   UNL     1      33.479  -9.004 -23.116  0.00  0.00    +0.015 C 
ATOM     11  C   UNL     1      33.871 -11.905 -23.557  0.00  0.00    +0.253 C 
ATOM     12  C   UNL     1      33.178  -7.648 -22.950  0.00  0.00    +0.003 C 
ENDROOT
BRANCH   9  17
ATOM     13  S   UNL     1      30.229  -4.133 -20.626  0.00  0.00    -0.051 S 
ATOM     14  O   UNL     1      30.711  -1.902 -21.858  0.00  0.00    -0.261 OA
ATOM     15  N   UNL     1      32.226  -5.000 -22.739  0.00  0.00    -0.182 NA
ATOM     16  N   UNL     1      31.884  -3.693 -22.674  0.00  0.00    -0.198 N 
ATOM     17  C   UNL     1      32.061  -5.780 -21.714  0.00  0.00    +0.086 C 
ATOM     18  C   UNL     1      31.584  -5.295 -20.358  0.00  0.00    +0.098 C 
ATOM     19  C   UNL     1      32.715  -4.651 -19.562  0.00  0.00    +0.019 C 
ATOM     20  C   UNL     1      30.995  -3.095 -21.808  0.00  0.00    +0.292 C 
ATOM     21  H   UNL     1      32.322  -3.098 -23.324  0.00  0.00    +0.178 HD
ENDBRANCH   9  17
BRANCH  11  22
ATOM     22  C   UNL     1      34.115 -13.360 -23.622  0.00  0.00    +0.057 C 
ATOM     23  C   UNL     1      34.874 -13.977 -22.631  0.00  0.00    +0.045 C 
ATOM     24  C   UNL     1      33.588 -14.103 -24.673  0.00  0.00    +0.008 C 
ATOM     25  C   UNL     1      35.106 -15.351 -22.692  0.00  0.00    +0.173 C 
ATOM     26  C   UNL     1      33.821 -15.477 -24.735  0.00  0.00    +0.040 C 
ATOM     27  C   UNL     1      34.580 -16.100 -23.745  0.00  0.00    +0.172 C 
BRANCH  25  28
ATOM     28  O   UNL     1      35.849 -15.949 -21.720  0.00  0.00    -0.468 OA
ATOM     29  C   UNL     1      35.226 -16.135 -20.451  0.00  0.00    +0.253 C 
ENDBRANCH  25  28
BRANCH  27  30
ATOM     30  O   UNL     1      34.799 -17.444 -23.815  0.00  0.00    -0.468 OA
ATOM     31  C   UNL     1      33.912 -18.203 -24.632  0.00  0.00    +0.253 C 
ENDBRANCH  27  30
ENDBRANCH  11  22
TORSDOF 4
ENDMDL
MODEL 4
REMARK VINA RESULT:      -9.5      1.390      2.150
REMARK  Name = 446286
REMARK  4 active torsions:
REMARK  status: ('A' for Active; 'I' for Inactive)
REMARK    1  A    between atoms: C_9  and  C_17
REMARK    2  A    between atoms: C_11  and  C_22
REMARK    3  A    between atoms: C_25  and  O_28
REMARK    4  A    between atoms: C_27  and  O_30
REMARK                            x       y       z     vdW  Elec       q    Type
REMARK                         _______ _______ _______ _____ _____    ______ ____
ROOT
ATOM      1  O   UNL     1      32.356 -11.338 -19.642  0.00  0.00    -0.270 OA
ATOM      2  N   UNL     1      33.518 -11.659 -21.674  0.00  0.00    -0.255 N 
ATOM      3  C   UNL     1      33.760 -12.029 -24.117  0.00  0.00    +0.027 C 
ATOM      4  C   UNL     1      34.653 -13.233 -23.890  0.00  0.00    +0.029 C 
ATOM      5  C   UNL     1      33.919 -11.058 -22.961  0.00  0.00    +0.099 C 
ATOM      6  C   UNL     1      34.474 -13.794 -22.504  0.00  0.00    -0.008 C 
ATOM      7  C   UNL     1      33.932 -13.028 -21.446  0.00  0.00    +0.050 C 
ATOM      8  C   UNL     1      34.903 -15.114 -22.276  0.00  0.00    -0.002 C 
ATOM      9  C   UNL     1      34.794 -15.691 -21.016  0.00  0.00    +0.016 C 
ATOM     10  C   UNL     1      33.852 -13.630 -20.178  0.00  0.00    +0.015 C 
ATOM     11  C   UNL     1      32.747 -10.941 -20.738  0.00  0.00    +0.253 C 
ATOM     12  C   UNL     1      34.272 -14.947 -19.967  0.00  0.00    +0.003 C 
ENDROOT
BRANCH   9  17
ATOM     13  S   UNL     1      34.250 -19.581 -20.341  0.00  0.00    -0.051 S 
ATOM     14  O   UNL     1      36.350 -20.836 -19.480  0.00  0.00    -0.261 OA
ATOM     15  N   UNL     1      36.250 -17.320 -20.030  0.00  0.00    -0.182 NA
ATOM     16  N   UNL     1      36.652 -18.580 -19.746  0.00  0.00    -0.198 N 
ATOM     17  C   UNL     1      35.221 -17.110 -20.794  0.00  0.00    +0.086 C 
ATOM     18  C   UNL     1      34.462 -18.216 -21.503  0.00  0.00    +0.098 C 
ATOM     19  C   UNL     1      35.184 -18.673 -22.767  0.00  0.00    +0.019 C 
ATOM     20  C   UNL     1      35.909 -19.738 -19.807  0.00  0.00    +0.292 C 
ATOM     21  H   UNL     1      37.588 -18.681 -19.461  0.00  0.00    +0.178 HD
ENDBRANCH   9  17
BRANCH  11  22
ATOM     22  C   UNL     1      32.338  -9.566 -21.090  0.00  0.00    +0.057 C 
ATOM     23  C   UNL     1      32.812  -8.493 -20.342  0.00  0.00    +0.045 C 
ATOM     24  C   UNL     1      31.480  -9.355 -22.164  0.00  0.00    +0.008 C 
ATOM     25  C   UNL     1      32.424  -7.194 -20.673  0.00  0.00    +0.173 C 
ATOM     26  C   UNL     1      31.092  -8.056 -22.496  0.00  0.00    +0.040 C 
ATOM     27  C   UNL     1      31.564  -6.977 -21.750  0.00  0.00    +0.172 C 
BRANCH  25  28
ATOM     28  O   UNL     1      32.892  -6.147 -19.938  0.00  0.00    -0.468 OA
ATOM     29  C   UNL     1      32.250  -5.893 -18.691  0.00  0.00    +0.253 C 
ENDBRANCH  25  28
BRANCH  27  30
ATOM     30  O   UNL     1      31.179  -5.712 -22.084  0.00  0.00    -0.468 OA
ATOM     31  C   UNL     1      31.925  -5.056 -23.106  0.00  0.00    +0.253 C 
ENDBRANCH  27  30
ENDBRANCH  11  22
TORSDOF 4
ENDMDL
MODEL 5
REMARK VINA RESULT:      -9.3      1.712      2.693
REMARK  Name = 446286
REMARK  4 active torsions:
REMARK  status: ('A' for Active; 'I' for Inactive)
REMARK    1  A    between atoms: C_9  and  C_17
REMARK    2  A    between atoms: C_11  and  C_22
REMARK    3  A    between atoms: C_25  and  O_28
REMARK    4  A    between atoms: C_27  and  O_30
REMARK                            x       y       z     vdW  Elec       q    Type
REMARK                         _______ _______ _______ _____ _____    ______ ____
ROOT
ATOM      1  O   UNL     1      33.017 -11.320 -20.403  0.00  0.00    -0.270 OA
ATOM      2  N   UNL     1      33.791 -12.087 -22.500  0.00  0.00    -0.255 N 
ATOM      3  C   UNL     1      33.586 -12.906 -24.835  0.00  0.00    +0.027 C 
ATOM      4  C   UNL     1      34.450 -14.115 -24.533  0.00  0.00    +0.029 C 
ATOM      5  C   UNL     1      33.988 -11.758 -23.925  0.00  0.00    +0.099 C 
ATOM      6  C   UNL     1      34.492 -14.403 -23.055  0.00  0.00    -0.008 C 
ATOM      7  C   UNL     1      34.177 -13.421 -22.088  0.00  0.00    +0.050 C 
ATOM      8  C   UNL     1      34.895 -15.690 -22.654  0.00  0.00    -0.002 C 
ATOM      9  C   UNL     1      34.982 -16.021 -21.307  0.00  0.00    +0.016 C 
ATOM     10  C   UNL     1      34.293 -13.778 -20.733  0.00  0.00    +0.015 C 
ATOM     11  C   UNL     1      33.228 -11.157 -21.603  0.00  0.00    +0.253 C 
ATOM     12  C   UNL     1      34.684 -15.064 -20.347  0.00  0.00    +0.003 C 
ENDROOT
BRANCH   9  17
ATOM     13  S   UNL     1      34.352 -19.783 -20.153  0.00  0.00    -0.051 S 
ATOM     14  O   UNL     1      36.407 -20.948 -19.082  0.00  0.00    -0.261 OA
ATOM     15  N   UNL     1      36.383 -17.531 -20.081  0.00  0.00    -0.182 NA
ATOM     16  N   UNL     1      36.756 -18.749 -19.627  0.00  0.00    -0.198 N 
ATOM     17  C   UNL     1      35.378 -17.406 -20.893  0.00  0.00    +0.086 C 
ATOM     18  C   UNL     1      34.618 -18.583 -21.475  0.00  0.00    +0.098 C 
ATOM     19  C   UNL     1      35.363 -19.209 -22.650  0.00  0.00    +0.019 C 
ATOM     20  C   UNL     1      35.993 -19.895 -19.559  0.00  0.00    +0.292 C 
ATOM     21  H   UNL     1      37.683 -18.826 -19.305  0.00  0.00    +0.178 HD
ENDBRANCH   9  17
BRANCH  11  22
ATOM     22  C   UNL     1      32.825  -9.840 -22.138  0.00  0.00    +0.057 C 
ATOM     23  C   UNL     1      33.737  -9.083 -22.867  0.00  0.00    +0.045 C 
ATOM     24  C   UNL     1      31.537  -9.365 -21.907  0.00  0.00    +0.008 C 
ATOM     25  C   UNL     1      33.358  -7.839 -23.371  0.00  0.00    +0.173 C 
ATOM     26  C   UNL     1      31.157  -8.121 -22.410  0.00  0.00    +0.040 C 
ATOM     27  C   UNL     1      32.068  -7.358 -23.142  0.00  0.00    +0.172 C 
BRANCH  25  28
ATOM     28  O   UNL     1      34.254  -7.102 -24.083  0.00  0.00    -0.468 OA
ATOM     29  C   UNL     1      35.616  -7.523 -24.044  0.00  0.00    +0.253 C 
ENDBRANCH  25  28
BRANCH  27  30
ATOM     30  O   UNL     1      31.685  -6.144 -23.629  0.00  0.00    -0.468 OA
ATOM     31  C   UNL     1      31.893  -5.012 -22.788  0.00  0.00    +0.253 C 
ENDBRANCH  27  30
ENDBRANCH  11  22
TORSDOF 4
ENDMDL
MODEL 6
REMARK VINA RESULT:      -9.1      1.683      2.099
REMARK  Name = 446286
REMARK  4 active torsions:
REMARK  status: ('A' for Active; 'I' for Inactive)
REMARK    1  A    between atoms: C_9  and  C_17
REMARK    2  A    between atoms: C_11  and  C_22
REMARK    3  A    between atoms: C_25  and  O_28
REMARK    4  A    between atoms: C_27  and  O_30
REMARK                            x       y       z     vdW  Elec       q    Type
REMARK                         _______ _______ _______ _____ _____    ______ ____
ROOT
ATOM      1  O   UNL     1      34.297  -8.405 -23.506  0.00  0.00    -0.270 OA
ATOM      2  N   UNL     1      32.723  -9.527 -22.147  0.00  0.00    -0.255 N 
ATOM      3  C   UNL     1      31.680 -10.268 -20.019  0.00  0.00    +0.027 C 
ATOM      4  C   UNL     1      31.734 -11.722 -20.449  0.00  0.00    +0.029 C 
ATOM      5  C   UNL     1      31.562  -9.383 -21.247  0.00  0.00    +0.099 C 
ATOM      6  C   UNL     1      32.752 -11.933 -21.538  0.00  0.00    -0.008 C 
ATOM      7  C   UNL     1      33.218 -10.873 -22.350  0.00  0.00    +0.050 C 
ATOM      8  C   UNL     1      33.210 -13.246 -21.755  0.00  0.00    -0.002 C 
ATOM      9  C   UNL     1      34.130 -13.522 -22.759  0.00  0.00    +0.016 C 
ATOM     10  C   UNL     1      34.133 -11.185 -23.371  0.00  0.00    +0.015 C 
ATOM     11  C   UNL     1      33.331  -8.405 -22.746  0.00  0.00    +0.253 C 
ATOM     12  C   UNL     1      34.588 -12.492 -23.568  0.00  0.00    +0.003 C 
ENDROOT
BRANCH   9  17
ATOM     13  S   UNL     1      33.877 -17.364 -23.790  0.00  0.00    -0.051 S 
ATOM     14  O   UNL     1      35.761 -18.869 -22.834  0.00  0.00    -0.261 OA
ATOM     15  N   UNL     1      35.411 -15.417 -22.039  0.00  0.00    -0.182 NA
ATOM     16  N   UNL     1      35.857 -16.690 -22.131  0.00  0.00    -0.198 N 
ATOM     17  C   UNL     1      34.638 -14.919 -22.956  0.00  0.00    +0.086 C 
ATOM     18  C   UNL     1      34.262 -15.655 -24.228  0.00  0.00    +0.098 C 
ATOM     19  C   UNL     1      35.375 -15.587 -25.268  0.00  0.00    +0.019 C 
ATOM     20  C   UNL     1      35.309 -17.728 -22.852  0.00  0.00    +0.292 C 
ATOM     21  H   UNL     1      36.671 -16.901 -21.620  0.00  0.00    +0.178 HD
ENDBRANCH   9  17
BRANCH  11  22
ATOM     22  C   UNL     1      32.777  -7.072 -22.434  0.00  0.00    +0.057 C 
ATOM     23  C   UNL     1      32.944  -6.536 -21.161  0.00  0.00    +0.045 C 
ATOM     24  C   UNL     1      32.090  -6.363 -23.414  0.00  0.00    +0.008 C 
ATOM     25  C   UNL     1      32.419  -5.277 -20.865  0.00  0.00    +0.173 C 
ATOM     26  C   UNL     1      31.564  -5.104 -23.120  0.00  0.00    +0.040 C 
ATOM     27  C   UNL     1      31.729  -4.562 -21.845  0.00  0.00    +0.172 C 
BRANCH  25  28
ATOM     28  O   UNL     1      32.585  -4.757 -19.618  0.00  0.00    -0.468 OA
ATOM     29  C   UNL     1      32.337  -5.626 -18.515  0.00  0.00    +0.253 C 
ENDBRANCH  25  28
BRANCH  27  30
ATOM     30  O   UNL     1      31.213  -3.332 -21.569  0.00  0.00    -0.468 OA
ATOM     31  C   UNL     1      31.685  -2.239 -22.354  0.00  0.00    +0.253 C 
ENDBRANCH  27  30
ENDBRANCH  11  22
TORSDOF 4
ENDMDL
MODEL 7
REMARK VINA RESULT:      -9.1      3.222      9.957
REMARK  Name = 446286
REMARK  4 active torsions:
REMARK  status: ('A' for Active; 'I' for Inactive)
REMARK    1  A    between atoms: C_9  and  C_17
REMARK    2  A    between atoms: C_11  and  C_22
REMARK    3  A    between atoms: C_25  and  O_28
REMARK    4  A    between atoms: C_27  and  O_30
REMARK                            x       y       z     vdW  Elec       q    Type
REMARK                         _______ _______ _______ _____ _____    ______ ____
ROOT
ATOM      1  O   UNL     1      35.335 -13.942 -23.672  0.00  0.00    -0.270 OA
ATOM      2  N   UNL     1      34.135 -13.283 -21.747  0.00  0.00    -0.255 N 
ATOM      3  C   UNL     1      32.193 -13.193 -20.202  0.00  0.00    +0.027 C 
ATOM      4  C   UNL     1      32.194 -11.677 -20.220  0.00  0.00    +0.029 C 
ATOM      5  C   UNL     1      33.605 -13.702 -20.434  0.00  0.00    +0.099 C 
ATOM      6  C   UNL     1      32.917 -11.144 -21.429  0.00  0.00    -0.008 C 
ATOM      7  C   UNL     1      33.850 -11.923 -22.153  0.00  0.00    +0.050 C 
ATOM      8  C   UNL     1      32.661  -9.813 -21.805  0.00  0.00    -0.002 C 
ATOM      9  C   UNL     1      33.310  -9.244 -22.895  0.00  0.00    +0.016 C 
ATOM     10  C   UNL     1      34.506 -11.316 -23.237  0.00  0.00    +0.015 C 
ATOM     11  C   UNL     1      34.852 -14.178 -22.567  0.00  0.00    +0.253 C 
ATOM     12  C   UNL     1      34.235  -9.995 -23.608  0.00  0.00    +0.003 C 
ENDROOT
BRANCH   9  17
ATOM     13  S   UNL     1      31.114  -6.330 -24.498  0.00  0.00    -0.051 S 
ATOM     14  O   UNL     1      32.433  -4.175 -25.083  0.00  0.00    -0.261 OA
ATOM     15  N   UNL     1      33.962  -7.136 -23.832  0.00  0.00    -0.182 NA
ATOM     16  N   UNL     1      33.735  -5.879 -24.276  0.00  0.00    -0.198 N 
ATOM     17  C   UNL     1      33.003  -7.836 -23.308  0.00  0.00    +0.086 C 
ATOM     18  C   UNL     1      31.610  -7.293 -23.054  0.00  0.00    +0.098 C 
ATOM     19  C   UNL     1      31.557  -6.451 -21.782  0.00  0.00    +0.019 C 
ATOM     20  C   UNL     1      32.532  -5.317 -24.643  0.00  0.00    +0.292 C 
ATOM     21  H   UNL     1      34.525  -5.296 -24.345  0.00  0.00    +0.178 HD
ENDBRANCH   9  17
BRANCH  11  22
ATOM     22  C   UNL     1      35.046 -15.558 -22.078  0.00  0.00    +0.057 C 
ATOM     23  C   UNL     1      34.931 -16.626 -22.963  0.00  0.00    +0.045 C 
ATOM     24  C   UNL     1      35.341 -15.781 -20.737  0.00  0.00    +0.008 C 
ATOM     25  C   UNL     1      35.113 -17.930 -22.501  0.00  0.00    +0.173 C 
ATOM     26  C   UNL     1      35.522 -17.084 -20.274  0.00  0.00    +0.040 C 
ATOM     27  C   UNL     1      35.408 -18.158 -21.157  0.00  0.00    +0.172 C 
BRANCH  25  28
ATOM     28  O   UNL     1      35.000 -18.971 -23.372  0.00  0.00    -0.468 OA
ATOM     29  C   UNL     1      34.230 -18.750 -24.551  0.00  0.00    +0.253 C 
ENDBRANCH  25  28
BRANCH  27  30
ATOM     30  O   UNL     1      35.589 -19.427 -20.694  0.00  0.00    -0.468 OA
ATOM     31  C   UNL     1      34.609 -19.935 -19.792  0.00  0.00    +0.253 C 
ENDBRANCH  27  30
ENDBRANCH  11  22
TORSDOF 4
ENDMDL
MODEL 8
REMARK VINA RESULT:      -9.0      4.014     10.181
REMARK  Name = 446286
REMARK  4 active torsions:
REMARK  status: ('A' for Active; 'I' for Inactive)
REMARK    1  A    between atoms: C_9  and  C_17
REMARK    2  A    between atoms: C_11  and  C_22
REMARK    3  A    between atoms: C_25  and  O_28
REMARK    4  A    between atoms: C_27  and  O_30
REMARK                            x       y       z     vdW  Elec       q    Type
REMARK                         _______ _______ _______ _____ _____    ______ ____
ROOT
ATOM      1  O   UNL     1      32.770 -12.035 -21.260  0.00  0.00    -0.270 OA
ATOM      2  N   UNL     1      33.612 -10.953 -23.185  0.00  0.00    -0.255 N 
ATOM      3  C   UNL     1      35.357 -10.009 -24.678  0.00  0.00    +0.027 C 
ATOM      4  C   UNL     1      34.641  -8.673 -24.740  0.00  0.00    +0.029 C 
ATOM      5  C   UNL     1      34.340 -11.115 -24.458  0.00  0.00    +0.099 C 
ATOM      6  C   UNL     1      33.694  -8.504 -23.581  0.00  0.00    -0.008 C 
ATOM      7  C   UNL     1      33.204  -9.607 -22.843  0.00  0.00    +0.050 C 
ATOM      8  C   UNL     1      33.275  -7.198 -23.269  0.00  0.00    -0.002 C 
ATOM      9  C   UNL     1      32.382  -6.967 -22.229  0.00  0.00    +0.016 C 
ATOM     10  C   UNL     1      32.286  -9.345 -21.810  0.00  0.00    +0.015 C 
ATOM     11  C   UNL     1      33.361 -12.052 -22.338  0.00  0.00    +0.253 C 
ATOM     12  C   UNL     1      31.885  -8.041 -21.503  0.00  0.00    +0.003 C 
ENDROOT
BRANCH   9  17
ATOM     13  S   UNL     1      30.109  -4.169 -20.530  0.00  0.00    -0.051 S 
ATOM     14  O   UNL     1      30.408  -1.786 -21.511  0.00  0.00    -0.261 OA
ATOM     15  N   UNL     1      32.042  -4.668 -22.815  0.00  0.00    -0.182 NA
ATOM     16  N   UNL     1      31.633  -3.399 -22.582  0.00  0.00    -0.198 N 
ATOM     17  C   UNL     1      31.970  -5.568 -21.882  0.00  0.00    +0.086 C 
ATOM     18  C   UNL     1      31.537  -5.270 -20.460  0.00  0.00    +0.098 C 
ATOM     19  C   UNL     1      32.670  -4.656 -19.643  0.00  0.00    +0.019 C 
ATOM     20  C   UNL     1      30.758  -2.958 -21.614  0.00  0.00    +0.292 C 
ATOM     21  H   UNL     1      32.006  -2.709 -23.176  0.00  0.00    +0.178 HD
ENDBRANCH   9  17
BRANCH  11  22
ATOM     22  C   UNL     1      33.863 -13.376 -22.759  0.00  0.00    +0.057 C 
ATOM     23  C   UNL     1      34.717 -14.088 -21.922  0.00  0.00    +0.045 C 
ATOM     24  C   UNL     1      33.480 -13.901 -23.989  0.00  0.00    +0.008 C 
ATOM     25  C   UNL     1      35.193 -15.338 -22.319  0.00  0.00    +0.173 C 
ATOM     26  C   UNL     1      33.956 -15.150 -24.387  0.00  0.00    +0.040 C 
ATOM     27  C   UNL     1      34.812 -15.868 -23.552  0.00  0.00    +0.172 C 
BRANCH  25  28
ATOM     28  O   UNL     1      36.028 -16.030 -21.496  0.00  0.00    -0.468 OA
ATOM     29  C   UNL     1      35.423 -16.870 -20.516  0.00  0.00    +0.253 C 
ENDBRANCH  25  28
BRANCH  27  30
ATOM     30  O   UNL     1      35.270 -17.088 -23.951  0.00  0.00    -0.468 OA
ATOM     31  C   UNL     1      34.318 -18.148 -24.015  0.00  0.00    +0.253 C 
ENDBRANCH  27  30
ENDBRANCH  11  22
TORSDOF 4
ENDMDL
MODEL 9
REMARK VINA RESULT:      -8.9      4.100     10.300
REMARK  Name = 446286
REMARK  4 active torsions:
REMARK  status: ('A' for Active; 'I' for Inactive)
REMARK    1  A    between atoms: C_9  and  C_17
REMARK    2  A    between atoms: C_11  and  C_22
REMARK    3  A    between atoms: C_25  and  O_28
REMARK    4  A    between atoms: C_27  and  O_30
REMARK                            x       y       z     vdW  Elec       q    Type
REMARK                         _______ _______ _______ _____ _____    ______ ____
ROOT
ATOM      1  O   UNL     1      32.692 -11.950 -21.183  0.00  0.00    -0.270 OA
ATOM      2  N   UNL     1      33.651 -10.857 -23.045  0.00  0.00    -0.255 N 
ATOM      3  C   UNL     1      35.482  -9.886 -24.414  0.00  0.00    +0.027 C 
ATOM      4  C   UNL     1      34.751  -8.563 -24.530  0.00  0.00    +0.029 C 
ATOM      5  C   UNL     1      34.470 -11.010 -24.263  0.00  0.00    +0.099 C 
ATOM      6  C   UNL     1      33.721  -8.408 -23.442  0.00  0.00    -0.008 C 
ATOM      7  C   UNL     1      33.197  -9.517 -22.738  0.00  0.00    +0.050 C 
ATOM      8  C   UNL     1      33.259  -7.109 -23.164  0.00  0.00    -0.002 C 
ATOM      9  C   UNL     1      32.290  -6.891 -22.191  0.00  0.00    +0.016 C 
ATOM     10  C   UNL     1      32.204  -9.269 -21.774  0.00  0.00    +0.015 C 
ATOM     11  C   UNL     1      33.359 -11.959 -22.216  0.00  0.00    +0.253 C 
ATOM     12  C   UNL     1      31.761  -7.971 -21.499  0.00  0.00    +0.003 C 
ENDROOT
BRANCH   9  17
ATOM     13  S   UNL     1      30.012  -4.126 -20.445  0.00  0.00    -0.051 S 
ATOM     14  O   UNL     1      30.100  -1.786 -21.561  0.00  0.00    -0.261 OA
ATOM     15  N   UNL     1      31.778  -4.645 -22.857  0.00  0.00    -0.182 NA
ATOM     16  N   UNL     1      31.321  -3.389 -22.651  0.00  0.00    -0.198 N 
ATOM     17  C   UNL     1      31.832  -5.498 -21.879  0.00  0.00    +0.086 C 
ATOM     18  C   UNL     1      31.500  -5.149 -20.441  0.00  0.00    +0.098 C 
ATOM     19  C   UNL     1      32.660  -4.436 -19.752  0.00  0.00    +0.019 C 
ATOM     20  C   UNL     1      30.504  -2.943 -21.636  0.00  0.00    +0.292 C 
ATOM     21  H   UNL     1      31.606  -2.712 -23.307  0.00  0.00    +0.178 HD
ENDBRANCH   9  17
BRANCH  11  22
ATOM     22  C   UNL     1      33.911 -13.275 -22.595  0.00  0.00    +0.057 C 
ATOM     23  C   UNL     1      33.598 -13.822 -23.836  0.00  0.00    +0.045 C 
ATOM     24  C   UNL     1      34.738 -13.959 -21.710  0.00  0.00    +0.008 C 
ATOM     25  C   UNL     1      34.118 -15.066 -24.195  0.00  0.00    +0.173 C 
ATOM     26  C   UNL     1      35.258 -15.203 -22.068  0.00  0.00    +0.040 C 
ATOM     27  C   UNL     1      34.947 -15.756 -23.310  0.00  0.00    +0.172 C 
BRANCH  25  28
ATOM     28  O   UNL     1      33.808 -15.597 -25.410  0.00  0.00    -0.468 OA
ATOM     29  C   UNL     1      32.911 -16.705 -25.425  0.00  0.00    +0.253 C 
ENDBRANCH  25  28
BRANCH  27  30
ATOM     30  O   UNL     1      35.462 -16.971 -23.649  0.00  0.00    -0.468 OA
ATOM     31  C   UNL     1      35.141 -18.071 -22.801  0.00  0.00    +0.253 C 
ENDBRANCH  27  30
ENDBRANCH  11  22
TORSDOF 4
ENDMDL
