MODEL 1
REMARK VINA RESULT:     -11.9      0.000      0.000
REMARK  Name = 24832041
REMARK  6 active torsions:
REMARK  status: ('A' for Active; 'I' for Inactive)
REMARK    1  A    between atoms: C_1  and  C_18
REMARK    2  A    between atoms: C_4  and  C_7
REMARK    3  A    between atoms: C_10  and  C_15
REMARK    4  A    between atoms: C_18  and  N_19
REMARK    5  A    between atoms: C_18  and  C_23
REMARK    6  A    between atoms: C_23  and  C_26
REMARK                            x       y       z     vdW  Elec       q    Type
REMARK                         _______ _______ _______ _____ _____    ______ ____
ROOT
ATOM      1  C   UNL     1      34.955 -19.105 -20.923  0.00  0.00    -0.042 C 
ATOM      2  C   UNL     1      36.185 -19.395 -20.333  0.00  0.00    -0.006 C 
ATOM      3  C   UNL     1      33.779 -19.608 -20.367  0.00  0.00    -0.006 C 
ATOM      4  C   UNL     1      35.063 -20.694 -18.631  0.00  0.00    -0.000 C 
ATOM      5  C   UNL     1      36.239 -20.190 -19.188  0.00  0.00    -0.000 C 
ATOM      6  C   UNL     1      33.833 -20.403 -19.222  0.00  0.00    -0.000 C 
ENDROOT
BRANCH   4   7
ATOM      7  C   UNL     1      35.120 -21.517 -17.444  0.00  0.00    +0.000 C 
ATOM      8  C   UNL     1      36.303 -21.600 -16.709  0.00  0.00    +0.005 C 
ATOM      9  C   UNL     1      33.992 -22.227 -17.034  0.00  0.00    +0.000 C 
ATOM     10  C   UNL     1      36.358 -22.395 -15.564  0.00  0.00    +0.053 C 
ATOM     11  C   UNL     1      34.047 -23.022 -15.888  0.00  0.00    +0.000 C 
ATOM     12  C   UNL     1      35.230 -23.105 -15.153  0.00  0.00    +0.005 C 
BRANCH  10  15
ATOM     13  O   UNL     1      37.605 -22.272 -13.570  0.00  0.00    -0.270 OA
ATOM     14  N   UNL     1      38.754 -22.823 -15.476  0.00  0.00    -0.325 N 
ATOM     15  C   UNL     1      37.590 -22.480 -14.795  0.00  0.00    +0.243 C 
ATOM     16  H   UNL     1      39.608 -22.890 -14.989  0.00  0.00    +0.145 HD
ATOM     17  H   UNL     1      38.726 -22.999 -16.444  0.00  0.00    +0.145 HD
ENDBRANCH  10  15
ENDBRANCH   4   7
BRANCH   1  18
ATOM     18  C   UNL     1      34.896 -18.255 -22.146  0.00  0.00    -0.038 C 
BRANCH  18  19
ATOM     19  N   UNL     1      35.029 -19.054 -23.383  0.00  0.00    +0.384 N 
ATOM     20  H   UNL     1      34.517 -19.930 -23.279  0.00  0.00    -0.089 HD
ATOM     21  H   UNL     1      36.015 -19.254 -23.554  0.00  0.00    -0.089 HD
ATOM     22  H   UNL     1      34.648 -18.529 -24.170  0.00  0.00    -0.089 HD
ENDBRANCH  18  19
BRANCH  18  23
ATOM     23  C   UNL     1      35.962 -17.121 -22.189  0.00  0.00    +0.011 C 
BRANCH  23  26
ATOM     24  F   UNL     1      35.408 -16.082 -19.609  0.00  0.00    -0.205 F 
ATOM     25  F   UNL     1      34.228 -12.882 -23.886  0.00  0.00    -0.204 F 
ATOM     26  C   UNL     1      35.368 -15.750 -21.960  0.00  0.00    +0.006 C 
ATOM     27  C   UNL     1      35.122 -15.303 -20.662  0.00  0.00    +0.136 C 
ATOM     28  C   UNL     1      35.067 -14.933 -23.049  0.00  0.00    +0.028 C 
ATOM     29  C   UNL     1      34.518 -13.667 -22.840  0.00  0.00    +0.140 C 
ATOM     30  C   UNL     1      34.574 -14.037 -20.453  0.00  0.00    +0.032 C 
ATOM     31  C   UNL     1      34.272 -13.219 -21.542  0.00  0.00    +0.032 C 
ENDBRANCH  23  26
ENDBRANCH  18  23
ENDBRANCH   1  18
TORSDOF 6
ENDMDL
MODEL 2
REMARK VINA RESULT:     -11.7      4.340      9.546
REMARK  Name = 24832041
REMARK  6 active torsions:
REMARK  status: ('A' for Active; 'I' for Inactive)
REMARK    1  A    between atoms: C_1  and  C_18
REMARK    2  A    between atoms: C_4  and  C_7
REMARK    3  A    between atoms: C_10  and  C_15
REMARK    4  A    between atoms: C_18  and  N_19
REMARK    5  A    between atoms: C_18  and  C_23
REMARK    6  A    between atoms: C_23  and  C_26
REMARK                            x       y       z     vdW  Elec       q    Type
REMARK                         _______ _______ _______ _____ _____    ______ ____
ROOT
ATOM      1  C   UNL     1      35.500 -16.307 -21.266  0.00  0.00    -0.042 C 
ATOM      2  C   UNL     1      35.090 -15.517 -20.193  0.00  0.00    -0.006 C 
ATOM      3  C   UNL     1      35.371 -15.831 -22.571  0.00  0.00    -0.006 C 
ATOM      4  C   UNL     1      34.422 -13.774 -21.728  0.00  0.00    -0.000 C 
ATOM      5  C   UNL     1      34.552 -14.251 -20.423  0.00  0.00    -0.000 C 
ATOM      6  C   UNL     1      34.832 -14.565 -22.802  0.00  0.00    -0.000 C 
ENDROOT
BRANCH   4   7
ATOM      7  C   UNL     1      33.864 -12.462 -21.967  0.00  0.00    +0.000 C 
ATOM      8  C   UNL     1      32.934 -11.927 -21.076  0.00  0.00    +0.005 C 
ATOM      9  C   UNL     1      34.256 -11.731 -23.088  0.00  0.00    +0.000 C 
ATOM     10  C   UNL     1      32.395 -10.661 -21.306  0.00  0.00    +0.053 C 
ATOM     11  C   UNL     1      33.717 -10.465 -23.318  0.00  0.00    +0.000 C 
ATOM     12  C   UNL     1      32.787  -9.930 -22.428  0.00  0.00    +0.005 C 
BRANCH  10  15
ATOM     13  O   UNL     1      31.601  -8.988 -19.851  0.00  0.00    -0.270 OA
ATOM     14  N   UNL     1      30.284 -10.848 -20.105  0.00  0.00    -0.325 N 
ATOM     15  C   UNL     1      31.427 -10.102 -20.377  0.00  0.00    +0.243 C 
ATOM     16  H   UNL     1      29.606 -10.501 -19.480  0.00  0.00    +0.145 HD
ATOM     17  H   UNL     1      30.152 -11.722 -20.538  0.00  0.00    +0.145 HD
ENDBRANCH  10  15
ENDBRANCH   4   7
BRANCH   1  18
ATOM     18  C   UNL     1      36.077 -17.659 -21.021  0.00  0.00    -0.038 C 
BRANCH  18  19
ATOM     19  N   UNL     1      37.299 -17.894 -21.819  0.00  0.00    +0.384 N 
ATOM     20  H   UNL     1      37.435 -17.120 -22.470  0.00  0.00    -0.089 HD
ATOM     21  H   UNL     1      37.201 -18.764 -22.343  0.00  0.00    -0.089 HD
ATOM     22  H   UNL     1      38.105 -17.960 -21.198  0.00  0.00    -0.089 HD
ENDBRANCH  18  19
BRANCH  18  23
ATOM     23  C   UNL     1      35.092 -18.833 -21.293  0.00  0.00    +0.011 C 
BRANCH  23  26
ATOM     24  F   UNL     1      32.597 -19.831 -20.388  0.00  0.00    -0.205 F 
ATOM     25  F   UNL     1      37.054 -21.430 -17.652  0.00  0.00    -0.204 F 
ATOM     26  C   UNL     1      34.954 -19.767 -20.112  0.00  0.00    +0.006 C 
ATOM     27  C   UNL     1      33.693 -20.219 -19.723  0.00  0.00    +0.136 C 
ATOM     28  C   UNL     1      36.089 -20.176 -19.414  0.00  0.00    +0.028 C 
ATOM     29  C   UNL     1      35.964 -21.037 -18.323  0.00  0.00    +0.140 C 
ATOM     30  C   UNL     1      33.569 -21.080 -18.632  0.00  0.00    +0.032 C 
ATOM     31  C   UNL     1      34.703 -21.490 -17.933  0.00  0.00    +0.032 C 
ENDBRANCH  23  26
ENDBRANCH  18  23
ENDBRANCH   1  18
TORSDOF 6
ENDMDL
MODEL 3
REMARK VINA RESULT:     -11.6      4.569      9.790
REMARK  Name = 24832041
REMARK  6 active torsions:
REMARK  status: ('A' for Active; 'I' for Inactive)
REMARK    1  A    between atoms: C_1  and  C_18
REMARK    2  A    between atoms: C_4  and  C_7
REMARK    3  A    between atoms: C_10  and  C_15
REMARK    4  A    between atoms: C_18  and  N_19
REMARK    5  A    between atoms: C_18  and  C_23
REMARK    6  A    between atoms: C_23  and  C_26
REMARK                            x       y       z     vdW  Elec       q    Type
REMARK                         _______ _______ _______ _____ _____    ______ ____
ROOT
ATOM      1  C   UNL     1      35.442 -16.261 -21.238  0.00  0.00    -0.042 C 
ATOM      2  C   UNL     1      34.996 -15.533 -20.135  0.00  0.00    -0.006 C 
ATOM      3  C   UNL     1      35.310 -15.733 -22.522  0.00  0.00    -0.006 C 
ATOM      4  C   UNL     1      34.284 -13.748 -21.601  0.00  0.00    -0.000 C 
ATOM      5  C   UNL     1      34.417 -14.277 -20.316  0.00  0.00    -0.000 C 
ATOM      6  C   UNL     1      34.731 -14.477 -22.703  0.00  0.00    -0.000 C 
ENDROOT
BRANCH   4   7
ATOM      7  C   UNL     1      33.685 -12.446 -21.788  0.00  0.00    +0.000 C 
ATOM      8  C   UNL     1      34.132 -11.613 -22.815  0.00  0.00    +0.005 C 
ATOM      9  C   UNL     1      32.661 -12.021 -20.943  0.00  0.00    +0.000 C 
ATOM     10  C   UNL     1      33.554 -10.357 -22.996  0.00  0.00    +0.053 C 
ATOM     11  C   UNL     1      32.083 -10.764 -21.123  0.00  0.00    +0.000 C 
ATOM     12  C   UNL     1      32.529  -9.932 -22.150  0.00  0.00    +0.005 C 
BRANCH  10  15
ATOM     13  O   UNL     1      33.800  -8.265 -24.051  0.00  0.00    -0.270 OA
ATOM     14  N   UNL     1      34.733 -10.072 -25.108  0.00  0.00    -0.325 N 
ATOM     15  C   UNL     1      34.018  -9.489 -24.067  0.00  0.00    +0.243 C 
ATOM     16  H   UNL     1      35.063  -9.517 -25.852  0.00  0.00    +0.145 HD
ATOM     17  H   UNL     1      34.911 -11.041 -25.103  0.00  0.00    +0.145 HD
ENDBRANCH  10  15
ENDBRANCH   4   7
BRANCH   1  18
ATOM     18  C   UNL     1      36.061 -17.603 -21.045  0.00  0.00    -0.038 C 
BRANCH  18  19
ATOM     19  N   UNL     1      37.265 -17.784 -21.884  0.00  0.00    +0.384 N 
ATOM     20  H   UNL     1      37.910 -18.425 -21.422  0.00  0.00    -0.089 HD
ATOM     21  H   UNL     1      37.723 -16.882 -22.021  0.00  0.00    -0.089 HD
ATOM     22  H   UNL     1      36.995 -18.169 -22.789  0.00  0.00    -0.089 HD
ENDBRANCH  18  19
BRANCH  18  23
ATOM     23  C   UNL     1      35.100 -18.797 -21.320  0.00  0.00    +0.011 C 
BRANCH  23  26
ATOM     24  F   UNL     1      32.617 -19.802 -20.391  0.00  0.00    -0.205 F 
ATOM     25  F   UNL     1      37.107 -21.394 -17.703  0.00  0.00    -0.204 F 
ATOM     26  C   UNL     1      34.976 -19.732 -20.139  0.00  0.00    +0.006 C 
ATOM     27  C   UNL     1      33.721 -20.188 -19.737  0.00  0.00    +0.136 C 
ATOM     28  C   UNL     1      36.120 -20.140 -19.453  0.00  0.00    +0.028 C 
ATOM     29  C   UNL     1      36.009 -21.003 -18.363  0.00  0.00    +0.140 C 
ATOM     30  C   UNL     1      33.610 -21.052 -18.647  0.00  0.00    +0.032 C 
ATOM     31  C   UNL     1      34.753 -21.460 -17.960  0.00  0.00    +0.032 C 
ENDBRANCH  23  26
ENDBRANCH  18  23
ENDBRANCH   1  18
TORSDOF 6
ENDMDL
MODEL 4
REMARK VINA RESULT:     -11.4      2.345      2.810
REMARK  Name = 24832041
REMARK  6 active torsions:
REMARK  status: ('A' for Active; 'I' for Inactive)
REMARK    1  A    between atoms: C_1  and  C_18
REMARK    2  A    between atoms: C_4  and  C_7
REMARK    3  A    between atoms: C_10  and  C_15
REMARK    4  A    between atoms: C_18  and  N_19
REMARK    5  A    between atoms: C_18  and  C_23
REMARK    6  A    between atoms: C_23  and  C_26
REMARK                            x       y       z     vdW  Elec       q    Type
REMARK                         _______ _______ _______ _____ _____    ______ ____
ROOT
ATOM      1  C   UNL     1      34.622 -19.149 -21.145  0.00  0.00    -0.042 C 
ATOM      2  C   UNL     1      35.713 -19.661 -20.443  0.00  0.00    -0.006 C 
ATOM      3  C   UNL     1      33.324 -19.413 -20.706  0.00  0.00    -0.006 C 
ATOM      4  C   UNL     1      34.209 -20.703 -18.864  0.00  0.00    -0.000 C 
ATOM      5  C   UNL     1      35.507 -20.438 -19.303  0.00  0.00    -0.000 C 
ATOM      6  C   UNL     1      33.118 -20.190 -19.567  0.00  0.00    -0.000 C 
ENDROOT
BRANCH   4   7
ATOM      7  C   UNL     1      33.995 -21.507 -17.682  0.00  0.00    +0.000 C 
ATOM      8  C   UNL     1      32.698 -21.821 -17.277  0.00  0.00    +0.005 C 
ATOM      9  C   UNL     1      35.086 -21.970 -16.947  0.00  0.00    +0.000 C 
ATOM     10  C   UNL     1      32.491 -22.597 -16.136  0.00  0.00    +0.053 C 
ATOM     11  C   UNL     1      34.880 -22.746 -15.806  0.00  0.00    +0.000 C 
ATOM     12  C   UNL     1      33.583 -23.059 -15.400  0.00  0.00    +0.005 C 
BRANCH  10  15
ATOM     13  O   UNL     1      30.149 -22.364 -16.214  0.00  0.00    -0.270 OA
ATOM     14  N   UNL     1      30.986 -23.908 -14.739  0.00  0.00    -0.325 N 
ATOM     15  C   UNL     1      31.139 -22.926 -15.714  0.00  0.00    +0.243 C 
ATOM     16  H   UNL     1      30.086 -24.156 -14.428  0.00  0.00    +0.145 HD
ATOM     17  H   UNL     1      31.778 -24.354 -14.361  0.00  0.00    +0.145 HD
ENDBRANCH  10  15
ENDBRANCH   4   7
BRANCH   1  18
ATOM     18  C   UNL     1      34.842 -18.318 -22.363  0.00  0.00    -0.038 C 
BRANCH  18  19
ATOM     19  N   UNL     1      35.168 -19.143 -23.546  0.00  0.00    +0.384 N 
ATOM     20  H   UNL     1      35.535 -18.545 -24.287  0.00  0.00    -0.089 HD
ATOM     21  H   UNL     1      34.324 -19.614 -23.875  0.00  0.00    -0.089 HD
ATOM     22  H   UNL     1      35.869 -19.839 -23.293  0.00  0.00    -0.089 HD
ENDBRANCH  18  19
BRANCH  18  23
ATOM     23  C   UNL     1      35.953 -17.239 -22.209  0.00  0.00    +0.011 C 
BRANCH  23  26
ATOM     24  F   UNL     1      35.449 -16.217 -19.612  0.00  0.00    -0.205 F 
ATOM     25  F   UNL     1      34.311 -12.937 -23.838  0.00  0.00    -0.204 F 
ATOM     26  C   UNL     1      35.396 -15.856 -21.957  0.00  0.00    +0.006 C 
ATOM     27  C   UNL     1      35.173 -15.419 -20.652  0.00  0.00    +0.136 C 
ATOM     28  C   UNL     1      35.106 -15.018 -23.034  0.00  0.00    +0.028 C 
ATOM     29  C   UNL     1      34.591 -13.742 -22.805  0.00  0.00    +0.140 C 
ATOM     30  C   UNL     1      34.658 -14.142 -20.424  0.00  0.00    +0.032 C 
ATOM     31  C   UNL     1      34.367 -13.304 -21.499  0.00  0.00    +0.032 C 
ENDBRANCH  23  26
ENDBRANCH  18  23
ENDBRANCH   1  18
TORSDOF 6
ENDMDL
MODEL 5
REMARK VINA RESULT:     -11.1      4.119      9.135
REMARK  Name = 24832041
REMARK  6 active torsions:
REMARK  status: ('A' for Active; 'I' for Inactive)
REMARK    1  A    between atoms: C_1  and  C_18
REMARK    2  A    between atoms: C_4  and  C_7
REMARK    3  A    between atoms: C_10  and  C_15
REMARK    4  A    between atoms: C_18  and  N_19
REMARK    5  A    between atoms: C_18  and  C_23
REMARK    6  A    between atoms: C_23  and  C_26
REMARK                            x       y       z     vdW  Elec       q    Type
REMARK                         _______ _______ _______ _____ _____    ______ ____
ROOT
ATOM      1  C   UNL     1      34.408 -21.600 -17.833  0.00  0.00    -0.042 C 
ATOM      2  C   UNL     1      33.297 -21.046 -18.466  0.00  0.00    -0.006 C 
ATOM      3  C   UNL     1      35.693 -21.217 -18.219  0.00  0.00    -0.006 C 
ATOM      4  C   UNL     1      34.753 -19.726 -19.872  0.00  0.00    -0.000 C 
ATOM      5  C   UNL     1      33.468 -20.109 -19.485  0.00  0.00    -0.000 C 
ATOM      6  C   UNL     1      35.866 -20.281 -19.238  0.00  0.00    -0.000 C 
ENDROOT
BRANCH   4   7
ATOM      7  C   UNL     1      34.931 -18.755 -20.928  0.00  0.00    +0.000 C 
ATOM      8  C   UNL     1      34.959 -17.393 -20.625  0.00  0.00    +0.005 C 
ATOM      9  C   UNL     1      35.074 -19.179 -22.248  0.00  0.00    +0.000 C 
ATOM     10  C   UNL     1      35.130 -16.455 -21.644  0.00  0.00    +0.053 C 
ATOM     11  C   UNL     1      35.246 -18.241 -23.267  0.00  0.00    +0.000 C 
ATOM     12  C   UNL     1      35.274 -16.880 -22.965  0.00  0.00    +0.005 C 
BRANCH  10  15
ATOM     13  O   UNL     1      35.322 -14.179 -22.216  0.00  0.00    -0.270 OA
ATOM     14  N   UNL     1      34.989 -14.663 -20.000  0.00  0.00    -0.325 N 
ATOM     15  C   UNL     1      35.162 -15.036 -21.329  0.00  0.00    +0.243 C 
ATOM     16  H   UNL     1      35.006 -13.711 -19.749  0.00  0.00    +0.145 HD
ATOM     17  H   UNL     1      34.851 -15.351 -19.309  0.00  0.00    +0.145 HD
ENDBRANCH  10  15
ENDBRANCH   4   7
BRANCH   1  18
ATOM     18  C   UNL     1      34.225 -22.600 -16.743  0.00  0.00    -0.038 C 
BRANCH  18  19
ATOM     19  N   UNL     1      32.799 -22.916 -16.513  0.00  0.00    +0.384 N 
ATOM     20  H   UNL     1      32.724 -23.725 -15.896  0.00  0.00    -0.089 HD
ATOM     21  H   UNL     1      32.349 -23.126 -17.405  0.00  0.00    -0.089 HD
ATOM     22  H   UNL     1      32.339 -22.115 -16.080  0.00  0.00    -0.089 HD
ENDBRANCH  18  19
BRANCH  18  23
ATOM     23  C   UNL     1      34.850 -22.183 -15.380  0.00  0.00    +0.011 C 
BRANCH  23  26
ATOM     24  F   UNL     1      37.510 -21.198 -15.388  0.00  0.00    -0.205 F 
ATOM     25  F   UNL     1      36.795 -26.416 -13.913  0.00  0.00    -0.204 F 
ATOM     26  C   UNL     1      36.046 -23.026 -15.001  0.00  0.00    +0.006 C 
ATOM     27  C   UNL     1      37.327 -22.475 -15.027  0.00  0.00    +0.136 C 
ATOM     28  C   UNL     1      35.865 -24.357 -14.624  0.00  0.00    +0.028 C 
ATOM     29  C   UNL     1      36.967 -25.138 -14.274  0.00  0.00    +0.140 C 
ATOM     30  C   UNL     1      38.429 -23.257 -14.677  0.00  0.00    +0.032 C 
ATOM     31  C   UNL     1      38.249 -24.587 -14.300  0.00  0.00    +0.032 C 
ENDBRANCH  23  26
ENDBRANCH  18  23
ENDBRANCH   1  18
TORSDOF 6
ENDMDL
MODEL 6
REMARK VINA RESULT:     -11.1      4.284      9.408
REMARK  Name = 24832041
REMARK  6 active torsions:
REMARK  status: ('A' for Active; 'I' for Inactive)
REMARK    1  A    between atoms: C_1  and  C_18
REMARK    2  A    between atoms: C_4  and  C_7
REMARK    3  A    between atoms: C_10  and  C_15
REMARK    4  A    between atoms: C_18  and  N_19
REMARK    5  A    between atoms: C_18  and  C_23
REMARK    6  A    between atoms: C_23  and  C_26
REMARK                            x       y       z     vdW  Elec       q    Type
REMARK                         _______ _______ _______ _____ _____    ______ ____
ROOT
ATOM      1  C   UNL     1      35.587 -16.342 -21.231  0.00  0.00    -0.042 C 
ATOM      2  C   UNL     1      35.454 -15.836 -22.523  0.00  0.00    -0.006 C 
ATOM      3  C   UNL     1      35.144 -15.595 -20.140  0.00  0.00    -0.006 C 
ATOM      4  C   UNL     1      34.435 -13.833 -21.634  0.00  0.00    -0.000 C 
ATOM      5  C   UNL     1      34.878 -14.582 -22.725  0.00  0.00    -0.000 C 
ATOM      6  C   UNL     1      34.568 -14.341 -20.341  0.00  0.00    -0.000 C 
ENDROOT
BRANCH   4   7
ATOM      7  C   UNL     1      33.837 -12.534 -21.844  0.00  0.00    +0.000 C 
ATOM      8  C   UNL     1      32.930 -12.025 -20.914  0.00  0.00    +0.005 C 
ATOM      9  C   UNL     1      34.167 -11.789 -22.976  0.00  0.00    +0.000 C 
ATOM     10  C   UNL     1      32.353 -10.771 -21.116  0.00  0.00    +0.053 C 
ATOM     11  C   UNL     1      33.590 -10.535 -23.178  0.00  0.00    +0.000 C 
ATOM     12  C   UNL     1      32.683 -10.026 -22.248  0.00  0.00    +0.005 C 
BRANCH  10  15
ATOM     13  O   UNL     1      31.687  -9.247 -19.448  0.00  0.00    -0.270 OA
ATOM     14  N   UNL     1      30.172 -10.865 -20.034  0.00  0.00    -0.325 N 
ATOM     15  C   UNL     1      31.409 -10.238 -20.146  0.00  0.00    +0.243 C 
ATOM     16  H   UNL     1      29.508 -10.534 -19.388  0.00  0.00    +0.145 HD
ATOM     17  H   UNL     1      29.960 -11.641 -20.602  0.00  0.00    +0.145 HD
ENDBRANCH  10  15
ENDBRANCH   4   7
BRANCH   1  18
ATOM     18  C   UNL     1      36.202 -17.683 -21.014  0.00  0.00    -0.038 C 
BRANCH  18  19
ATOM     19  N   UNL     1      37.447 -17.855 -21.792  0.00  0.00    +0.384 N 
ATOM     20  H   UNL     1      38.088 -17.088 -21.583  0.00  0.00    -0.089 HD
ATOM     21  H   UNL     1      37.229 -17.852 -22.789  0.00  0.00    -0.089 HD
ATOM     22  H   UNL     1      37.886 -18.741 -21.543  0.00  0.00    -0.089 HD
ENDBRANCH  18  19
BRANCH  18  23
ATOM     23  C   UNL     1      35.261 -18.879 -21.344  0.00  0.00    +0.011 C 
BRANCH  23  26
ATOM     24  F   UNL     1      37.350 -20.239 -19.991  0.00  0.00    -0.205 F 
ATOM     25  F   UNL     1      32.266 -21.003 -18.124  0.00  0.00    -0.204 F 
ATOM     26  C   UNL     1      35.026 -19.784 -20.157  0.00  0.00    +0.006 C 
ATOM     27  C   UNL     1      36.101 -20.421 -19.539  0.00  0.00    +0.136 C 
ATOM     28  C   UNL     1      33.730 -19.979 -19.679  0.00  0.00    +0.028 C 
ATOM     29  C   UNL     1      33.509 -20.814 -18.583  0.00  0.00    +0.140 C 
ATOM     30  C   UNL     1      35.881 -21.256 -18.443  0.00  0.00    +0.032 C 
ATOM     31  C   UNL     1      34.586 -21.452 -17.965  0.00  0.00    +0.032 C 
ENDBRANCH  23  26
ENDBRANCH  18  23
ENDBRANCH   1  18
TORSDOF 6
ENDMDL
MODEL 7
REMARK VINA RESULT:     -11.1      2.758      4.606
REMARK  Name = 24832041
REMARK  6 active torsions:
REMARK  status: ('A' for Active; 'I' for Inactive)
REMARK    1  A    between atoms: C_1  and  C_18
REMARK    2  A    between atoms: C_4  and  C_7
REMARK    3  A    between atoms: C_10  and  C_15
REMARK    4  A    between atoms: C_18  and  N_19
REMARK    5  A    between atoms: C_18  and  C_23
REMARK    6  A    between atoms: C_23  and  C_26
REMARK                            x       y       z     vdW  Elec       q    Type
REMARK                         _______ _______ _______ _____ _____    ______ ____
ROOT
ATOM      1  C   UNL     1      35.379 -21.358 -17.453  0.00  0.00    -0.042 C 
ATOM      2  C   UNL     1      34.629 -22.225 -16.660  0.00  0.00    -0.006 C 
ATOM      3  C   UNL     1      36.715 -21.106 -17.141  0.00  0.00    -0.006 C 
ATOM      4  C   UNL     1      36.551 -22.590 -15.240  0.00  0.00    -0.000 C 
ATOM      5  C   UNL     1      35.214 -22.841 -15.553  0.00  0.00    -0.000 C 
ATOM      6  C   UNL     1      37.301 -21.721 -16.035  0.00  0.00    -0.000 C 
ENDROOT
BRANCH   4   7
ATOM      7  C   UNL     1      37.158 -23.228 -14.094  0.00  0.00    +0.000 C 
ATOM      8  C   UNL     1      36.514 -23.197 -12.856  0.00  0.00    +0.005 C 
ATOM      9  C   UNL     1      38.386 -23.875 -14.225  0.00  0.00    +0.000 C 
ATOM     10  C   UNL     1      37.100 -23.813 -11.750  0.00  0.00    +0.053 C 
ATOM     11  C   UNL     1      38.971 -24.491 -13.118  0.00  0.00    +0.000 C 
ATOM     12  C   UNL     1      38.328 -24.460 -11.881  0.00  0.00    +0.005 C 
BRANCH  10  15
ATOM     13  O   UNL     1      35.588 -24.644 -10.146  0.00  0.00    -0.270 OA
ATOM     14  N   UNL     1      36.772 -22.765  -9.575  0.00  0.00    -0.325 N 
ATOM     15  C   UNL     1      36.429 -23.783 -10.460  0.00  0.00    +0.243 C 
ATOM     16  H   UNL     1      36.338 -22.711  -8.693  0.00  0.00    +0.145 HD
ATOM     17  H   UNL     1      37.449 -22.097  -9.831  0.00  0.00    +0.145 HD
ENDBRANCH  10  15
ENDBRANCH   4   7
BRANCH   1  18
ATOM     18  C   UNL     1      34.755 -20.701 -18.636  0.00  0.00    -0.038 C 
BRANCH  18  19
ATOM     19  N   UNL     1      33.393 -21.214 -18.902  0.00  0.00    +0.384 N 
ATOM     20  H   UNL     1      33.412 -22.234 -18.923  0.00  0.00    -0.089 HD
ATOM     21  H   UNL     1      33.066 -20.861 -19.802  0.00  0.00    -0.089 HD
ATOM     22  H   UNL     1      32.762 -20.902 -18.165  0.00  0.00    -0.089 HD
ENDBRANCH  18  19
BRANCH  18  23
ATOM     23  C   UNL     1      35.580 -20.829 -19.950  0.00  0.00    +0.011 C 
BRANCH  23  26
ATOM     24  F   UNL     1      37.307 -18.661 -19.349  0.00  0.00    -0.205 F 
ATOM     25  F   UNL     1      33.963 -18.064 -23.636  0.00  0.00    -0.204 F 
ATOM     26  C   UNL     1      35.609 -19.548 -20.751  0.00  0.00    +0.006 C 
ATOM     27  C   UNL     1      36.485 -18.522 -20.399  0.00  0.00    +0.136 C 
ATOM     28  C   UNL     1      34.757 -19.394 -21.845  0.00  0.00    +0.028 C 
ATOM     29  C   UNL     1      34.780 -18.213 -22.586  0.00  0.00    +0.140 C 
ATOM     30  C   UNL     1      36.508 -17.340 -21.140  0.00  0.00    +0.032 C 
ATOM     31  C   UNL     1      35.657 -17.185 -22.234  0.00  0.00    +0.032 C 
ENDBRANCH  23  26
ENDBRANCH  18  23
ENDBRANCH   1  18
TORSDOF 6
ENDMDL
MODEL 8
REMARK VINA RESULT:     -11.1      4.620      9.619
REMARK  Name = 24832041
REMARK  6 active torsions:
REMARK  status: ('A' for Active; 'I' for Inactive)
REMARK    1  A    between atoms: C_1  and  C_18
REMARK    2  A    between atoms: C_4  and  C_7
REMARK    3  A    between atoms: C_10  and  C_15
REMARK    4  A    between atoms: C_18  and  N_19
REMARK    5  A    between atoms: C_18  and  C_23
REMARK    6  A    between atoms: C_23  and  C_26
REMARK                            x       y       z     vdW  Elec       q    Type
REMARK                         _______ _______ _______ _____ _____    ______ ____
ROOT
ATOM      1  C   UNL     1      35.547 -16.370 -21.156  0.00  0.00    -0.042 C 
ATOM      2  C   UNL     1      35.390 -15.818 -22.427  0.00  0.00    -0.006 C 
ATOM      3  C   UNL     1      35.078 -15.684 -20.035  0.00  0.00    -0.006 C 
ATOM      4  C   UNL     1      34.295 -13.894 -21.458  0.00  0.00    -0.000 C 
ATOM      5  C   UNL     1      34.764 -14.581 -22.578  0.00  0.00    -0.000 C 
ATOM      6  C   UNL     1      34.452 -14.447 -20.186  0.00  0.00    -0.000 C 
ENDROOT
BRANCH   4   7
ATOM      7  C   UNL     1      33.645 -12.612 -21.615  0.00  0.00    +0.000 C 
ATOM      8  C   UNL     1      34.112 -11.706 -22.567  0.00  0.00    +0.005 C 
ATOM      9  C   UNL     1      32.552 -12.282 -20.814  0.00  0.00    +0.000 C 
ATOM     10  C   UNL     1      33.485 -10.469 -22.719  0.00  0.00    +0.053 C 
ATOM     11  C   UNL     1      31.926 -11.044 -20.966  0.00  0.00    +0.000 C 
ATOM     12  C   UNL     1      32.392 -10.138 -21.918  0.00  0.00    +0.005 C 
BRANCH  10  15
ATOM     13  O   UNL     1      33.295  -8.535 -24.050  0.00  0.00    -0.270 OA
ATOM     14  N   UNL     1      35.225  -9.753 -24.266  0.00  0.00    -0.325 N 
ATOM     15  C   UNL     1      33.969  -9.524 -23.713  0.00  0.00    +0.243 C 
ATOM     16  H   UNL     1      35.586  -9.136 -24.943  0.00  0.00    +0.145 HD
ATOM     17  H   UNL     1      35.754 -10.533 -23.982  0.00  0.00    +0.145 HD
ENDBRANCH  10  15
ENDBRANCH   4   7
BRANCH   1  18
ATOM     18  C   UNL     1      36.216 -17.692 -20.994  0.00  0.00    -0.038 C 
BRANCH  18  19
ATOM     19  N   UNL     1      37.443 -17.798 -21.812  0.00  0.00    +0.384 N 
ATOM     20  H   UNL     1      38.236 -17.432 -21.285  0.00  0.00    -0.089 HD
ATOM     21  H   UNL     1      37.327 -17.257 -22.670  0.00  0.00    -0.089 HD
ATOM     22  H   UNL     1      37.613 -18.775 -22.047  0.00  0.00    -0.089 HD
ENDBRANCH  18  19
BRANCH  18  23
ATOM     23  C   UNL     1      35.309 -18.912 -21.329  0.00  0.00    +0.011 C 
BRANCH  23  26
ATOM     24  F   UNL     1      37.392 -20.234 -19.931  0.00  0.00    -0.205 F 
ATOM     25  F   UNL     1      32.290 -21.035 -18.130  0.00  0.00    -0.204 F 
ATOM     26  C   UNL     1      35.066 -19.807 -20.135  0.00  0.00    +0.006 C 
ATOM     27  C   UNL     1      36.139 -20.426 -19.495  0.00  0.00    +0.136 C 
ATOM     28  C   UNL     1      33.766 -20.011 -19.674  0.00  0.00    +0.028 C 
ATOM     29  C   UNL     1      33.538 -20.837 -18.573  0.00  0.00    +0.140 C 
ATOM     30  C   UNL     1      35.912 -21.251 -18.393  0.00  0.00    +0.032 C 
ATOM     31  C   UNL     1      34.612 -21.456 -17.932  0.00  0.00    +0.032 C 
ENDBRANCH  23  26
ENDBRANCH  18  23
ENDBRANCH   1  18
TORSDOF 6
ENDMDL
MODEL 9
REMARK VINA RESULT:     -11.1      4.255      9.306
REMARK  Name = 24832041
REMARK  6 active torsions:
REMARK  status: ('A' for Active; 'I' for Inactive)
REMARK    1  A    between atoms: C_1  and  C_18
REMARK    2  A    between atoms: C_4  and  C_7
REMARK    3  A    between atoms: C_10  and  C_15
REMARK    4  A    between atoms: C_18  and  N_19
REMARK    5  A    between atoms: C_18  and  C_23
REMARK    6  A    between atoms: C_23  and  C_26
REMARK                            x       y       z     vdW  Elec       q    Type
REMARK                         _______ _______ _______ _____ _____    ______ ____
ROOT
ATOM      1  C   UNL     1      34.413 -21.611 -17.830  0.00  0.00    -0.042 C 
ATOM      2  C   UNL     1      33.318 -21.058 -18.493  0.00  0.00    -0.006 C 
ATOM      3  C   UNL     1      35.706 -21.206 -18.163  0.00  0.00    -0.006 C 
ATOM      4  C   UNL     1      34.808 -19.697 -19.822  0.00  0.00    -0.000 C 
ATOM      5  C   UNL     1      33.514 -20.101 -19.489  0.00  0.00    -0.000 C 
ATOM      6  C   UNL     1      35.903 -20.250 -19.159  0.00  0.00    -0.000 C 
ENDROOT
BRANCH   4   7
ATOM      7  C   UNL     1      35.011 -18.705 -20.854  0.00  0.00    +0.000 C 
ATOM      8  C   UNL     1      34.544 -18.938 -22.148  0.00  0.00    +0.005 C 
ATOM      9  C   UNL     1      35.675 -17.515 -20.556  0.00  0.00    +0.000 C 
ATOM     10  C   UNL     1      34.741 -17.981 -23.144  0.00  0.00    +0.053 C 
ATOM     11  C   UNL     1      35.871 -16.558 -21.552  0.00  0.00    +0.000 C 
ATOM     12  C   UNL     1      35.404 -16.790 -22.846  0.00  0.00    +0.005 C 
BRANCH  10  15
ATOM     13  O   UNL     1      33.713 -17.320 -25.157  0.00  0.00    -0.270 OA
ATOM     14  N   UNL     1      34.424 -19.496 -25.025  0.00  0.00    -0.325 N 
ATOM     15  C   UNL     1      34.252 -18.222 -24.492  0.00  0.00    +0.243 C 
ATOM     16  H   UNL     1      34.105 -19.697 -25.935  0.00  0.00    +0.145 HD
ATOM     17  H   UNL     1      34.864 -20.197 -24.492  0.00  0.00    +0.145 HD
ENDBRANCH  10  15
ENDBRANCH   4   7
BRANCH   1  18
ATOM     18  C   UNL     1      34.204 -22.632 -16.765  0.00  0.00    -0.038 C 
BRANCH  18  19
ATOM     19  N   UNL     1      32.772 -22.950 -16.575  0.00  0.00    +0.384 N 
ATOM     20  H   UNL     1      32.494 -22.715 -15.622  0.00  0.00    -0.089 HD
ATOM     21  H   UNL     1      32.620 -23.947 -16.737  0.00  0.00    -0.089 HD
ATOM     22  H   UNL     1      32.213 -22.410 -17.235  0.00  0.00    -0.089 HD
ENDBRANCH  18  19
BRANCH  18  23
ATOM     23  C   UNL     1      34.796 -22.243 -15.380  0.00  0.00    +0.011 C 
BRANCH  23  26
ATOM     24  F   UNL     1      37.443 -21.227 -15.283  0.00  0.00    -0.205 F 
ATOM     25  F   UNL     1      36.754 -26.500 -14.003  0.00  0.00    -0.204 F 
ATOM     26  C   UNL     1      35.992 -23.085 -14.997  0.00  0.00    +0.006 C 
ATOM     27  C   UNL     1      37.266 -22.519 -14.970  0.00  0.00    +0.136 C 
ATOM     28  C   UNL     1      35.818 -24.429 -14.670  0.00  0.00    +0.028 C 
ATOM     29  C   UNL     1      36.920 -25.209 -14.317  0.00  0.00    +0.140 C 
ATOM     30  C   UNL     1      38.368 -23.299 -14.617  0.00  0.00    +0.032 C 
ATOM     31  C   UNL     1      38.195 -24.643 -14.290  0.00  0.00    +0.032 C 
ENDBRANCH  23  26
ENDBRANCH  18  23
ENDBRANCH   1  18
TORSDOF 6
ENDMDL
