MODEL 1
REMARK VINA RESULT:     -11.5      0.000      0.000
REMARK  Name = 10125830
REMARK  4 active torsions:
REMARK  status: ('A' for Active; 'I' for Inactive)
REMARK    1  A    between atoms: C_6  and  C_19
REMARK    2  A    between atoms: C_11  and  C_14
REMARK    3  A    between atoms: C_22  and  O_25
REMARK    4  A    between atoms: C_24  and  O_27
REMARK                            x       y       z     vdW  Elec       q    Type
REMARK                         _______ _______ _______ _____ _____    ______ ____
ROOT
ATOM      1  O   UNL     1      33.000 -22.704 -16.549  0.00  0.00    -0.270 OA
ATOM      2  N   UNL     1      33.055 -21.308 -18.454  0.00  0.00    -0.280 N 
ATOM      3  C   UNL     1      35.280 -20.730 -18.469  0.00  0.00    +0.018 C 
ATOM      4  C   UNL     1      34.049 -20.576 -19.113  0.00  0.00    +0.051 C 
ATOM      5  C   UNL     1      35.029 -21.616 -17.338  0.00  0.00    +0.056 C 
ATOM      6  C   UNL     1      35.035 -19.150 -20.732  0.00  0.00    +0.001 C 
ATOM      7  C   UNL     1      33.897 -19.796 -20.242  0.00  0.00    +0.015 C 
ATOM      8  C   UNL     1      36.411 -20.094 -18.948  0.00  0.00    +0.001 C 
ATOM      9  C   UNL     1      33.573 -21.983 -17.344  0.00  0.00    +0.250 C 
ATOM     10  C   UNL     1      36.280 -19.299 -20.091  0.00  0.00    +0.000 C 
ATOM     11  C   UNL     1      35.893 -22.063 -16.424  0.00  0.00    +0.019 C 
ATOM     12  H   UNL     1      32.113 -21.344 -18.737  0.00  0.00    +0.155 HD
ENDROOT
BRANCH  11  14
ATOM     13  N   UNL     1      34.986 -22.404 -14.249  0.00  0.00    -0.312 N 
ATOM     14  C   UNL     1      35.631 -22.941 -15.308  0.00  0.00    +0.049 C 
ATOM     15  C   UNL     1      35.905 -24.244 -15.087  0.00  0.00    +0.016 C 
ATOM     16  C   UNL     1      34.831 -23.385 -13.304  0.00  0.00    +0.062 C 
ATOM     17  C   UNL     1      35.395 -24.540 -13.799  0.00  0.00    +0.017 C 
ATOM     18  H   UNL     1      34.681 -21.471 -14.170  0.00  0.00    +0.152 HD
ENDBRANCH  11  14
BRANCH   6  19
ATOM     19  C   UNL     1      34.935 -18.319 -21.912  0.00  0.00    +0.003 C 
ATOM     20  C   UNL     1      35.351 -16.989 -21.864  0.00  0.00    +0.040 C 
ATOM     21  C   UNL     1      34.424 -18.848 -23.096  0.00  0.00    +0.003 C 
ATOM     22  C   UNL     1      35.256 -16.187 -23.001  0.00  0.00    +0.172 C 
ATOM     23  C   UNL     1      34.329 -18.047 -24.234  0.00  0.00    +0.040 C 
ATOM     24  C   UNL     1      34.745 -16.717 -24.187  0.00  0.00    +0.168 C 
BRANCH  22  25
ATOM     25  O   UNL     1      35.665 -14.889 -22.943  0.00  0.00    -0.468 OA
ATOM     26  C   UNL     1      34.779 -13.957 -22.327  0.00  0.00    +0.253 C 
ENDBRANCH  22  25
BRANCH  24  27
ATOM     27  O   UNL     1      34.648 -15.944 -25.305  0.00  0.00    -0.503 OA
ATOM     28  H   UNL     1      34.213 -15.116 -25.264  0.00  0.00    +0.292 HD
ENDBRANCH  24  27
ENDBRANCH   6  19
TORSDOF 4
ENDMDL
MODEL 2
REMARK VINA RESULT:     -11.0      2.810      9.472
REMARK  Name = 10125830
REMARK  4 active torsions:
REMARK  status: ('A' for Active; 'I' for Inactive)
REMARK    1  A    between atoms: C_6  and  C_19
REMARK    2  A    between atoms: C_11  and  C_14
REMARK    3  A    between atoms: C_22  and  O_25
REMARK    4  A    between atoms: C_24  and  O_27
REMARK                            x       y       z     vdW  Elec       q    Type
REMARK                         _______ _______ _______ _____ _____    ______ ____
ROOT
ATOM      1  O   UNL     1      33.327 -20.137 -20.140  0.00  0.00    -0.270 OA
ATOM      2  N   UNL     1      33.780 -21.383 -18.184  0.00  0.00    -0.280 N 
ATOM      3  C   UNL     1      36.006 -20.884 -17.892  0.00  0.00    +0.018 C 
ATOM      4  C   UNL     1      34.911 -21.592 -17.387  0.00  0.00    +0.051 C 
ATOM      5  C   UNL     1      35.517 -20.193 -19.081  0.00  0.00    +0.056 C 
ATOM      6  C   UNL     1      36.234 -22.437 -15.610  0.00  0.00    +0.001 C 
ATOM      7  C   UNL     1      34.995 -22.373 -16.252  0.00  0.00    +0.015 C 
ATOM      8  C   UNL     1      37.235 -20.943 -17.263  0.00  0.00    +0.001 C 
ATOM      9  C   UNL     1      34.065 -20.530 -19.255  0.00  0.00    +0.250 C 
ATOM     10  C   UNL     1      37.343 -21.728 -16.110  0.00  0.00    +0.000 C 
ATOM     11  C   UNL     1      36.187 -19.387 -19.907  0.00  0.00    +0.019 C 
ATOM     12  H   UNL     1      32.898 -21.785 -18.013  0.00  0.00    +0.155 HD
ENDROOT
BRANCH  11  14
ATOM     13  N   UNL     1      35.303 -19.485 -22.116  0.00  0.00    -0.312 N 
ATOM     14  C   UNL     1      35.692 -18.708 -21.081  0.00  0.00    +0.049 C 
ATOM     15  C   UNL     1      35.525 -17.402 -21.378  0.00  0.00    +0.016 C 
ATOM     16  C   UNL     1      34.867 -18.663 -23.123  0.00  0.00    +0.062 C 
ATOM     17  C   UNL     1      34.995 -17.363 -22.692  0.00  0.00    +0.017 C 
ATOM     18  H   UNL     1      35.328 -20.469 -22.142  0.00  0.00    +0.152 HD
ENDBRANCH  11  14
BRANCH   6  19
ATOM     19  C   UNL     1      36.382 -23.241 -14.415  0.00  0.00    +0.003 C 
ATOM     20  C   UNL     1      37.471 -24.103 -14.286  0.00  0.00    +0.040 C 
ATOM     21  C   UNL     1      35.436 -23.153 -13.395  0.00  0.00    +0.003 C 
ATOM     22  C   UNL     1      37.614 -24.877 -13.135  0.00  0.00    +0.172 C 
ATOM     23  C   UNL     1      35.579 -23.926 -12.243  0.00  0.00    +0.040 C 
ATOM     24  C   UNL     1      36.668 -24.789 -12.113  0.00  0.00    +0.168 C 
BRANCH  22  25
ATOM     25  O   UNL     1      38.681 -25.716 -13.020  0.00  0.00    -0.468 OA
ATOM     26  C   UNL     1      39.920 -25.267 -13.564  0.00  0.00    +0.253 C 
ENDBRANCH  22  25
BRANCH  24  27
ATOM     27  O   UNL     1      36.797 -25.539 -10.983  0.00  0.00    -0.503 OA
ATOM     28  H   UNL     1      37.526 -26.120 -10.888  0.00  0.00    +0.292 HD
ENDBRANCH  24  27
ENDBRANCH   6  19
TORSDOF 4
ENDMDL
MODEL 3
REMARK VINA RESULT:     -10.9      2.628      9.163
REMARK  Name = 10125830
REMARK  4 active torsions:
REMARK  status: ('A' for Active; 'I' for Inactive)
REMARK    1  A    between atoms: C_6  and  C_19
REMARK    2  A    between atoms: C_11  and  C_14
REMARK    3  A    between atoms: C_22  and  O_25
REMARK    4  A    between atoms: C_24  and  O_27
REMARK                            x       y       z     vdW  Elec       q    Type
REMARK                         _______ _______ _______ _____ _____    ______ ____
ROOT
ATOM      1  O   UNL     1      37.202 -17.983 -21.398  0.00  0.00    -0.270 OA
ATOM      2  N   UNL     1      37.275 -19.344 -19.468  0.00  0.00    -0.280 N 
ATOM      3  C   UNL     1      35.114 -20.129 -19.444  0.00  0.00    +0.018 C 
ATOM      4  C   UNL     1      36.352 -20.153 -18.796  0.00  0.00    +0.051 C 
ATOM      5  C   UNL     1      35.284 -19.245 -20.592  0.00  0.00    +0.056 C 
ATOM      6  C   UNL     1      35.502 -21.637 -17.153  0.00  0.00    +0.001 C 
ATOM      7  C   UNL     1      36.575 -20.896 -17.653  0.00  0.00    +0.015 C 
ATOM      8  C   UNL     1      34.047 -20.859 -18.954  0.00  0.00    +0.001 C 
ATOM      9  C   UNL     1      36.699 -18.743 -20.592  0.00  0.00    +0.250 C 
ATOM     10  C   UNL     1      34.250 -21.618 -17.797  0.00  0.00    +0.000 C 
ATOM     11  C   UNL     1      34.386 -18.903 -21.518  0.00  0.00    +0.019 C 
ATOM     12  H   UNL     1      38.209 -19.215 -19.187  0.00  0.00    +0.155 HD
ENDROOT
BRANCH  11  14
ATOM     13  N   UNL     1      34.898 -16.745 -22.383  0.00  0.00    -0.312 N 
ATOM     14  C   UNL     1      34.566 -18.027 -22.651  0.00  0.00    +0.049 C 
ATOM     15  C   UNL     1      34.472 -18.224 -23.983  0.00  0.00    +0.016 C 
ATOM     16  C   UNL     1      35.026 -16.080 -23.575  0.00  0.00    +0.062 C 
ATOM     17  C   UNL     1      34.765 -16.976 -24.587  0.00  0.00    +0.017 C 
ATOM     18  H   UNL     1      35.026 -16.356 -21.487  0.00  0.00    +0.152 HD
ENDBRANCH  11  14
BRANCH   6  19
ATOM     19  C   UNL     1      35.676 -22.433 -15.957  0.00  0.00    +0.003 C 
ATOM     20  C   UNL     1      36.932 -22.524 -15.359  0.00  0.00    +0.040 C 
ATOM     21  C   UNL     1      34.589 -23.108 -15.404  0.00  0.00    +0.003 C 
ATOM     22  C   UNL     1      37.102 -23.291 -14.206  0.00  0.00    +0.172 C 
ATOM     23  C   UNL     1      34.757 -23.874 -14.251  0.00  0.00    +0.040 C 
ATOM     24  C   UNL     1      36.014 -23.966 -13.652  0.00  0.00    +0.168 C 
BRANCH  22  25
ATOM     25  O   UNL     1      38.333 -23.373 -13.630  0.00  0.00    -0.468 OA
ATOM     26  C   UNL     1      39.250 -24.310 -14.191  0.00  0.00    +0.253 C 
ENDBRANCH  22  25
BRANCH  24  27
ATOM     27  O   UNL     1      36.166 -24.718 -12.526  0.00  0.00    -0.503 OA
ATOM     28  H   UNL     1      37.012 -24.812 -12.137  0.00  0.00    +0.292 HD
ENDBRANCH  24  27
ENDBRANCH   6  19
TORSDOF 4
ENDMDL
MODEL 4
REMARK VINA RESULT:     -10.7      1.520      2.380
REMARK  Name = 10125830
REMARK  4 active torsions:
REMARK  status: ('A' for Active; 'I' for Inactive)
REMARK    1  A    between atoms: C_6  and  C_19
REMARK    2  A    between atoms: C_11  and  C_14
REMARK    3  A    between atoms: C_22  and  O_25
REMARK    4  A    between atoms: C_24  and  O_27
REMARK                            x       y       z     vdW  Elec       q    Type
REMARK                         _______ _______ _______ _____ _____    ______ ____
ROOT
ATOM      1  O   UNL     1      34.566 -22.496 -16.950  0.00  0.00    -0.270 OA
ATOM      2  N   UNL     1      34.198 -21.154 -18.859  0.00  0.00    -0.280 N 
ATOM      3  C   UNL     1      36.180 -19.992 -18.926  0.00  0.00    +0.018 C 
ATOM      4  C   UNL     1      34.940 -20.185 -19.542  0.00  0.00    +0.051 C 
ATOM      5  C   UNL     1      36.204 -20.903 -17.787  0.00  0.00    +0.056 C 
ATOM      6  C   UNL     1      35.465 -18.558 -21.186  0.00  0.00    +0.001 C 
ATOM      7  C   UNL     1      34.557 -19.485 -20.669  0.00  0.00    +0.015 C 
ATOM      8  C   UNL     1      37.084 -19.076 -19.432  0.00  0.00    +0.001 C 
ATOM      9  C   UNL     1      34.904 -21.653 -17.759  0.00  0.00    +0.250 C 
ATOM     10  C   UNL     1      36.717 -18.356 -20.573  0.00  0.00    +0.000 C 
ATOM     11  C   UNL     1      37.176 -21.091 -16.892  0.00  0.00    +0.019 C 
ATOM     12  H   UNL     1      33.295 -21.448 -19.120  0.00  0.00    +0.155 HD
ENDROOT
BRANCH  11  14
ATOM     13  N   UNL     1      38.296 -22.755 -15.609  0.00  0.00    -0.312 N 
ATOM     14  C   UNL     1      37.188 -21.997 -15.769  0.00  0.00    +0.049 C 
ATOM     15  C   UNL     1      36.289 -22.260 -14.798  0.00  0.00    +0.016 C 
ATOM     16  C   UNL     1      38.117 -23.539 -14.499  0.00  0.00    +0.062 C 
ATOM     17  C   UNL     1      36.877 -23.252 -13.975  0.00  0.00    +0.017 C 
ATOM     18  H   UNL     1      39.091 -22.746 -16.190  0.00  0.00    +0.152 HD
ENDBRANCH  11  14
BRANCH   6  19
ATOM     19  C   UNL     1      35.118 -17.795 -22.366  0.00  0.00    +0.003 C 
ATOM     20  C   UNL     1      34.439 -18.410 -23.417  0.00  0.00    +0.040 C 
ATOM     21  C   UNL     1      35.461 -16.447 -22.450  0.00  0.00    +0.003 C 
ATOM     22  C   UNL     1      34.104 -17.676 -24.555  0.00  0.00    +0.172 C 
ATOM     23  C   UNL     1      35.124 -15.711 -23.586  0.00  0.00    +0.040 C 
ATOM     24  C   UNL     1      34.446 -16.326 -24.639  0.00  0.00    +0.168 C 
BRANCH  22  25
ATOM     25  O   UNL     1      33.441 -18.287 -25.576  0.00  0.00    -0.468 OA
ATOM     26  C   UNL     1      32.017 -18.292 -25.514  0.00  0.00    +0.253 C 
ENDBRANCH  22  25
BRANCH  24  27
ATOM     27  O   UNL     1      34.123 -15.597 -25.744  0.00  0.00    -0.503 OA
ATOM     28  H   UNL     1      33.224 -15.480 -25.981  0.00  0.00    +0.292 HD
ENDBRANCH  24  27
ENDBRANCH   6  19
TORSDOF 4
ENDMDL
MODEL 5
REMARK VINA RESULT:     -10.6      2.340      9.117
REMARK  Name = 10125830
REMARK  4 active torsions:
REMARK  status: ('A' for Active; 'I' for Inactive)
REMARK    1  A    between atoms: C_6  and  C_19
REMARK    2  A    between atoms: C_11  and  C_14
REMARK    3  A    between atoms: C_22  and  O_25
REMARK    4  A    between atoms: C_24  and  O_27
REMARK                            x       y       z     vdW  Elec       q    Type
REMARK                         _______ _______ _______ _____ _____    ______ ____
ROOT
ATOM      1  O   UNL     1      32.808 -19.441 -21.065  0.00  0.00    -0.270 OA
ATOM      2  N   UNL     1      33.204 -20.662 -19.081  0.00  0.00    -0.280 N 
ATOM      3  C   UNL     1      35.477 -20.381 -18.879  0.00  0.00    +0.018 C 
ATOM      4  C   UNL     1      34.336 -20.958 -18.314  0.00  0.00    +0.051 C 
ATOM      5  C   UNL     1      35.018 -19.684 -20.076  0.00  0.00    +0.056 C 
ATOM      6  C   UNL     1      35.631 -21.873 -16.549  0.00  0.00    +0.001 C 
ATOM      7  C   UNL     1      34.382 -21.705 -17.153  0.00  0.00    +0.015 C 
ATOM      8  C   UNL     1      36.716 -20.543 -18.287  0.00  0.00    +0.001 C 
ATOM      9  C   UNL     1      33.534 -19.877 -20.191  0.00  0.00    +0.250 C 
ATOM     10  C   UNL     1      36.786 -21.296 -17.111  0.00  0.00    +0.000 C 
ATOM     11  C   UNL     1      35.735 -18.977 -20.952  0.00  0.00    +0.019 C 
ATOM     12  H   UNL     1      32.293 -20.967 -18.867  0.00  0.00    +0.155 HD
ENDROOT
BRANCH  11  14
ATOM     13  N   UNL     1      34.841 -19.062 -23.157  0.00  0.00    -0.312 N 
ATOM     14  C   UNL     1      35.269 -18.291 -22.133  0.00  0.00    +0.049 C 
ATOM     15  C   UNL     1      35.163 -16.983 -22.447  0.00  0.00    +0.016 C 
ATOM     16  C   UNL     1      34.441 -18.234 -24.174  0.00  0.00    +0.062 C 
ATOM     17  C   UNL     1      34.632 -16.936 -23.760  0.00  0.00    +0.017 C 
ATOM     18  H   UNL     1      34.821 -20.046 -23.171  0.00  0.00    +0.152 HD
ENDBRANCH  11  14
BRANCH   6  19
ATOM     19  C   UNL     1      35.739 -22.647 -15.332  0.00  0.00    +0.003 C 
ATOM     20  C   UNL     1      34.621 -22.826 -14.518  0.00  0.00    +0.040 C 
ATOM     21  C   UNL     1      36.962 -23.213 -14.973  0.00  0.00    +0.003 C 
ATOM     22  C   UNL     1      34.725 -23.572 -13.345  0.00  0.00    +0.172 C 
ATOM     23  C   UNL     1      37.066 -23.961 -13.800  0.00  0.00    +0.040 C 
ATOM     24  C   UNL     1      35.948 -24.141 -12.986  0.00  0.00    +0.168 C 
BRANCH  22  25
ATOM     25  O   UNL     1      33.626 -23.740 -12.557  0.00  0.00    -0.468 OA
ATOM     26  C   UNL     1      32.416 -24.123 -13.206  0.00  0.00    +0.253 C 
ENDBRANCH  22  25
BRANCH  24  27
ATOM     27  O   UNL     1      36.062 -24.872 -11.843  0.00  0.00    -0.503 OA
ATOM     28  H   UNL     1      36.021 -24.447 -11.009  0.00  0.00    +0.292 HD
ENDBRANCH  24  27
ENDBRANCH   6  19
TORSDOF 4
ENDMDL
MODEL 6
REMARK VINA RESULT:      -9.8      2.417      3.575
REMARK  Name = 10125830
REMARK  4 active torsions:
REMARK  status: ('A' for Active; 'I' for Inactive)
REMARK    1  A    between atoms: C_6  and  C_19
REMARK    2  A    between atoms: C_11  and  C_14
REMARK    3  A    between atoms: C_22  and  O_25
REMARK    4  A    between atoms: C_24  and  O_27
REMARK                            x       y       z     vdW  Elec       q    Type
REMARK                         _______ _______ _______ _____ _____    ______ ____
ROOT
ATOM      1  O   UNL     1      38.424 -22.743 -14.062  0.00  0.00    -0.270 OA
ATOM      2  N   UNL     1      37.860 -21.542 -16.017  0.00  0.00    -0.280 N 
ATOM      3  C   UNL     1      35.667 -22.187 -16.270  0.00  0.00    +0.018 C 
ATOM      4  C   UNL     1      36.706 -21.415 -16.798  0.00  0.00    +0.051 C 
ATOM      5  C   UNL     1      36.218 -22.836 -15.085  0.00  0.00    +0.056 C 
ATOM      6  C   UNL     1      35.303 -20.672 -18.560  0.00  0.00    +0.001 C 
ATOM      7  C   UNL     1      36.553 -20.649 -17.937  0.00  0.00    +0.015 C 
ATOM      8  C   UNL     1      34.428 -22.215 -16.882  0.00  0.00    +0.001 C 
ATOM      9  C   UNL     1      37.647 -22.403 -14.935  0.00  0.00    +0.250 C 
ATOM     10  C   UNL     1      34.250 -21.447 -18.037  0.00  0.00    +0.000 C 
ATOM     11  C   UNL     1      35.613 -23.671 -14.238  0.00  0.00    +0.019 C 
ATOM     12  H   UNL     1      38.711 -21.085 -16.205  0.00  0.00    +0.155 HD
ENDROOT
BRANCH  11  14
ATOM     13  N   UNL     1      36.932 -25.402 -13.272  0.00  0.00    -0.312 N 
ATOM     14  C   UNL     1      36.169 -24.306 -13.066  0.00  0.00    +0.049 C 
ATOM     15  C   UNL     1      36.087 -24.024 -11.749  0.00  0.00    +0.016 C 
ATOM     16  C   UNL     1      37.365 -25.854 -12.052  0.00  0.00    +0.062 C 
ATOM     17  C   UNL     1      36.853 -25.016 -11.087  0.00  0.00    +0.017 C 
ATOM     18  H   UNL     1      37.140 -25.806 -14.146  0.00  0.00    +0.152 HD
ENDBRANCH  11  14
BRANCH   6  19
ATOM     19  C   UNL     1      35.085 -19.889 -19.758  0.00  0.00    +0.003 C 
ATOM     20  C   UNL     1      36.132 -19.150 -20.306  0.00  0.00    +0.040 C 
ATOM     21  C   UNL     1      33.828 -19.875 -20.362  0.00  0.00    +0.003 C 
ATOM     22  C   UNL     1      35.922 -18.395 -21.461  0.00  0.00    +0.172 C 
ATOM     23  C   UNL     1      33.619 -19.122 -21.517  0.00  0.00    +0.040 C 
ATOM     24  C   UNL     1      34.666 -18.382 -22.067  0.00  0.00    +0.168 C 
BRANCH  22  25
ATOM     25  O   UNL     1      36.952 -17.677 -21.988  0.00  0.00    -0.468 OA
ATOM     26  C   UNL     1      38.269 -18.027 -21.568  0.00  0.00    +0.253 C 
ENDBRANCH  22  25
BRANCH  24  27
ATOM     27  O   UNL     1      34.449 -17.650 -23.195  0.00  0.00    -0.503 OA
ATOM     28  H   UNL     1      33.740 -17.038 -23.227  0.00  0.00    +0.292 HD
ENDBRANCH  24  27
ENDBRANCH   6  19
TORSDOF 4
ENDMDL
MODEL 7
REMARK VINA RESULT:      -9.8      3.906      7.167
REMARK  Name = 10125830
REMARK  4 active torsions:
REMARK  status: ('A' for Active; 'I' for Inactive)
REMARK    1  A    between atoms: C_6  and  C_19
REMARK    2  A    between atoms: C_11  and  C_14
REMARK    3  A    between atoms: C_22  and  O_25
REMARK    4  A    between atoms: C_24  and  O_27
REMARK                            x       y       z     vdW  Elec       q    Type
REMARK                         _______ _______ _______ _____ _____    ______ ____
ROOT
ATOM      1  O   UNL     1      35.694 -18.289 -22.893  0.00  0.00    -0.270 OA
ATOM      2  N   UNL     1      35.065 -16.080 -23.444  0.00  0.00    -0.280 N 
ATOM      3  C   UNL     1      34.933 -15.159 -21.341  0.00  0.00    +0.018 C 
ATOM      4  C   UNL     1      34.791 -14.920 -22.711  0.00  0.00    +0.051 C 
ATOM      5  C   UNL     1      35.320 -16.561 -21.221  0.00  0.00    +0.056 C 
ATOM      6  C   UNL     1      34.202 -12.661 -22.289  0.00  0.00    +0.001 C 
ATOM      7  C   UNL     1      34.428 -13.685 -23.212  0.00  0.00    +0.015 C 
ATOM      8  C   UNL     1      34.710 -14.151 -20.422  0.00  0.00    +0.001 C 
ATOM      9  C   UNL     1      35.401 -17.144 -22.602  0.00  0.00    +0.250 C 
ATOM     10  C   UNL     1      34.342 -12.892 -20.907  0.00  0.00    +0.000 C 
ATOM     11  C   UNL     1      35.576 -17.261 -20.114  0.00  0.00    +0.019 C 
ATOM     12  H   UNL     1      35.026 -16.138 -24.426  0.00  0.00    +0.155 HD
ENDROOT
BRANCH  11  14
ATOM     13  N   UNL     1      34.959 -19.558 -19.998  0.00  0.00    -0.312 N 
ATOM     14  C   UNL     1      35.959 -18.649 -20.008  0.00  0.00    +0.049 C 
ATOM     15  C   UNL     1      37.158 -19.260 -19.915  0.00  0.00    +0.016 C 
ATOM     16  C   UNL     1      35.519 -20.804 -19.895  0.00  0.00    +0.062 C 
ATOM     17  C   UNL     1      36.886 -20.649 -19.841  0.00  0.00    +0.017 C 
ATOM     18  H   UNL     1      33.996 -19.359 -20.053  0.00  0.00    +0.152 HD
ENDBRANCH  11  14
BRANCH   6  19
ATOM     19  C   UNL     1      33.819 -11.346 -22.757  0.00  0.00    +0.003 C 
ATOM     20  C   UNL     1      32.953 -10.562 -21.997  0.00  0.00    +0.040 C 
ATOM     21  C   UNL     1      34.317 -10.865 -23.967  0.00  0.00    +0.003 C 
ATOM     22  C   UNL     1      32.584  -9.294 -22.447  0.00  0.00    +0.172 C 
ATOM     23  C   UNL     1      33.949  -9.597 -24.417  0.00  0.00    +0.040 C 
ATOM     24  C   UNL     1      33.082  -8.812 -23.657  0.00  0.00    +0.168 C 
BRANCH  22  25
ATOM     25  O   UNL     1      31.736  -8.537 -21.696  0.00  0.00    -0.468 OA
ATOM     26  C   UNL     1      32.173  -8.179 -20.387  0.00  0.00    +0.253 C 
ENDBRANCH  22  25
BRANCH  24  27
ATOM     27  O   UNL     1      32.730  -7.575 -24.108  0.00  0.00    -0.503 OA
ATOM     28  H   UNL     1      32.491  -6.906 -23.498  0.00  0.00    +0.292 HD
ENDBRANCH  24  27
ENDBRANCH   6  19
TORSDOF 4
ENDMDL
MODEL 8
REMARK VINA RESULT:      -9.8      6.757      8.259
REMARK  Name = 10125830
REMARK  4 active torsions:
REMARK  status: ('A' for Active; 'I' for Inactive)
REMARK    1  A    between atoms: C_6  and  C_19
REMARK    2  A    between atoms: C_11  and  C_14
REMARK    3  A    between atoms: C_22  and  O_25
REMARK    4  A    between atoms: C_24  and  O_27
REMARK                            x       y       z     vdW  Elec       q    Type
REMARK                         _______ _______ _______ _____ _____    ______ ____
ROOT
ATOM      1  O   UNL     1      37.053 -22.819 -15.608  0.00  0.00    -0.270 OA
ATOM      2  N   UNL     1      34.751 -22.349 -15.858  0.00  0.00    -0.280 N 
ATOM      3  C   UNL     1      33.892 -23.596 -14.128  0.00  0.00    +0.018 C 
ATOM      4  C   UNL     1      33.586 -22.735 -15.186  0.00  0.00    +0.051 C 
ATOM      5  C   UNL     1      35.343 -23.752 -14.150  0.00  0.00    +0.056 C 
ATOM      6  C   UNL     1      31.275 -22.864 -14.668  0.00  0.00    +0.001 C 
ATOM      7  C   UNL     1      32.292 -22.352 -15.478  0.00  0.00    +0.015 C 
ATOM      8  C   UNL     1      32.892 -24.107 -13.323  0.00  0.00    +0.001 C 
ATOM      9  C   UNL     1      35.885 -22.931 -15.283  0.00  0.00    +0.250 C 
ATOM     10  C   UNL     1      31.573 -23.733 -13.600  0.00  0.00    +0.000 C 
ATOM     11  C   UNL     1      36.113 -24.475 -13.335  0.00  0.00    +0.019 C 
ATOM     12  H   UNL     1      34.770 -21.744 -16.634  0.00  0.00    +0.155 HD
ENDROOT
BRANCH  11  14
ATOM     13  N   UNL     1      38.067 -25.334 -14.390  0.00  0.00    -0.312 N 
ATOM     14  C   UNL     1      37.549 -24.621 -13.366  0.00  0.00    +0.049 C 
ATOM     15  C   UNL     1      38.530 -24.175 -12.553  0.00  0.00    +0.016 C 
ATOM     16  C   UNL     1      39.430 -25.356 -14.246  0.00  0.00    +0.062 C 
ATOM     17  C   UNL     1      39.745 -24.644 -13.111  0.00  0.00    +0.017 C 
ATOM     18  H   UNL     1      37.555 -25.763 -15.114  0.00  0.00    +0.152 HD
ENDBRANCH  11  14
BRANCH   6  19
ATOM     19  C   UNL     1      29.900 -22.498 -14.927  0.00  0.00    +0.003 C 
ATOM     20  C   UNL     1      29.334 -22.758 -16.174  0.00  0.00    +0.040 C 
ATOM     21  C   UNL     1      29.142 -21.886 -13.930  0.00  0.00    +0.003 C 
ATOM     22  C   UNL     1      28.007 -22.406 -16.425  0.00  0.00    +0.172 C 
ATOM     23  C   UNL     1      27.815 -21.535 -14.179  0.00  0.00    +0.040 C 
ATOM     24  C   UNL     1      27.248 -21.795 -15.427  0.00  0.00    +0.168 C 
BRANCH  22  25
ATOM     25  O   UNL     1      27.464 -22.664 -17.647  0.00  0.00    -0.468 OA
ATOM     26  C   UNL     1      26.667 -21.637 -18.233  0.00  0.00    +0.253 C 
ENDBRANCH  22  25
BRANCH  24  27
ATOM     27  O   UNL     1      25.951 -21.446 -15.659  0.00  0.00    -0.503 OA
ATOM     28  H   UNL     1      25.497 -21.799 -16.398  0.00  0.00    +0.292 HD
ENDBRANCH  24  27
ENDBRANCH   6  19
TORSDOF 4
ENDMDL
MODEL 9
REMARK VINA RESULT:      -9.6      6.766     12.137
REMARK  Name = 10125830
REMARK  4 active torsions:
REMARK  status: ('A' for Active; 'I' for Inactive)
REMARK    1  A    between atoms: C_6  and  C_19
REMARK    2  A    between atoms: C_11  and  C_14
REMARK    3  A    between atoms: C_22  and  O_25
REMARK    4  A    between atoms: C_24  and  O_27
REMARK                            x       y       z     vdW  Elec       q    Type
REMARK                         _______ _______ _______ _____ _____    ______ ____
ROOT
ATOM      1  O   UNL     1      33.801  -6.743 -23.047  0.00  0.00    -0.270 OA
ATOM      2  N   UNL     1      34.182  -8.989 -23.674  0.00  0.00    -0.280 N 
ATOM      3  C   UNL     1      32.907 -10.072 -22.096  0.00  0.00    +0.018 C 
ATOM      4  C   UNL     1      33.754 -10.232 -23.196  0.00  0.00    +0.051 C 
ATOM      5  C   UNL     1      32.806  -8.632 -21.880  0.00  0.00    +0.056 C 
ATOM      6  C   UNL     1      33.539 -12.590 -23.061  0.00  0.00    +0.001 C 
ATOM      7  C   UNL     1      34.086 -11.475 -23.700  0.00  0.00    +0.015 C 
ATOM      8  C   UNL     1      32.363 -11.171 -21.459  0.00  0.00    +0.001 C 
ATOM      9  C   UNL     1      33.643  -7.942 -22.918  0.00  0.00    +0.250 C 
ATOM     10  C   UNL     1      32.685 -12.439 -21.951  0.00  0.00    +0.000 C 
ATOM     11  C   UNL     1      32.109  -7.979 -20.948  0.00  0.00    +0.019 C 
ATOM     12  H   UNL     1      34.783  -8.866 -24.443  0.00  0.00    +0.155 HD
ENDROOT
BRANCH  11  14
ATOM     13  N   UNL     1      31.218  -5.867 -21.593  0.00  0.00    -0.312 N 
ATOM     14  C   UNL     1      32.016  -6.552 -20.745  0.00  0.00    +0.049 C 
ATOM     15  C   UNL     1      32.581  -5.719 -19.846  0.00  0.00    +0.016 C 
ATOM     16  C   UNL     1      31.260  -4.543 -21.239  0.00  0.00    +0.062 C 
ATOM     17  C   UNL     1      32.101  -4.423 -20.157  0.00  0.00    +0.017 C 
ATOM     18  H   UNL     1      30.698  -6.251 -22.335  0.00  0.00    +0.152 HD
ENDBRANCH  11  14
BRANCH   6  19
ATOM     19  C   UNL     1      33.852 -13.918 -23.544  0.00  0.00    +0.003 C 
ATOM     20  C   UNL     1      34.653 -14.766 -22.780  0.00  0.00    +0.040 C 
ATOM     21  C   UNL     1      33.352 -14.348 -24.772  0.00  0.00    +0.003 C 
ATOM     22  C   UNL     1      34.955 -16.046 -23.245  0.00  0.00    +0.172 C 
ATOM     23  C   UNL     1      33.653 -15.629 -25.237  0.00  0.00    +0.040 C 
ATOM     24  C   UNL     1      34.454 -16.477 -24.473  0.00  0.00    +0.168 C 
BRANCH  22  25
ATOM     25  O   UNL     1      35.739 -16.866 -22.491  0.00  0.00    -0.468 OA
ATOM     26  C   UNL     1      35.563 -16.811 -21.077  0.00  0.00    +0.253 C 
ENDBRANCH  22  25
BRANCH  24  27
ATOM     27  O   UNL     1      34.742 -17.726 -24.938  0.00  0.00    -0.503 OA
ATOM     28  H   UNL     1      35.477 -18.194 -24.597  0.00  0.00    +0.292 HD
ENDBRANCH  24  27
ENDBRANCH   6  19
TORSDOF 4
ENDMDL
